drugbank_target|Q01082 Spectrin beta chain, non-erythrocytic 1 (DB01373; DB03401)
 OpenBabel12092120553D

  0  0  0     0  0            999 V3000
M  V30 BEGIN CTAB
M  V30 COUNTS 38318 38635 0 0 0
M  V30 BEGIN ATOM
M  V30 1 H -0.908 1.98254 -0.117106 0
M  V30 2 N 0 1.576 0 0
M  V30 3 C 0.933 2.03868 1.02534 0
M  V30 4 C 1.911 0.928543 1.3348 0
M  V30 5 O 3.095 1.19667 1.45644 0
M  V30 6 C 0.222 2.43627 2.35294 0
M  V30 7 C -0.732 3.65373 2.2001 0
M  V30 8 S 0.101 5.13292 1.52614 0
M  V30 9 C 1.257 5.56322 2.86805 0
M  V30 10 H 1.49 2.90518 0.631377 0
M  V30 11 H -0.977 1.52953 0.210867 0
M  V30 12 H 0.981 2.67203 3.11629 0
M  V30 13 H -0.358 1.57376 2.7183 0
M  V30 14 H -1.165 3.90944 3.18086 0
M  V30 15 H -1.563 3.418 1.51819 0
M  V30 16 H 0.729 5.58782 3.83104 0
M  V30 17 H 1.672 6.56266 2.65933 0
M  V30 18 H 2.08 4.83886 2.90714 0
M  V30 19 N 1.4781 -0.272755 1.55222 0
M  V30 20 C 2.7061 -1.02255 1.79865 0
M  V30 21 C 3.1211 -1.79924 0.572088 0
M  V30 22 O 2.4781 -1.76638 -0.458842 0
M  V30 23 C 2.5291 -1.98094 3.02392 0
M  V30 24 O 2.2501 -1.23572 4.20311 0
M  V30 25 C 3.7511 -2.84884 3.39641 0
M  V30 26 H 0.9711 -0.302057 0.599168 0
M  V30 27 H 3.5151 -0.303465 2.02236 0
M  V30 28 H 1.6701 -2.65465 2.82147 0
M  V30 29 H 2.0841 -1.88172 4.89583 0
M  V30 30 H 3.5581 -3.47927 4.28545 0
M  V30 31 H 4.0351 -3.54665 2.59055 0
M  V30 32 H 4.6411 -2.23003 3.62146 0
M  V30 33 N 2.9562 -1.48159 -0.537278 0
M  V30 34 C 4.1842 -1.59454 -1.31841 0
M  V30 35 C 4.5992 -0.252065 -1.8711 0
M  V30 36 O 3.9562 0.757621 -1.66031 0
M  V30 37 C 4.0072 -2.63546 -2.47439 0
M  V30 38 O 3.7282 -3.92583 -1.94449 0
M  V30 39 C 5.2292 -2.85212 -3.39366 0
M  V30 40 H 2.4492 -0.53785 -0.401196 0
M  V30 41 H 4.9932 -1.93932 -0.648891 0
M  V30 42 H 3.1482 -2.31946 -3.1029 0
M  V30 43 H 3.5622 -4.49629 -2.70063 0
M  V30 44 H 5.0362 -3.61863 -4.16844 0
M  V30 45 H 5.5132 -1.93765 -3.94147 0
M  V30 46 H 6.1192 -3.18086 -2.82314 0
M  V30 47 N 4.4343 0.785586 -1.36625 0
M  V30 48 C 5.6623 1.57448 -1.3423 0
M  V30 49 C 6.0773 1.88649 0.0755653 0
M  V30 50 O 5.4343 1.50414 1.03354 0
M  V30 51 C 5.4853 2.89316 -2.16745 0
M  V30 52 O 5.2063 2.59459 -3.53005 0
M  V30 53 C 6.7073 3.83606 -2.22174 0
M  V30 54 H 3.9273 0.488226 -0.4603 0
M  V30 55 H 6.4713 0.974733 -1.79775 0
M  V30 56 H 4.6263 3.4575 -1.74745 0
M  V30 57 H 5.0403 3.43804 -3.96105 0
M  V30 58 H 6.5143 4.73181 -2.8426 0
M  V30 59 H 6.9913 4.21734 -1.22627 0
M  V30 60 H 7.5973 3.33104 -2.64427 0
M  V30 61 N 5.9124 1.20967 1.01018 0
M  V30 62 C 7.1584 1.02526 1.74975 0
M  V30 63 C 7.4914 -0.4408 1.89131 0
M  V30 64 O 6.7664 -1.32718 1.42184 0
M  V30 65 C 7.0494 1.71699 3.1653 0
M  V30 66 C 6.9024 3.25791 3.10129 0
M  V30 67 C 8.2214 1.45531 4.15342 0
M  V30 68 H 5.3404 0.373863 0.635134 0
M  V30 69 H 7.9824 1.49071 1.17805 0
M  V30 70 H 6.1324 1.32128 3.65341 0
M  V30 71 H 7.8044 3.74697 2.69072 0
M  V30 72 H 6.0474 3.56363 2.47362 0
M  V30 73 H 6.7184 3.69353 4.10222 0
M  V30 74 H 9.1944 1.79872 3.75213 0
M  V30 75 H 8.0704 1.96453 5.1254 0
M  V30 76 H 8.3314 0.384237 4.40427 0
M  V30 77 N 7.3905 -1.2043 1.01659 0
M  V30 78 C 8.3535 -2.21433 0.591616 0
M  V30 79 C 9.3535 -1.57203 -0.338226 0
M  V30 80 O 10.5435 -1.73737 -0.126918 0
M  V30 81 C 7.6755 -3.40628 -0.136058 0
M  V30 82 H 8.8685 -2.60545 1.48514 0
M  V30 83 H 6.4215 -1.33893 0.806379 0
M  V30 84 H 7.1565 -3.07019 -1.04449 0
M  V30 85 H 6.9415 -3.88475 0.531917 0
M  V30 86 H 8.4315 -4.15475 -0.420735 0
M  V30 87 N 8.8686 -0.792821 -1.36206 0
M  V30 88 C 10.0966 -0.378825 -2.03402 0
M  V30 89 C 10.5116 1.00586 -1.59774 0
M  V30 90 O 9.8686 1.64574 -0.788764 0
M  V30 91 C 9.9196 -0.43683 -3.58851 0
M  V30 92 O 9.6406 -1.76691 -4.00889 0
M  V30 93 C 11.1416 -0.0138943 -4.43298 0
M  V30 94 H 8.3616 -0.155673 -0.652692 0
M  V30 95 H 10.9056 -1.07261 -1.74113 0
M  V30 96 H 9.0606 0.208575 -3.86838 0
M  V30 97 H 9.4746 -1.72011 -4.95492 0
M  V30 98 H 10.9486 -0.105615 -5.51899 0
M  V30 99 H 11.4256 1.03915 -4.2673 0
M  V30 100 H 12.0316 -0.63192 -4.20579 0
M  V30 101 N 10.3467 1.47872 -0.545128 0
M  V30 102 C 11.6237 1.9554 0.0485222 0
M  V30 103 C 12.0037 1.4876 1.49779 0
M  V30 104 O 11.3517 0.720925 2.16829 0
M  V30 105 C 11.5617 3.48898 -0.084417 0
M  V30 106 C 12.9097 4.24547 0.0671239 0
M  V30 107 O 13.9337 3.56198 -0.0113649 0
M  V30 108 O 12.7927 5.45999 0.233882 0
M  V30 109 H 9.8867 0.823957 0.0708773 0
M  V30 110 H 12.4327 1.58327 -0.610798 0
M  V30 111 H 11.2047 3.75714 -1.09337 0
M  V30 112 H 10.8277 3.92845 0.613066 0
M  V30 113 N 11.8248 0.280983 1.55075 0
M  V30 114 C 13.0548 -0.336804 2.03836 0
M  V30 115 C 13.4628 -1.49577 1.15859 0
M  V30 116 O 12.8058 -1.82888 0.172503 0
M  V30 117 C 12.8678 -0.874616 3.48699 0
M  V30 118 C 12.5318 0.156478 4.56732 0
M  V30 119 C 13.5288 0.978032 5.10618 0
M  V30 120 C 11.2138 0.292409 5.01448 0
M  V30 121 C 13.2078 1.92165 6.07743 0
M  V30 122 C 10.8948 1.23949 5.98398 0
M  V30 123 C 11.8928 2.05261 6.51427 0
M  V30 124 O 11.5808 2.98367 7.4648 0
M  V30 125 H 11.3128 -0.0800885 0.671239 0
M  V30 126 H 13.8668 0.412589 2.01213 0
M  V30 127 H 12.0968 -1.67418 3.4858 0
M  V30 128 H 13.7858 -1.40612 3.80766 0
M  V30 129 H 14.5518 0.883782 4.7688 0
M  V30 130 H 10.4308 -0.330498 4.59814 0
M  V30 131 H 13.9748 2.55672 6.49059 0
M  V30 132 H 9.8718 1.33454 6.31554 0
M  V30 133 H 10.6398 2.93116 7.64215 0
M  V30 134 N 13.3029 -1.57598 0.00835791 0
M  V30 135 C 14.5799 -1.82172 -0.712235 0
M  V30 136 C 14.9599 -0.887873 -1.9152 0
M  V30 137 O 14.3079 0.06146 -2.28417 0
M  V30 138 C 14.5179 -3.30875 -1.11008 0
M  V30 139 C 15.8659 -3.96826 -1.51044 0
M  V30 140 O 16.8899 -3.35248 -1.20364 0
M  V30 141 O 15.7489 -5.05318 -2.08125 0
M  V30 142 H 12.8429 -0.750435 -0.347529 0
M  V30 143 H 15.3889 -1.69665 0.0344523 0
M  V30 144 H 14.1609 -3.90481 -0.252982 0
M  V30 145 H 13.7839 -3.48412 -1.9156 0
M  V30 146 N 14.781 0.264519 -1.55364 0
M  V30 147 C 15.729 1.34702 -1.89626 0
M  V30 148 C 16.723 1.50712 -0.773459 0
M  V30 149 O 17.929 1.52395 -0.957897 0
M  V30 150 H 14.304 0.450682 -0.601988 0
M  V30 151 H 16.275 1.0306 -2.80038 0
M  V30 152 C 15.024 2.6989 -2.19214 0
M  V30 153 H 14.347 2.58365 -3.05103 0
M  V30 154 H 15.787 3.44553 -2.47102 0
M  V30 155 C 14.246 3.21637 -1.00254 0
M  V30 156 O 14.776 4.00973 -0.241501 0
M  V30 157 N 12.982 2.7943 -0.797938 0
M  V30 158 H 12.529 2.15026 -1.4185 0
M  V30 159 H 12.487 3.144 -0.00363422 0
M  V30 160 N 16.2591 1.48442 0.529413 0
M  V30 161 C 17.5081 1.55742 1.28169 0
M  V30 162 C 17.8211 0.236511 1.94165 0
M  V30 163 O 19.0271 0.187761 2.7085 0
M  V30 164 C 17.4831 2.74667 2.32564 0
M  V30 165 C 17.0911 4.13402 1.72636 0
M  V30 166 C 18.8351 2.9128 3.08798 0
M  V30 167 C 16.7421 5.23587 2.74975 0
M  V30 168 H 15.6721 0.579796 0.48203 0
M  V30 169 H 18.3231 1.74776 0.559056 0
M  V30 170 H 16.7051 2.49067 3.07866 0
M  V30 171 H 17.8791 4.49022 1.03519 0
M  V30 172 H 16.1941 4.0191 1.08892 0
M  V30 173 H 18.7911 3.70767 3.85274 0
M  V30 174 H 19.1341 2.00757 3.64695 0
M  V30 175 H 19.6671 3.16782 2.40611 0
M  V30 176 H 16.4061 6.16076 2.23897 0
M  V30 177 H 15.9261 4.92454 3.42417 0
M  V30 178 H 17.6051 5.51724 3.37949 0
M  V30 179 N 17.7372 -0.778329 1.37039 0
M  V30 180 C 18.6472 -1.92253 1.34446 0
M  V30 181 C 19.6632 -1.72267 0.244991 0
M  V30 182 O 20.8392 -1.95615 0.479258 0
M  V30 183 C 17.9042 -3.27282 1.144 0
M  V30 184 C 16.9652 -3.59969 2.33925 0
M  V30 185 C 16.1982 -4.88555 2.14825 0
M  V30 186 O 16.4212 -5.59113 1.12912 0
M  V30 187 O 15.3552 -5.20153 3.02861 0
M  V30 188 H 19.1812 -1.97392 2.30803 0
M  V30 189 H 16.7662 -0.920154 1.17701 0
M  V30 190 H 18.6482 -4.08062 1.05182 0
M  V30 191 H 17.3232 -3.23011 0.211124 0
M  V30 192 H 16.2302 -2.7945 2.48714 0
M  V30 193 H 17.5632 -3.68976 3.25757 0
M  V30 194 N 19.2153 -1.21501 -1.00376 0
M  V30 195 C 20.4643 -1.02718 -1.73586 0
M  V30 196 C 20.7773 0.439589 -1.90596 0
M  V30 197 O 21.9833 0.746848 -2.61026 0
M  V30 198 C 20.4393 -1.78929 -3.1227 0
M  V30 199 C 20.0473 -3.29783 -3.03228 0
M  V30 200 C 21.7913 -1.68557 -3.89601 0
M  V30 201 C 19.6983 -3.98479 -4.36999 0
M  V30 202 H 18.6283 -0.380733 -0.650814 0
M  V30 203 H 21.2793 -1.45248 -1.1214 0
M  V30 204 H 19.6613 -1.29192 -3.74333 0
M  V30 205 H 20.8353 -3.86832 -2.50395 0
M  V30 206 H 19.1503 -3.40711 -2.39385 0
M  V30 207 H 21.7473 -2.17211 -4.88593 0
M  V30 208 H 22.0903 -0.644021 -4.11288 0
M  V30 209 H 22.6233 -2.15778 -3.34193 0
M  V30 210 H 19.3623 -5.02841 -4.20513 0
M  V30 211 H 18.8823 -3.46219 -4.89788 0
M  V30 212 H 20.5613 -4.03462 -5.05794 0
M  V30 213 N 20.6934 1.19889 -1.02296 0
M  V30 214 C 21.6254 2.22334 -0.556787 0
M  V30 215 C 22.6384 1.58674 0.364199 0
M  V30 216 O 23.8274 1.77768 0.161533 0
M  V30 217 C 20.9274 3.38257 0.208694 0
M  V30 218 C 20.1004 4.31504 -0.71577 0
M  V30 219 C 19.1594 5.262 0.00325597 0
M  V30 220 O 18.1854 5.65798 -0.621357 0
M  V30 221 N 19.3874 5.66303 1.27599 0
M  V30 222 H 22.1524 2.62957 -1.43784 0
M  V30 223 H 19.7134 1.34495 -0.901261 0
M  V30 224 H 21.7054 3.98616 0.699111 0
M  V30 225 H 20.2754 2.96472 0.991102 0
M  V30 226 H 19.4954 3.69016 -1.38638 0
M  V30 227 H 20.7834 4.9072 -1.34428 0
M  V30 228 H 20.1814 5.36155 1.80429 0
M  V30 229 H 18.7384 6.28942 1.71102 0
M  V30 230 N 22.1715 0.800033 1.35784 0
M  V30 231 C 23.1035 0.163596 2.28615 0
M  V30 232 C 24.1165 -0.633317 1.49976 0
M  V30 233 O 25.3055 -0.466754 1.72289 0
M  V30 234 C 22.4055 -0.790958 3.29541 0
M  V30 235 C 21.5785 -0.0418255 4.3738 0
M  V30 236 C 20.6375 -0.91389 5.18203 0
M  V30 237 O 19.6635 -0.367234 5.68014 0
M  V30 238 N 20.8655 -2.23682 5.35674 0
M  V30 239 H 23.6305 0.96105 2.83873 0
M  V30 240 H 21.1915 0.654894 1.48063 0
M  V30 241 H 23.1835 -1.37844 3.80501 0
M  V30 242 H 21.7535 -1.48925 2.74846 0
M  V30 243 H 20.9735 0.726813 3.87442 0
M  V30 244 H 22.2615 0.474719 5.06581 0
M  V30 245 H 21.6595 -2.70497 4.96838 0
M  V30 246 H 20.2165 -2.77369 5.89839 0
M  V30 247 N 23.6496 -1.47581 0.552962 0
M  V30 248 C 24.5816 -2.27997 -0.234533 0
M  V30 249 C 25.5946 -1.36753 -0.883321 0
M  V30 250 O 26.7836 -1.61612 -0.757889 0
M  V30 251 C 23.8836 -3.10879 -1.34935 0
M  V30 252 C 23.0566 -4.30056 -0.798158 0
M  V30 253 C 22.1156 -4.94567 -1.79694 0
M  V30 254 O 21.1416 -5.53087 -1.34474 0
M  V30 255 N 22.3436 -4.88878 -3.13015 0
M  V30 256 H 25.1086 -2.96222 0.455255 0
M  V30 257 H 22.6696 -1.57163 0.388761 0
M  V30 258 H 24.6616 -3.50903 -2.01616 0
M  V30 259 H 23.2316 -2.44924 -1.94244 0
M  V30 260 H 22.4516 -3.94174 0.0453079 0
M  V30 261 H 23.7396 -5.07152 -0.409173 0
M  V30 262 H 23.1376 -4.42526 -3.52402 0
M  V30 263 H 21.6946 -5.32934 -3.75266 0
M  V30 264 N 25.1277 -0.289203 -1.54924 0
M  V30 265 C 26.3577 0.325989 -2.04012 0
M  V30 266 C 26.7657 1.48961 -1.1665 0
M  V30 267 O 26.1087 1.82794 -0.1822 0
M  V30 268 C 26.1707 0.856112 -3.49158 0
M  V30 269 C 25.8347 -0.180697 -4.56643 0
M  V30 270 C 26.8317 -1.0051 -5.10092 0
M  V30 271 C 24.5167 -0.318998 -5.01286 0
M  V30 272 C 26.5107 -1.95385 -6.06715 0
M  V30 273 C 24.1977 -1.27121 -5.97732 0
M  V30 274 C 25.1957 -2.08713 -6.50329 0
M  V30 275 O 24.8837 -3.02322 -7.44887 0
M  V30 276 H 24.6157 0.0765276 -0.671654 0
M  V30 277 H 27.1697 -0.423254 -2.00992 0
M  V30 278 H 25.3997 1.65567 -3.49463 0
M  V30 279 H 27.0887 1.38591 -3.81507 0
M  V30 280 H 27.8547 -0.90906 -4.76404 0
M  V30 281 H 23.7337 0.306108 -4.59983 0
M  V30 282 H 27.2777 -2.59111 -6.47694 0
M  V30 283 H 23.1747 -1.36801 -6.30837 0
M  V30 284 H 23.9427 -2.97165 -7.6265 0
M  V30 285 N 26.6058 1.57591 -0.0167156 0
M  V30 286 C 27.8308 1.9598 0.67872 0
M  V30 287 C 28.2558 0.892546 1.65575 0
M  V30 288 O 27.6138 -0.147772 1.80697 0
M  V30 289 C 27.6618 3.33468 1.37227 0
M  V30 290 O 26.7658 3.28954 2.48722 0
M  V30 291 H 26.1068 0.639339 0.17928 0
M  V30 292 H 28.6368 2.04463 -0.0748802 0
M  V30 293 H 28.6468 3.69417 1.7319 0
M  V30 294 H 27.3218 4.10694 0.656007 0
M  V30 295 H 25.8988 3.04705 2.14963 0
M  V30 296 N 28.0839 -0.256276 1.55502 0
M  V30 297 C 29.3609 -1.00789 1.67633 0
M  V30 298 C 29.7409 -2.03706 0.553826 0
M  V30 299 O 29.0889 -2.24145 -0.443969 0
M  V30 300 C 29.2989 -1.64968 3.07549 0
M  V30 301 C 30.6469 -2.15505 3.65845 0
M  V30 302 O 31.6709 -1.74925 3.1029 0
M  V30 303 O 30.5299 -2.89986 4.63217 0
M  V30 304 H 27.6239 -0.468553 0.681459 0
M  V30 305 H 30.1699 -0.250806 1.67836 0
M  V30 306 H 28.9419 -0.904785 3.80696 0
M  V30 307 H 28.5649 -2.47321 3.11317 0
M  V30 308 N 29.562 -1.4872 -0.521534 0
M  V30 309 C 30.808 -1.574 -1.27879 0
M  V30 310 C 31.141 -0.250817 -1.92573 0
M  V30 311 O 30.416 0.743934 -1.79711 0
M  V30 312 C 30.699 -2.71843 -2.36164 0
M  V30 313 C 30.552 -4.13893 -1.76105 0
M  V30 314 C 31.871 -2.82008 -3.37875 0
M  V30 315 H 28.99 -0.572941 -0.463581 0
M  V30 316 H 31.632 -1.80927 -0.580119 0
M  V30 317 H 29.782 -2.51914 -2.95756 0
M  V30 318 H 31.454 -4.45284 -1.20499 0
M  V30 319 H 29.697 -4.20498 -1.06601 0
M  V30 320 H 30.368 -4.89804 -2.5455 0
M  V30 321 H 32.844 -3.00086 -2.88249 0
M  V30 322 H 31.72 -3.63796 -4.11028 0
M  V30 323 H 31.981 -1.90511 -3.98946 0
M  V30 324 N 31.0401 0.771051 -1.3745 0
M  V30 325 C 31.9881 1.90574 -1.33358 0
M  V30 326 C 32.9821 1.67936 -0.22224 0
M  V30 327 O 34.1881 1.75717 -0.390304 0
M  V30 328 H 30.5631 0.626714 -0.415612 0
M  V30 329 H 32.5341 1.91142 -2.29144 0
M  V30 330 C 31.2831 3.27845 -1.15813 0
M  V30 331 H 30.6061 3.45842 -2.00583 0
M  V30 332 H 32.0461 4.07538 -1.17 0
M  V30 333 C 30.5051 3.36625 0.136165 0
M  V30 334 O 31.0351 3.85785 1.11949 0
M  V30 335 N 29.2411 2.89997 0.187099 0
M  V30 336 H 28.7881 2.50182 -0.613753 0
M  V30 337 H 28.7461 2.96252 1.05272 0
M  V30 338 N 32.5182 1.22032 0.997298 0
M  V30 339 C 33.4662 0.983634 2.10778 0
M  V30 340 C 34.4602 -0.0717564 1.69248 0
M  V30 341 O 35.6662 0.080304 1.79821 0
M  V30 342 H 32.0412 0.300877 0.689186 0
M  V30 343 H 34.0122 1.92606 2.27916 0
M  V30 344 C 32.7612 0.57326 3.42942 0
M  V30 345 H 32.0842 1.37702 3.75338 0
M  V30 346 H 33.5242 0.447031 4.21637 0
M  V30 347 C 31.9832 -0.7167 3.29188 0
M  V30 348 O 32.5132 -1.77027 3.60589 0
M  V30 349 N 30.7192 -0.686167 2.82383 0
M  V30 350 H 30.2662 0.171507 2.57028 0
M  V30 351 H 30.2242 -1.54955 2.73562 0
M  V30 352 N 33.9963 -1.19345 1.0293 0
M  V30 353 C 35.4123 -1.41069 0.746446 0
M  V30 354 C 35.6123 -1.90078 -0.668776 0
M  V30 355 O 34.6683 -2.0778 -1.4347 0
M  V30 356 C 35.9813 -2.42141 1.78292 0
M  V30 357 C 37.5293 -2.55887 1.80252 0
M  V30 358 C 38.0043 -3.60214 2.8286 0
M  V30 359 N 39.4953 -3.67711 2.81679 0
M  V30 360 C 40.2303 -4.48128 3.57727 0
M  V30 361 N 39.7263 -5.32248 4.43491 0
M  V30 362 N 41.5193 -4.42782 3.46267 0
M  V30 363 H 33.6703 -0.858536 1.94275 0
M  V30 364 H 35.9333 -0.439541 0.839945 0
M  V30 365 H 35.6393 -2.13155 2.79746 0
M  V30 366 H 35.5133 -3.41323 1.60557 0
M  V30 367 H 37.9003 -2.84196 0.794757 0
M  V30 368 H 37.9813 -1.56858 2.02062 0
M  V30 369 H 37.6253 -3.32647 3.83807 0
M  V30 370 H 37.5553 -4.58895 2.58307 0
M  V30 371 H 40.0463 -3.07634 2.19476 0
M  V30 372 H 40.3593 -5.90729 4.98256 0
M  V30 373 H 38.7043 -5.31707 4.47564 0
M  V30 374 H 41.8953 -3.76107 2.78677 0
M  V30 375 H 42.0683 -5.05215 4.05785 0
M  V30 376 N 35.4744 -0.807222 -1.35358 0
M  V30 377 C 36.7204 -0.397594 -1.99476 0
M  V30 378 C 37.0754 1.02405 -1.62883 0
M  V30 379 O 36.3684 1.70077 -0.882282 0
M  V30 380 C 36.5624 -0.519036 -3.53611 0
M  V30 381 C 36.3914 -1.95094 -4.05177 0
M  V30 382 C 35.1614 -2.57945 -4.34503 0
M  V30 383 C 37.3594 -2.91558 -4.23673 0
M  V30 384 N 35.3414 -3.92539 -4.72003 0
M  V30 385 C 36.7124 -4.11024 -4.64176 0
M  V30 386 C 38.7674 -2.88381 -4.05883 0
M  V30 387 C 37.4704 -5.27745 -4.88751 0
M  V30 388 C 39.4964 -4.04306 -4.31614 0
M  V30 389 C 38.8584 -5.22519 -4.72391 0
M  V30 390 H 34.9574 -0.193274 -0.75774 0
M  V30 391 H 37.5414 -1.0486 -1.6405 0
M  V30 392 H 35.7124 0.101979 -3.88266 0
M  V30 393 H 37.4444 -0.0839321 -4.04613 0
M  V30 394 H 34.1994 -2.09295 -4.24844 0
M  V30 395 H 34.6234 -4.61836 -4.95011 0
M  V30 396 H 39.2654 -1.98137 -3.73499 0
M  V30 397 H 36.9834 -6.1856 -5.20008 0
M  V30 398 H 40.5694 -4.03229 -4.19402 0
M  V30 399 H 39.4494 -6.1073 -4.91913 0
M  V30 400 N 36.9525 1.47285 -0.560781 0
M  V30 401 C 38.2295 1.9558 0.0277798 0
M  V30 402 C 38.6095 1.5034 1.48192 0
M  V30 403 O 37.9575 0.743882 2.16052 0
M  V30 404 C 38.1675 3.48789 -0.121418 0
M  V30 405 C 39.5155 4.24594 0.0220912 0
M  V30 406 O 40.5395 3.56166 -0.0491439 0
M  V30 407 O 39.3985 5.46217 0.175958 0
M  V30 408 H 36.4925 0.824663 0.0621342 0
M  V30 409 H 39.0385 1.5767 -0.627556 0
M  V30 410 H 37.8105 3.74533 -1.13316 0
M  V30 411 H 37.4335 3.93473 0.571366 0
M  V30 412 N 38.4306 0.297415 1.54768 0
M  V30 413 C 39.6766 -0.313376 2.00364 0
M  V30 414 C 40.0096 -1.53815 1.18553 0
M  V30 415 O 39.2846 -1.92739 0.261103 0
M  V30 416 C 39.5676 -0.673525 3.53745 0
M  V30 417 C 39.4206 0.560133 4.46299 0
M  V30 418 C 40.7396 -1.50143 4.13697 0
M  V30 419 H 37.8586 -0.112428 0.728374 0
M  V30 420 H 40.5006 0.4088 1.8555 0
M  V30 421 H 38.6506 -1.28881 3.665 0
M  V30 422 H 40.3226 1.19863 4.45455 0
M  V30 423 H 38.5656 1.19405 4.17043 0
M  V30 424 H 39.2366 0.26405 5.51368 0
M  V30 425 H 41.7126 -0.981588 4.04356 0
M  V30 426 H 40.5886 -1.72221 5.21182 0
M  V30 427 H 40.8496 -2.48952 3.65343 0
M  V30 428 N 39.9087 -1.5758 0.0250728 0
M  V30 429 C 41.1857 -1.82917 -0.692873 0
M  V30 430 C 41.5657 -0.908137 -1.90568 0
M  V30 431 O 40.9137 0.0372298 -2.2847 0
M  V30 432 C 41.1237 -3.32034 -1.07492 0
M  V30 433 C 42.4717 -3.98406 -1.46826 0
M  V30 434 O 43.4957 -3.36505 -1.16801 0
M  V30 435 O 42.3547 -5.07497 -2.02754 0
M  V30 436 H 39.4487 -0.754079 -0.33955 0
M  V30 437 H 41.9947 -1.69619 0.0524456 0
M  V30 438 H 40.7667 -3.90728 -0.211552 0
M  V30 439 H 40.3897 -3.50424 -1.87854 0
M  V30 440 N 41.3868 0.248026 -1.55636 0
M  V30 441 C 42.6638 0.998988 -1.68165 0
M  V30 442 C 43.0438 2.03409 -0.564621 0
M  V30 443 O 42.3918 2.24378 0.432076 0
M  V30 444 C 42.6018 1.63334 -3.0842 0
M  V30 445 C 43.9498 2.13562 -3.66983 0
M  V30 446 O 44.9738 1.73277 -3.11213 0
M  V30 447 O 43.8328 2.87526 -4.64749 0
M  V30 448 H 40.9268 0.464933 -0.683935 0
M  V30 449 H 43.4728 0.241902 -1.67967 0
M  V30 450 H 42.2448 0.884583 -3.8117 0
M  V30 451 H 41.8678 2.45666 -3.12624 0
M  V30 452 N 42.8649 1.48995 0.513639 0
M  V30 453 C 44.1109 1.59053 1.26783 0
M  V30 454 C 44.4659 0.268136 1.90522 0
M  V30 455 O 43.7589 -0.730534 1.77126 0
M  V30 456 C 43.9529 2.67756 2.36731 0
M  V30 457 C 43.7819 4.10437 1.83771 0
M  V30 458 C 42.5519 4.7738 1.65639 0
M  V30 459 C 44.7499 4.9608 1.35681 0
M  V30 460 N 42.7319 6.04419 1.07476 0
M  V30 461 C 44.1029 6.13496 0.895715 0
M  V30 462 C 46.1579 4.82177 1.24136 0
M  V30 463 C 44.8609 7.1854 0.3306 0
M  V30 464 C 46.8869 5.87358 0.690229 0
M  V30 465 C 46.2489 7.03993 0.239292 0
M  V30 466 H 42.3479 0.636463 0.454355 0
M  V30 467 H 44.9319 1.85948 0.577196 0
M  V30 468 H 43.1029 2.42655 3.03271 0
M  V30 469 H 44.8349 2.67406 3.0377 0
M  V30 470 H 41.5899 4.33974 1.8964 0
M  V30 471 H 42.0139 6.72214 0.803579 0
M  V30 472 H 46.6559 3.92329 1.57601 0
M  V30 473 H 44.3739 8.08098 -0.0163435 0
M  V30 474 H 47.9599 5.78658 0.603852 0
M  V30 475 H 46.8399 7.83992 -0.180526 0
M  V30 476 N 44.343 -0.763751 1.37857 0
M  V30 477 C 45.62 -1.51244 1.24035 0
M  V30 478 C 46 -2.10472 -0.162649 0
M  V30 479 O 45.348 -1.96206 -1.17112 0
M  V30 480 C 45.558 -2.58694 2.34261 0
M  V30 481 C 46.906 -3.25878 2.72193 0
M  V30 482 O 47.93 -2.68993 2.33497 0
M  V30 483 O 46.789 -4.2874 3.38887 0
M  V30 484 H 43.883 -0.670243 0.484462 0
M  V30 485 H 46.429 -0.800031 1.49658 0
M  V30 486 H 45.201 -2.13105 3.2818 0
M  V30 487 H 44.824 -3.37527 2.10146 0
M  V30 488 N 45.8211 -1.22559 -0.990812 0
M  V30 489 C 46.7691 -0.994798 -2.10253 0
M  V30 490 C 47.7631 0.0627798 -1.69284 0
M  V30 491 O 48.9691 -0.0898392 -1.79776 0
M  V30 492 H 45.3441 -0.304527 -0.687581 0
M  V30 493 H 47.3151 -1.93812 -2.26891 0
M  V30 494 C 46.0641 -0.591439 -3.42633 0
M  V30 495 H 45.3871 -1.3969 -3.74602 0
M  V30 496 H 46.8271 -0.469385 -4.21394 0
M  V30 497 C 45.2861 0.699232 -3.29564 0
M  V30 498 O 45.8161 1.75112 -3.61523 0
M  V30 499 N 44.0221 0.671182 -2.82743 0
M  V30 500 H 43.5691 -0.185136 -2.56934 0
M  V30 501 H 43.5271 1.53502 -2.7438 0
M  V30 502 N 47.2992 1.18797 -1.03562 0
M  V30 503 C 48.2092 2.25913 -0.632505 0
M  V30 504 C 49.2252 1.70668 0.338882 0
M  V30 505 O 50.4012 2.00453 0.195076 0
M  V30 506 C 47.4662 3.467 0.00350942 0
M  V30 507 C 46.5272 4.17098 -1.01624 0
M  V30 508 C 45.7602 5.32119 -0.410478 0
M  V30 509 O 45.9832 5.64976 0.784725 0
M  V30 510 O 44.9172 5.9107 -1.13667 0
M  V30 511 H 48.7432 2.62648 -1.52478 0
M  V30 512 H 46.3282 1.25781 -0.806195 0
M  V30 513 H 48.2102 4.19878 0.35781 0
M  V30 514 H 46.8852 3.11798 0.869686 0
M  V30 515 H 45.7922 3.4601 -1.42224 0
M  V30 516 H 47.1252 4.55987 -1.85301 0
M  V30 517 N 48.7773 0.814389 1.34928 0
M  V30 518 C 49.7253 0.218424 2.31572 0
M  V30 519 C 50.7193 -0.636128 1.57002 0
M  V30 520 O 51.9253 -0.52842 1.72069 0
M  V30 521 H 48.3003 0.0518799 0.750208 0
M  V30 522 H 50.2713 1.04852 2.79372 0
M  V30 523 C 49.0203 -0.61207 3.4227 0
M  V30 524 H 48.3433 0.0361578 3.99784 0
M  V30 525 H 49.7833 -0.995317 4.12152 0
M  V30 526 C 48.2423 -1.78087 2.85984 0
M  V30 527 O 48.7723 -2.8787 2.80168 0
M  V30 528 N 46.9783 -1.59488 2.42924 0
M  V30 529 H 46.5253 -0.701874 2.47854 0
M  V30 530 H 46.4833 -2.37846 2.05613 0
M  V30 531 N 50.2554 -1.46986 0.568584 0
M  V30 532 C 51.4804 -2.07335 0.0520528 0
M  V30 533 C 51.9054 -1.41675 -1.23733 0
M  V30 534 O 51.2634 -0.495623 -1.74394 0
M  V30 535 C 51.3114 -3.60417 -0.11501 0
M  V30 536 O 50.4154 -3.95309 -1.17492 0
M  V30 537 H 49.7564 -0.661597 0.0564385 0
M  V30 538 H 52.2864 -1.88837 0.787507 0
M  V30 539 H 52.2964 -4.06698 -0.325644 0
M  V30 540 H 50.9714 -4.07601 0.826675 0
M  V30 541 H 49.5484 -3.60757 -0.943869 0
M  V30 542 N 51.7335 -0.305618 -1.54608 0
M  V30 543 C 52.9585 0.307562 -2.05107 0
M  V30 544 C 53.3835 1.46385 -1.18123 0
M  V30 545 O 52.7415 1.8034 -0.186324 0
M  V30 546 C 52.7895 0.73704 -3.52987 0
M  V30 547 O 51.8935 1.84134 -3.6901 0
M  V30 548 H 51.2345 0.0589143 -0.661381 0
M  V30 549 H 53.7645 -0.448807 -1.99617 0
M  V30 550 H 53.7745 1.02459 -3.94925 0
M  V30 551 H 52.4495 -0.108773 -4.15758 0
M  V30 552 H 51.0265 1.55398 -3.38978 0
M  V30 553 N 53.2116 1.57565 -0.0334293 0
M  V30 554 C 54.1746 2.09393 0.932048 0
M  V30 555 C 55.1746 1.00986 1.25134 0
M  V30 556 O 56.3646 1.27129 1.19096 0
M  V30 557 C 53.4966 2.56338 2.2473 0
M  V30 558 H 54.6896 2.95984 0.483085 0
M  V30 559 H 52.2426 1.54819 0.21468 0
M  V30 560 H 52.9776 1.7309 2.74245 0
M  V30 561 H 52.7626 3.35542 2.02865 0
M  V30 562 H 54.2526 2.96646 2.93923 0
M  V30 563 N 54.6897 -0.239769 1.55765 0
M  V30 564 C 56.1057 -0.588624 1.48349 0
M  V30 565 C 56.3057 -1.88005 0.72502 0
M  V30 566 O 55.3617 -2.51186 0.257269 0
M  V30 567 C 56.6747 -0.68474 2.928 0
M  V30 568 C 58.2227 -0.77659 3.03213 0
M  V30 569 C 58.6977 -0.904207 4.48986 0
M  V30 570 N 60.1887 -0.968896 4.52953 0
M  V30 571 C 60.9237 -1.08703 5.63002 0
M  V30 572 N 60.4197 -1.17026 6.82845 0
M  V30 573 N 62.2127 -1.12074 5.50814 0
M  V30 574 H 54.3637 0.607911 2.03515 0
M  V30 575 H 56.6267 0.21083 0.924259 0
M  V30 576 H 56.3327 0.194284 3.51163 0
M  V30 577 H 56.2067 -1.55435 3.43686 0
M  V30 578 H 58.5937 -1.64606 2.44926 0
M  V30 579 H 58.6747 0.118315 2.55526 0
M  V30 580 H 58.3187 -0.0392633 5.07885 0
M  V30 581 H 58.2487 -1.81426 4.9436 0
M  V30 582 H 60.7397 -0.915633 3.6664 0
M  V30 583 H 61.0527 -1.25966 7.62465 0
M  V30 584 H 59.3977 -1.13971 6.85591 0
M  V30 585 H 62.5887 -1.05226 4.5612 0
M  V30 586 H 62.7617 -1.20936 6.36615 0
M  V30 587 N 56.1678 -1.49265 -0.50573 0
M  V30 588 C 57.0978 -1.68495 -1.61653 0
M  V30 589 C 58.0788 -0.53366 -1.61512 0
M  V30 590 O 59.2638 -0.76897 -1.78327 0
M  V30 591 C 56.3938 -1.74709 -3.00157 0
M  V30 592 C 55.3478 -2.89581 -3.15162 0
M  V30 593 C 54.6738 -2.80903 -4.5497 0
M  V30 594 C 55.9738 -4.30578 -2.95634 0
M  V30 595 H 57.6678 -2.61493 -1.45814 0
M  V30 596 H 55.2138 -1.25838 -0.70005 0
M  V30 597 H 57.1668 -1.86748 -3.77761 0
M  V30 598 H 55.8908 -0.783067 -3.17074 0
M  V30 599 H 54.5498 -2.77136 -2.39982 0
M  V30 600 H 54.1978 -1.82419 -4.68756 0
M  V30 601 H 53.8978 -3.57999 -4.65951 0
M  V30 602 H 55.4218 -2.94944 -5.34641 0
M  V30 603 H 56.8358 -4.4373 -3.63011 0
M  V30 604 H 55.2328 -5.0886 -3.18091 0
M  V30 605 H 56.3028 -4.45352 -1.91806 0
M  V30 606 N 57.6459 0.756429 -1.3826 0
M  V30 607 C 58.8929 1.51547 -1.34312 0
M  V30 608 C 59.2209 1.94382 0.0677144 0
M  V30 609 O 58.4759 1.65514 1.04421 0
M  V30 610 C 58.7749 2.78313 -2.24224 0
M  V30 611 C 58.4409 2.54455 -3.72241 0
M  V30 612 C 57.1029 2.47657 -4.12576 0
M  V30 613 C 59.4549 2.3354 -4.65949 0
M  V30 614 C 56.7829 2.17956 -5.44713 0
M  V30 615 C 59.1349 2.05359 -5.9834 0
M  V30 616 C 57.7989 1.97016 -6.37762 0
M  V30 617 H 57.0689 0.55455 -0.491482 0
M  V30 618 H 59.7159 0.870039 -1.70595 0
M  V30 619 H 58.0209 3.47492 -1.80987 0
M  V30 620 H 59.7179 3.36259 -2.18474 0
M  V30 621 H 56.3079 2.60616 -3.40261 0
M  V30 622 H 60.4919 2.37772 -4.35635 0
M  V30 623 H 55.7479 2.10003 -5.74203 0
M  V30 624 H 59.9219 1.88179 -6.70494 0
M  V30 625 H 57.5489 1.73766 -7.40074 0
M  V30 626 N 59.124 1.23083 0.984299 0
M  V30 627 C 60.034 1.02515 2.11016 0
M  V30 628 C 61.05 -0.0291702 1.73976 0
M  V30 629 O 62.226 0.165434 2.00719 0
M  V30 630 C 59.291 0.614673 3.41208 0
M  V30 631 C 58.352 1.74359 3.92297 0
M  V30 632 C 57.585 1.35261 5.16275 0
M  V30 633 O 57.808 0.235136 5.69915 0
M  V30 634 O 56.742 2.17227 5.61334 0
M  V30 635 H 60.568 1.96862 2.31255 0
M  V30 636 H 58.153 1.01753 1.09392 0
M  V30 637 H 60.035 0.396518 4.1953 0
M  V30 638 H 58.71 -0.299851 3.22308 0
M  V30 639 H 57.617 2.01635 3.1511 0
M  V30 640 H 58.95 2.63629 4.15645 0
M  V30 641 N 60.6021 -1.18246 1.0419 0
M  V30 642 C 62.0181 -1.40269 0.761366 0
M  V30 643 C 62.2181 -1.90777 -0.648578 0
M  V30 644 O 61.2741 -2.0929 -1.41258 0
M  V30 645 C 62.5871 -2.40237 1.8085 0
M  V30 646 C 64.1351 -2.53961 1.82955 0
M  V30 647 C 64.6101 -3.57194 2.86664 0
M  V30 648 N 66.1011 -3.64702 2.85563 0
M  V30 649 C 66.8361 -4.44309 3.6246 0
M  V30 650 N 66.3321 -5.27514 4.49111 0
M  V30 651 N 68.1251 -4.39084 3.50944 0
M  V30 652 H 60.2761 -0.837882 1.95175 0
M  V30 653 H 62.5391 -0.430608 0.84456 0
M  V30 654 H 62.2451 -2.10176 2.81991 0
M  V30 655 H 62.1191 -3.39601 1.64168 0
M  V30 656 H 64.5061 -2.83338 0.824855 0
M  V30 657 H 64.5871 -1.54706 2.03715 0
M  V30 658 H 64.2311 -3.28558 3.87314 0
M  V30 659 H 64.1611 -4.5613 2.6316 0
M  V30 660 H 66.6521 -3.05289 2.22727 0
M  V30 661 H 66.9651 -5.85411 5.04493 0
M  V30 662 H 65.3101 -5.2693 4.53178 0
M  V30 663 H 68.5011 -3.7313 2.82651 0
M  V30 664 H 68.6741 -5.00883 4.11121 0
M  V30 665 N 62.0802 -0.821533 -1.34494 0
M  V30 666 C 63.3052 -0.420873 -2.03085 0
M  V30 667 C 63.7302 0.964915 -1.61465 0
M  V30 668 O 63.0882 1.62763 -0.798607 0
M  V30 669 C 63.1362 -0.529414 -3.56693 0
M  V30 670 O 62.2402 0.451302 -4.09923 0
M  V30 671 H 61.5812 -0.173489 -0.640935 0
M  V30 672 H 64.1112 -1.11157 -1.71771 0
M  V30 673 H 64.1212 -0.404671 -4.05988 0
M  V30 674 H 62.7962 -1.54014 -3.86332 0
M  V30 675 H 61.3732 0.285558 -3.71805 0
M  V30 676 N 63.5583 1.46682 -0.576371 0
M  V30 677 C 64.9743 1.57822 -0.237562 0
M  V30 678 C 65.1743 1.57237 1.26011 0
M  V30 679 O 64.2303 1.48596 2.04146 0
M  V30 680 C 65.5433 2.87499 -0.881168 0
M  V30 681 C 67.0913 3.01119 -0.85417 0
M  V30 682 C 67.5663 4.33524 -1.4772 0
M  V30 683 N 69.0573 4.40207 -1.44125 0
M  V30 684 C 69.7923 5.4126 -1.89276 0
M  V30 685 N 69.2883 6.49021 -2.42371 0
M  V30 686 N 71.0813 5.32422 -1.80231 0
M  V30 687 H 63.2323 1.45306 -1.54919 0
M  V30 688 H 65.4953 0.692733 -0.647167 0
M  V30 689 H 65.2013 2.9372 -1.93447 0
M  V30 690 H 65.0753 3.75224 -0.385592 0
M  V30 691 H 67.4623 2.94485 0.190491 0
M  V30 692 H 67.5433 2.14887 -1.3877 0
M  V30 693 H 67.1873 4.40916 -2.52103 0
M  V30 694 H 67.1173 5.1852 -0.918947 0
M  V30 695 H 69.6083 3.62931 -1.05307 0
M  V30 696 H 69.9213 7.2233 -2.74698 0
M  V30 697 H 68.2663 6.49858 -2.46393 0
M  V30 698 H 71.4573 4.47137 -1.38514 0
M  V30 699 H 71.6303 6.11034 -2.15735 0
M  V30 700 N 65.0364 0.313813 1.54444 0
M  V30 701 C 66.2854 -0.292519 1.99568 0
M  V30 702 C 66.5984 -1.54011 1.20582 0
M  V30 703 O 67.8044 -2.22183 1.56035 0
M  V30 704 C 66.2604 -0.571752 3.55329 0
M  V30 705 C 65.8684 0.658229 4.43138 0
M  V30 706 C 67.6124 -1.13857 4.08946 0
M  V30 707 C 65.5194 0.351439 5.90355 0
M  V30 708 H 64.4494 -0.113079 0.745472 0
M  V30 709 H 67.1004 0.424518 1.78522 0
M  V30 710 H 65.4824 -1.34872 3.72325 0
M  V30 711 H 66.6564 1.43403 4.37918 0
M  V30 712 H 64.9714 1.14458 4.0036 0
M  V30 713 H 67.5684 -1.38257 5.16516 0
M  V30 714 H 67.9114 -2.08489 3.6033 0
M  V30 715 H 68.4444 -0.423015 3.95544 0
M  V30 716 H 65.1834 1.26667 6.43145 0
M  V30 717 H 64.7034 -0.386842 5.98551 0
M  V30 718 H 66.3824 -0.0423134 6.46986 0
M  V30 719 N 66.5145 -1.57545 0.0417849 0
M  V30 720 C 67.4615 -2.10977 -0.935805 0
M  V30 721 C 68.4315 -1.01486 -1.31491 0
M  V30 722 O 69.6165 -1.2898 -1.40602 0
M  V30 723 C 66.7565 -2.65169 -2.2086 0
M  V30 724 C 65.8695 -3.88714 -1.88482 0
M  V30 725 C 65.0045 -4.31254 -3.1015 0
M  V30 726 C 64.0435 -5.47524 -2.7365 0
M  V30 727 N 63.1805 -5.85162 -3.87982 0
M  V30 728 H 68.0205 -2.94218 -0.473249 0
M  V30 729 H 65.5575 -1.45415 -0.221981 0
M  V30 730 H 67.5155 -2.94685 -2.95325 0
M  V30 731 H 66.1455 -1.8474 -2.64709 0
M  V30 732 H 65.1975 -3.65849 -1.04205 0
M  V30 733 H 66.5095 -4.73245 -1.57608 0
M  V30 734 H 65.6635 -4.62273 -3.92923 0
M  V30 735 H 64.4025 -3.45516 -3.44195 0
M  V30 736 H 63.4075 -5.16187 -1.89291 0
M  V30 737 H 64.6325 -6.34971 -2.40807 0
M  V30 738 H 62.5785 -5.02377 -4.21846 0
M  V30 739 H 62.4955 -6.64362 -3.60775 0
M  V30 740 H 63.7635 -6.20791 -4.71422 0
M  V30 741 N 67.9926 0.231505 -1.5589 0
M  V30 742 C 68.9556 1.27028 -1.90779 0
M  V30 743 C 69.9556 1.40308 -0.785507 0
M  V30 744 O 71.1456 1.38744 -1.05336 0
M  V30 745 C 68.2776 2.64566 -2.14983 0
M  V30 746 H 69.4706 0.973017 -2.83677 0
M  V30 747 H 67.0236 0.471486 -1.49019 0
M  V30 748 H 67.7586 2.99406 -1.24604 0
M  V30 749 H 67.5436 2.56305 -2.96732 0
M  V30 750 H 69.0336 3.39543 -2.43105 0
M  V30 751 N 69.4707 1.49531 0.497807 0
M  V30 752 C 70.4007 1.6935 1.60757 0
M  V30 753 C 71.3817 0.542218 1.61227 0
M  V30 754 O 72.5667 0.778417 1.77917 0
M  V30 755 C 69.6967 1.76298 2.99226 0
M  V30 756 C 68.6507 2.91248 3.13622 0
M  V30 757 C 67.9767 2.83312 4.53474 0
M  V30 758 C 69.2767 4.3214 2.93346 0
M  V30 759 H 70.9707 2.62263 1.44425 0
M  V30 760 H 68.5167 1.26208 0.693367 0
M  V30 761 H 70.4697 1.88749 3.76765 0
M  V30 762 H 69.1937 0.799871 3.16654 0
M  V30 763 H 67.8527 2.78404 2.38509 0
M  V30 764 H 67.5007 1.84902 4.67782 0
M  V30 765 H 67.2007 3.60465 4.64046 0
M  V30 766 H 68.7247 2.97775 5.33069 0
M  V30 767 H 70.1387 4.45649 3.60652 0
M  V30 768 H 68.5357 5.1054 3.15387 0
M  V30 769 H 69.6057 4.46363 1.89441 0
M  V30 770 N 70.9488 -0.749086 1.3866 0
M  V30 771 C 71.9118 -1.84457 1.36045 0
M  V30 772 C 72.9118 -1.58682 0.260122 0
M  V30 773 O 74.1018 -1.66343 0.517261 0
M  V30 774 C 71.2338 -3.22008 1.11911 0
M  V30 775 H 72.4268 -1.88182 2.33512 0
M  V30 776 H 69.9798 -0.951266 1.24019 0
M  V30 777 H 70.7148 -3.2395 0.150686 0
M  V30 778 H 70.4998 -3.42111 1.91579 0
M  V30 779 H 71.9898 -4.0208 1.12788 0
M  V30 780 N 72.4269 -1.23603 -0.977757 0
M  V30 781 C 73.7039 -0.977897 -1.69401 0
M  V30 782 C 74.0839 0.502738 -2.05026 0
M  V30 783 O 73.4319 1.47459 -1.74551 0
M  V30 784 C 73.6419 -1.89077 -2.93345 0
M  V30 785 C 74.9899 -2.15579 -3.65802 0
M  V30 786 O 76.0139 -1.86648 -3.03383 0
M  V30 787 O 74.8729 -2.64658 -4.78141 0
M  V30 788 H 71.9669 -0.369025 -0.740101 0
M  V30 789 H 74.5129 -1.34657 -1.03274 0
M  V30 790 H 73.2849 -2.89158 -2.63634 0
M  V30 791 H 72.9079 -1.52463 -3.67207 0
M  V30 792 N 73.905 1.17692 -1.04816 0
M  V30 793 C 74.815 2.25229 -0.65643 0
M  V30 794 C 75.831 1.71018 0.320761 0
M  V30 795 O 77.007 2.00649 0.173805 0
M  V30 796 C 74.072 3.46684 -0.0332629 0
M  V30 797 C 73.133 4.15997 -1.06042 0
M  V30 798 C 72.366 5.31654 -0.466893 0
M  V30 799 O 72.589 5.65777 0.724758 0
M  V30 800 O 71.523 5.89831 -1.1993 0
M  V30 801 H 75.349 2.61016 -1.55255 0
M  V30 802 H 72.934 1.24919 -0.81949 0
M  V30 803 H 74.816 4.20234 0.313256 0
M  V30 804 H 73.491 3.12703 0.836566 0
M  V30 805 H 72.398 3.44482 -1.45886 0
M  V30 806 H 73.731 4.53996 -1.90127 0
M  V30 807 N 75.3831 0.828654 1.34056 0
M  V30 808 C 76.7991 0.515135 1.51058 0
M  V30 809 C 76.9991 -0.959581 1.77184 0
M  V30 810 O 76.0551 -1.74382 1.82612 0
M  V30 811 C 77.3681 1.37963 2.67183 0
M  V30 812 C 78.9161 1.37735 2.81066 0
M  V30 813 C 79.3911 2.22645 4.00241 0
M  V30 814 N 80.8821 2.203 4.07458 0
M  V30 815 C 81.6171 2.82744 4.98842 0
M  V30 816 N 81.1131 3.54201 5.9541 0
M  V30 817 N 82.9061 2.72268 4.91759 0
M  V30 818 H 75.0571 1.78343 1.15358 0
M  V30 819 H 77.3201 0.760304 0.566252 0
M  V30 820 H 77.0261 2.42714 2.54525 0
M  V30 821 H 76.9001 1.0484 3.62338 0
M  V30 822 H 79.2871 0.337593 2.93163 0
M  V30 823 H 79.3681 1.74859 1.86703 0
M  V30 824 H 79.0121 3.26674 3.88905 0
M  V30 825 H 78.9421 1.82869 4.93829 0
M  V30 826 H 81.4331 1.68327 3.38341 0
M  V30 827 H 81.7461 3.9908 6.61782 0
M  V30 828 H 80.0911 3.58308 5.95517 0
M  V30 829 H 83.2821 2.16014 4.15278 0
M  V30 830 H 83.4551 3.21219 5.62781 0
M  V30 831 N 76.8612 -1.46375 0.584142 0
M  V30 832 C 77.7712 -2.34115 -0.150728 0
M  V30 833 C 78.7872 -1.49838 -0.884567 0
M  V30 834 O 79.9632 -1.82704 -0.847429 0
M  V30 835 C 77.0282 -3.2705 -1.15062 0
M  V30 836 C 76.0892 -4.27228 -0.421293 0
M  V30 837 C 75.3222 -5.15722 -1.37355 0
M  V30 838 O 75.5452 -5.07176 -2.61014 0
M  V30 839 O 74.4792 -5.95383 -0.883355 0
M  V30 840 H 78.3052 -2.98309 0.569708 0
M  V30 841 H 75.8902 -1.45373 0.344535 0
M  V30 842 H 77.7722 -3.84381 -1.72712 0
M  V30 843 H 76.4472 -2.65451 -1.8525 0
M  V30 844 H 75.3542 -3.7358 0.197085 0
M  V30 845 H 76.6872 -4.91616 0.239641 0
M  V30 846 N 78.3393 -0.321999 -1.54275 0
M  V30 847 C 79.3023 0.531975 -2.22941 0
M  V30 848 C 80.3023 1.04478 -1.22234 0
M  V30 849 O 81.4923 0.937452 -1.46825 0
M  V30 850 C 78.6243 1.73874 -2.93224 0
M  V30 851 H 79.8173 -0.0682612 -2.99822 0
M  V30 852 H 77.3703 -0.0730644 -1.56129 0
M  V30 853 H 78.1053 2.37825 -2.20476 0
M  V30 854 H 77.8903 1.37847 -3.6707 0
M  V30 855 H 79.3803 2.34496 -3.45545 0
M  V30 856 N 79.8174 1.5752 -0.0501392 0
M  V30 857 C 81.0634 1.92936 0.624798 0
M  V30 858 C 81.3964 0.928685 1.70555 0
M  V30 859 O 80.6714 -0.0454779 1.94447 0
M  V30 860 C 80.9544 3.38737 1.22185 0
M  V30 861 C 80.8074 4.49552 0.149218 0
M  V30 862 C 82.1264 3.84913 2.13378 0
M  V30 863 H 79.2454 0.701604 0.225657 0
M  V30 864 H 81.8874 1.89671 -0.111693 0
M  V30 865 H 80.0374 3.4165 1.84953 0
M  V30 866 H 81.7094 4.58768 -0.482648 0
M  V30 867 H 79.9524 4.30638 -0.522841 0
M  V30 868 H 80.6234 5.48653 0.606966 0
M  V30 869 H 83.0994 3.8387 1.60572 0
M  V30 870 H 81.9754 4.87584 2.52097 0
M  V30 871 H 82.2364 3.21611 3.03346 0
M  V30 872 N 81.2955 -0.223234 1.56011 0
M  V30 873 C 82.2275 -1.30006 1.88762 0
M  V30 874 C 83.2405 -1.43129 0.775746 0
M  V30 875 O 84.4295 -1.44057 1.05403 0
M  V30 876 C 81.5295 -2.67589 2.07965 0
M  V30 877 C 80.7025 -2.76434 3.38973 0
M  V30 878 C 79.7615 -3.95019 3.47629 0
M  V30 879 O 78.7875 -3.83436 4.20672 0
M  V30 880 N 79.9895 -5.09249 2.78649 0
M  V30 881 H 82.7545 -1.02238 2.81722 0
M  V30 882 H 80.3155 -0.413278 1.56536 0
M  V30 883 H 82.3075 -3.45297 2.11073 0
M  V30 884 H 80.8775 -2.87964 1.21638 0
M  V30 885 H 80.0975 -1.85216 3.47978 0
M  V30 886 H 81.3855 -2.79313 4.25278 0
M  V30 887 H 80.7835 -5.21556 2.19081 0
M  V30 888 H 79.3405 -5.85007 2.8742 0
M  V30 889 N 82.7736 -1.49793 -0.48987 0
M  V30 890 C 83.7206 -1.67281 -1.59014 0
M  V30 891 C 84.6906 -0.514177 -1.57941 0
M  V30 892 O 85.8756 -0.742533 -1.75759 0
M  V30 893 C 83.0156 -1.75569 -2.97102 0
M  V30 894 C 82.1286 -3.0281 -3.08107 0
M  V30 895 C 81.2636 -3.02008 -4.36995 0
M  V30 896 C 80.3026 -4.23782 -4.41673 0
M  V30 897 N 79.4396 -4.20826 -5.62005 0
M  V30 898 H 84.2796 -2.61224 -1.43409 0
M  V30 899 H 81.8166 -1.29508 -0.697565 0
M  V30 900 H 83.7746 -1.78354 -3.77155 0
M  V30 901 H 82.4046 -0.850827 -3.11385 0
M  V30 902 H 81.4566 -3.09584 -2.21047 0
M  V30 903 H 82.7686 -3.92801 -3.07423 0
M  V30 904 H 81.9226 -3.03418 -5.25378 0
M  V30 905 H 80.6616 -2.09815 -4.4026 0
M  V30 906 H 79.6666 -4.22604 -3.5169 0
M  V30 907 H 80.8916 -5.17181 -4.40115 0
M  V30 908 H 78.8376 -3.31476 -5.66091 0
M  V30 909 H 78.7546 -5.04564 -5.62984 0
M  V30 910 H 80.0226 -4.26355 -6.52565 0
M  V30 911 N 84.2517 0.741722 -1.39055 0
M  V30 912 C 85.1987 1.85566 -1.37237 0
M  V30 913 C 86.1687 1.64457 -0.233072 0
M  V30 914 O 87.3537 1.85957 -0.427147 0
M  V30 915 C 84.4937 3.23004 -1.215 0
M  V30 916 C 83.6067 3.55864 -2.44918 0
M  V30 917 C 82.7417 4.82669 -2.21821 0
M  V30 918 C 81.7807 5.08351 -3.40948 0
M  V30 919 N 80.9177 6.26356 -3.17211 0
M  V30 920 H 85.7577 1.86455 -2.32462 0
M  V30 921 H 83.2947 0.911176 -1.15482 0
M  V30 922 H 85.2527 4.02331 -1.10389 0
M  V30 923 H 83.8827 3.21411 -0.29908 0
M  V30 924 H 82.9347 2.7129 -2.66657 0
M  V30 925 H 84.2467 3.70765 -3.33668 0
M  V30 926 H 83.4007 5.69962 -2.07914 0
M  V30 927 H 82.1397 4.69929 -1.30454 0
M  V30 928 H 81.1447 4.19522 -3.55361 0
M  V30 929 H 82.3697 5.22981 -4.33207 0
M  V30 930 H 80.3157 6.14917 -2.28502 0
M  V30 931 H 80.2327 6.41813 -3.99515 0
M  V30 932 H 81.5007 7.16506 -3.06984 0
M  V30 933 N 85.7298 1.2412 0.971189 0
M  V30 934 C 86.9578 1.10575 1.74874 0
M  V30 935 C 87.3728 -0.342017 1.85676 0
M  V30 936 O 86.7298 -1.23617 1.34258 0
M  V30 937 C 86.7808 1.73579 3.171 0
M  V30 938 O 86.5018 3.12695 3.06844 0
M  V30 939 C 88.0028 1.65598 4.11208 0
M  V30 940 H 85.2228 0.386504 0.548503 0
M  V30 941 H 87.7668 1.64156 1.21955 0
M  V30 942 H 85.9218 1.24009 3.67016 0
M  V30 943 H 86.3358 3.43412 3.96445 0
M  V30 944 H 87.8098 2.1437 5.08674 0
M  V30 945 H 88.2868 0.616532 4.34851 0
M  V30 946 H 88.8928 2.14578 3.67201 0
M  V30 947 N 87.2079 -1.17134 1.05439 0
M  V30 948 C 88.4549 -1.87456 0.765942 0
M  V30 949 C 88.7829 -1.81189 -0.707153 0
M  V30 950 O 88.0379 -1.21633 -1.5331 0
M  V30 951 C 88.3369 -3.36833 1.19491 0
M  V30 952 C 88.0029 -3.63301 2.67063 0
M  V30 953 C 86.6649 -3.70234 3.07376 0
M  V30 954 C 89.0169 -3.74575 3.62413 0
M  V30 955 C 86.3449 -3.85933 4.41896 0
M  V30 956 C 88.6969 -3.91793 4.9667 0
M  V30 957 C 87.3609 -3.96966 5.36633 0
M  V30 958 H 86.6309 -0.685948 0.280278 0
M  V30 959 H 89.2779 -1.38556 1.32192 0
M  V30 960 H 87.5829 -3.87807 0.557969 0
M  V30 961 H 89.2799 -3.89611 0.948893 0
M  V30 962 H 85.8699 -3.58532 2.34846 0
M  V30 963 H 90.0539 -3.68537 3.32406 0
M  V30 964 H 85.3099 -3.88187 4.72357 0
M  V30 965 H 89.4839 -3.99458 5.70444 0
M  V30 966 H 87.1109 -4.08883 6.40874 0
M  V30 967 N 88.686 -0.835752 -1.33615 0
M  V30 968 C 89.914 -0.443344 -2.02094 0
M  V30 969 C 90.329 0.954522 -1.62894 0
M  V30 970 O 89.686 1.61982 -0.840723 0
M  V30 971 C 89.737 -0.550775 -3.5728 0
M  V30 972 O 89.458 -1.89356 -3.95065 0
M  V30 973 C 90.959 -0.154919 -4.43029 0
M  V30 974 H 88.179 -0.176359 -0.647409 0
M  V30 975 H 90.723 -1.12746 -1.70612 0
M  V30 976 H 88.878 0.0853997 -3.87306 0
M  V30 977 H 89.292 -1.87687 -4.89769 0
M  V30 978 H 90.766 -0.281144 -5.51284 0
M  V30 979 H 91.243 0.902863 -4.2982 0
M  V30 980 H 91.849 -0.765404 -4.18356 0
M  V30 981 N 90.1641 1.46063 -0.591896 0
M  V30 982 C 91.1111 2.30399 0.136069 0
M  V30 983 C 92.0811 1.41169 0.875238 0
M  V30 984 O 93.2661 1.70112 0.86409 0
M  V30 985 C 90.4061 3.25804 1.13781 0
M  V30 986 C 89.5191 4.30134 0.401137 0
M  V30 987 C 88.6541 5.12659 1.39121 0
M  V30 988 C 87.6931 6.0873 0.641462 0
M  V30 989 N 86.8301 6.8409 1.58004 0
M  V30 990 H 91.6701 2.92118 -0.589144 0
M  V30 991 H 89.2071 1.43959 -0.302342 0
M  V30 992 H 91.1651 3.79569 1.73156 0
M  V30 993 H 89.7951 2.65872 1.83062 0
M  V30 994 H 88.8471 3.79152 -0.307826 0
M  V30 995 H 90.1591 4.98458 -0.184565 0
M  V30 996 H 89.3131 5.70747 2.05749 0
M  V30 997 H 88.0521 4.44316 2.01084 0
M  V30 998 H 87.0571 5.49786 -0.0385419 0
M  V30 999 H 88.2821 6.79095 0.0270945 0
M  V30 1000 H 86.2281 6.18449 2.18761 0
M  V30 1001 H 86.1451 7.48709 1.04738 0
M  V30 1002 H 87.4131 7.4673 2.23639 0
M  V30 1003 N 91.6422 0.330177 1.54103 0
M  V30 1004 C 92.8882 -0.263542 2.01685 0
M  V30 1005 C 93.2432 -1.49258 1.21408 0
M  V30 1006 O 92.5362 -1.89395 0.289852 0
M  V30 1007 C 92.7302 -0.643134 3.51566 0
M  V30 1008 C 92.5592 0.547571 4.46354 0
M  V30 1009 C 91.3292 1.04873 4.94297 0
M  V30 1010 C 93.5272 1.40184 4.94826 0
M  V30 1011 N 91.5092 2.20316 5.73005 0
M  V30 1012 C 92.8802 2.40335 5.71524 0
M  V30 1013 C 94.9352 1.42884 4.76958 0
M  V30 1014 C 93.6382 3.42998 6.32254 0
M  V30 1015 C 95.6642 2.44421 5.38528 0
M  V30 1016 C 95.0262 3.43298 6.15082 0
M  V30 1017 H 91.1252 -0.0601026 0.779687 0
M  V30 1018 H 93.7092 0.466714 1.89023 0
M  V30 1019 H 91.8802 -1.34251 3.6446 0
M  V30 1020 H 93.6122 -1.21889 3.85908 0
M  V30 1021 H 90.3672 0.618956 4.69538 0
M  V30 1022 H 90.7912 2.78565 6.17034 0
M  V30 1023 H 95.4332 0.678049 4.17328 0
M  V30 1024 H 93.1512 4.1898 6.91 0
M  V30 1025 H 96.7372 2.4732 5.26616 0
M  V30 1026 H 95.6172 4.20579 6.61878 0
M  V30 1027 N 93.1203 -1.57491 0.0584922 0
M  V30 1028 C 94.3663 -1.93264 -0.614558 0
M  V30 1029 C 94.6993 -0.937717 -1.7006 0
M  V30 1030 O 93.9743 0.0351652 -1.94468 0
M  V30 1031 C 94.2573 -3.3938 -1.20386 0
M  V30 1032 C 94.1103 -4.49625 -0.125375 0
M  V30 1033 C 95.4293 -3.86039 -2.11334 0
M  V30 1034 H 92.5483 -0.702791 -0.221933 0
M  V30 1035 H 95.1903 -1.8961 0.12175 0
M  V30 1036 H 93.3403 -3.42626 -1.83139 0
M  V30 1037 H 95.0123 -4.58506 0.506971 0
M  V30 1038 H 93.2553 -4.30354 0.545672 0
M  V30 1039 H 93.9263 -5.48967 -0.577861 0
M  V30 1040 H 96.4023 -3.84716 -1.58534 0
M  V30 1041 H 95.2783 -4.88914 -2.49507 0
M  V30 1042 H 95.5393 -3.23215 -3.01636 0
M  V30 1043 N 94.5984 0.214957 -1.56127 0
M  V30 1044 C 95.5464 1.28601 -1.93816 0
M  V30 1045 C 96.5404 1.48175 -0.821016 0
M  V30 1046 O 97.7464 1.49271 -1.0059 0
M  V30 1047 H 94.1214 0.431302 -0.616022 0
M  V30 1048 H 96.0924 0.940991 -2.83175 0
M  V30 1049 C 94.8414 2.62779 -2.27689 0
M  V30 1050 H 94.1644 2.48527 -3.13168 0
M  V30 1051 H 95.6044 3.36517 -2.57939 0
M  V30 1052 C 94.0634 3.18285 -1.10436 0
M  V30 1053 O 94.5934 4.00002 -0.368945 0
M  V30 1054 N 92.7994 2.7675 -0.886433 0
M  V30 1055 H 92.3464 2.10404 -1.48619 0
M  V30 1056 H 92.3044 3.14229 -0.103656 0
M  V30 1057 N 96.0765 1.50051 0.48192 0
M  V30 1058 C 97.3015 1.64508 1.26301 0
M  V30 1059 C 97.7265 0.323851 1.85291 0
M  V30 1060 O 97.0845 -0.710969 1.66778 0
M  V30 1061 C 97.1325 2.7305 2.35533 0
M  V30 1062 O 96.2365 2.3355 3.39895 0
M  V30 1063 H 95.5775 0.549978 0.372048 0
M  V30 1064 H 98.1075 1.9636 0.574786 0
M  V30 1065 H 98.1175 2.95799 2.8101 0
M  V30 1066 H 96.7925 3.68946 1.91967 0
M  V30 1067 H 95.3695 2.21205 3.00204 0
M  V30 1068 N 97.5546 -0.734337 1.39446 0
M  V30 1069 C 98.5046 -1.83949 1.34709 0
M  V30 1070 C 99.4886 -1.59279 0.227851 0
M  V30 1071 O 100.681 -1.70771 0.465438 0
M  V30 1072 C 97.8096 -3.21884 1.19356 0
M  V30 1073 C 96.8956 -3.52381 2.35984 0
M  V30 1074 N 97.2866 -3.53811 3.61457 0
M  V30 1075 C 95.5846 -3.82747 2.28956 0
M  V30 1076 C 96.2856 -3.82122 4.38586 0
M  V30 1077 N 95.2616 -3.9993 3.68181 0
M  V30 1078 H 99.0636 -1.83361 2.29687 0
M  V30 1079 H 96.5776 -0.932609 1.32952 0
M  V30 1080 H 98.5746 -4.00998 1.14046 0
M  V30 1081 H 97.2346 -3.23711 0.253295 0
M  V30 1082 H 98.2456 -3.35107 3.94872 0
M  V30 1083 H 94.9226 -3.92175 1.43194 0
M  V30 1084 H 96.3126 -3.89691 5.47349 0
M  V30 1085 N 99.0327 -1.24633 -0.964593 0
M  V30 1086 C 99.9627 -1.06611 -2.07741 0
M  V30 1087 C 100.944 0.0218666 -1.70086 0
M  V30 1088 O 102.129 -0.145793 -1.93652 0
M  V30 1089 C 99.2587 -0.673444 -3.40708 0
M  V30 1090 C 98.2127 -1.71054 -3.92332 0
M  V30 1091 C 97.5387 -1.17285 -5.21678 0
M  V30 1092 C 98.8387 -3.10718 -4.19824 0
M  V30 1093 H 100.533 -1.99693 -2.23076 0
M  V30 1094 H 98.0787 -0.96152 -1.07195 0
M  V30 1095 H 100.032 -0.534345 -4.17998 0
M  V30 1096 H 98.7557 0.293073 -3.25282 0
M  V30 1097 H 97.4147 -1.83791 -3.17201 0
M  V30 1098 H 97.0627 -0.196847 -5.02615 0
M  V30 1099 H 96.7627 -1.86592 -5.57187 0
M  V30 1100 H 98.2867 -1.04593 -6.01575 0
M  V30 1101 H 99.7007 -3.01192 -4.87808 0
M  V30 1102 H 98.0977 -3.77406 -4.66567 0
M  V30 1103 H 99.1677 -3.58524 -3.26479 0
M  V30 1104 N 100.511 1.16574 -1.06058 0
M  V30 1105 C 101.474 2.19085 -0.673392 0
M  V30 1106 C 102.474 1.5835 0.279648 0
M  V30 1107 O 103.664 1.74088 0.0623488 0
M  V30 1108 C 100.796 3.40899 0.00954234 0
M  V30 1109 H 101.989 2.54853 -1.58081 0
M  V30 1110 H 99.5418 1.30808 -0.855516 0
M  V30 1111 H 100.277 3.10684 0.929826 0
M  V30 1112 H 100.062 3.86233 -0.67573 0
M  V30 1113 H 101.552 4.1675 0.266245 0
M  V30 1114 N 101.989 0.842826 1.3317 0
M  V30 1115 C 103.405 0.531128 1.50503 0
M  V30 1116 C 103.605 -0.940734 1.78192 0
M  V30 1117 O 102.661 -1.72436 1.84451 0
M  V30 1118 C 103.974 1.40789 2.65705 0
M  V30 1119 C 105.522 1.40708 2.79589 0
M  V30 1120 C 105.997 2.26878 3.97857 0
M  V30 1121 N 107.488 2.24609 4.05099 0
M  V30 1122 C 108.223 2.88019 4.95815 0
M  V30 1123 N 107.719 3.60496 5.9162 0
M  V30 1124 N 109.512 2.77469 4.88843 0
M  V30 1125 H 101.663 1.79557 1.1346 0
M  V30 1126 H 103.926 0.766267 0.558156 0
M  V30 1127 H 103.632 2.454 2.51936 0
M  V30 1128 H 103.506 1.08677 3.61205 0
M  V30 1129 H 105.893 0.368668 2.92788 0
M  V30 1130 H 105.974 1.76829 1.84838 0
M  V30 1131 H 105.618 3.3078 3.85418 0
M  V30 1132 H 105.548 1.88096 4.91861 0
M  V30 1133 H 108.039 1.71906 3.36536 0
M  V30 1134 H 108.352 4.06076 6.57512 0
M  V30 1135 H 106.697 3.64604 5.91683 0
M  V30 1136 H 109.888 2.20406 4.12963 0
M  V30 1137 H 110.061 3.2717 5.59342 0
M  V30 1138 N 103.467 -1.45747 0.599634 0
M  V30 1139 C 104.713 -2.02592 0.0918643 0
M  V30 1140 C 105.046 -1.46806 -1.27128 0
M  V30 1141 O 104.321 -0.639658 -1.83681 0
M  V30 1142 C 104.604 -3.60073 0.0443398 0
M  V30 1143 C 104.457 -4.26208 1.43759 0
M  V30 1144 C 105.776 -4.35309 -0.647608 0
M  V30 1145 H 102.895 -0.736175 0.034857 0
M  V30 1146 H 105.537 -1.73694 0.770081 0
M  V30 1147 H 103.687 -3.84823 -0.533224 0
M  V30 1148 H 105.359 -4.12668 2.06162 0
M  V30 1149 H 103.602 -3.84916 2.00056 0
M  V30 1150 H 104.273 -5.35069 1.35665 0
M  V30 1151 H 106.749 -4.15805 -0.156776 0
M  V30 1152 H 105.625 -5.45038 -0.649942 0
M  V30 1153 H 105.886 -4.07598 -1.71219 0
M  V30 1154 N 104.945 -0.338344 -1.53925 0
M  V30 1155 C 106.17 0.263987 -2.05713 0
M  V30 1156 C 106.595 1.43847 -1.21201 0
M  V30 1157 O 105.953 1.79904 -0.224535 0
M  V30 1158 C 106.001 0.662 -3.54471 0
M  V30 1159 O 105.105 1.76265 -3.72833 0
M  V30 1160 H 104.446 0.0448722 -0.662482 0
M  V30 1161 H 106.976 -0.491048 -1.9862 0
M  V30 1162 H 106.986 0.940594 -3.9701 0
M  V30 1163 H 105.661 -0.196937 -4.15433 0
M  V30 1164 H 104.238 1.48173 -3.42198 0
M  V30 1165 N 106.423 1.57458 -0.0668435 0
M  V30 1166 C 107.663 1.95175 0.607116 0
M  V30 1167 C 108.027 0.946039 1.67075 0
M  V30 1168 O 109.228 1.2107 2.39991 0
M  V30 1169 C 107.499 3.37582 1.17358 0
M  V30 1170 S 109.058 3.97271 1.86336 0
M  V30 1171 H 105.876 0.682604 0.19893 0
M  V30 1172 H 108.478 1.95002 -0.139519 0
M  V30 1173 H 107.182 4.08566 0.387553 0
M  V30 1174 H 106.713 3.41288 1.95669 0
M  V30 1175 H 108.728 3.83772 3.14537 0
M  V30 1176 N 107.901 -0.206675 1.56239 0
M  V30 1177 C 109.317 -0.557025 1.49564 0
M  V30 1178 C 109.517 -1.86424 0.764735 0
M  V30 1179 O 108.573 -2.50584 0.310491 0
M  V30 1180 C 109.886 -0.622478 2.94186 0
M  V30 1181 C 111.434 -0.712099 3.04792 0
M  V30 1182 C 111.909 -0.808767 4.50803 0
M  V30 1183 N 113.4 -0.8726 4.54907 0
M  V30 1184 C 114.135 -0.967365 5.65181 0
M  V30 1185 N 113.631 -1.02515 6.85173 0
M  V30 1186 N 115.424 -1.00366 5.53067 0
M  V30 1187 H 107.575 0.650943 2.02179 0
M  V30 1188 H 109.838 0.230387 0.919579 0
M  V30 1189 H 109.544 0.268727 3.50672 0
M  V30 1190 H 109.418 -1.4811 3.46905 0
M  V30 1191 H 111.805 -1.59374 2.48363 0
M  V30 1192 H 111.886 0.172489 2.55218 0
M  V30 1193 H 111.53 0.0684754 5.07854 0
M  V30 1194 H 111.46 -1.70899 4.98098 0
M  V30 1195 H 113.951 -0.837657 3.68499 0
M  V30 1196 H 114.264 -1.09765 7.64965 0
M  V30 1197 H 112.609 -0.994026 6.87855 0
M  V30 1198 H 115.8 -0.95527 4.58249 0
M  V30 1199 H 115.973 -1.07405 6.39037 0
M  V30 1200 N 109.379 -1.50304 -0.473955 0
M  V30 1201 C 110.628 -1.60392 -1.22301 0
M  V30 1202 C 110.941 -0.308411 -1.93153 0
M  V30 1203 O 112.147 -0.288156 -2.69966 0
M  V30 1204 C 110.603 -2.83109 -2.2221 0
M  V30 1205 C 110.211 -4.19524 -1.57173 0
M  V30 1206 C 111.955 -3.0254 -2.97775 0
M  V30 1207 C 109.862 -5.33431 -2.55353 0
M  V30 1208 H 108.792 -0.597286 -0.460179 0
M  V30 1209 H 111.443 -1.76731 -0.493803 0
M  V30 1210 H 109.825 -2.60322 -2.9841 0
M  V30 1211 H 110.999 -4.52554 -0.867824 0
M  V30 1212 H 109.314 -4.05674 -0.939002 0
M  V30 1213 H 111.911 -3.84811 -3.71248 0
M  V30 1214 H 112.254 -2.14154 -3.56992 0
M  V30 1215 H 112.787 -3.25494 -2.28688 0
M  V30 1216 H 109.526 -6.23962 -2.00878 0
M  V30 1217 H 109.046 -5.04823 -3.23904 0
M  V30 1218 H 110.725 -5.63887 -3.17239 0
M  V30 1219 N 110.857 0.726932 -1.39834 0
M  V30 1220 C 112.085 1.51613 -1.40787 0
M  V30 1221 C 112.5 1.88799 -0.00451505 0
M  V30 1222 O 111.857 1.54662 0.968809 0
M  V30 1223 C 111.908 2.79863 -2.28821 0
M  V30 1224 O 111.629 2.44253 -3.63692 0
M  V30 1225 C 113.13 3.73837 -2.38245 0
M  V30 1226 H 110.35 0.468264 -0.480593 0
M  V30 1227 H 112.894 0.897607 -1.83748 0
M  V30 1228 H 111.049 3.38027 -1.89252 0
M  V30 1229 H 111.463 3.26695 -4.1033 0
M  V30 1230 H 112.937 4.60699 -3.04073 0
M  V30 1231 H 113.414 4.16153 -1.40403 0
M  V30 1232 H 114.02 3.21589 -2.78317 0
M  V30 1233 N 112.336 1.25143 0.95797 0
M  V30 1234 C 113.613 1.00472 1.67823 0
M  V30 1235 C 113.993 -0.470056 2.058 0
M  V30 1236 O 113.341 -1.44663 1.76875 0
M  V30 1237 C 113.551 1.9372 2.90299 0
M  V30 1238 C 114.899 2.21371 3.62326 0
M  V30 1239 O 115.923 1.91451 3.00375 0
M  V30 1240 O 114.782 2.72231 4.7387 0
M  V30 1241 H 111.876 0.380752 0.734137 0
M  V30 1242 H 114.422 1.36283 1.01119 0
M  V30 1243 H 113.194 2.93316 2.59001 0
M  V30 1244 H 112.817 1.58286 3.64735 0
M  V30 1245 N 113.814 -1.1601 1.06675 0
M  V30 1246 C 114.744 -2.22688 0.702307 0
M  V30 1247 C 115.725 -1.67306 -0.307032 0
M  V30 1248 O 116.91 -1.93352 -0.181305 0
M  V30 1249 C 114.04 -3.47178 0.092038 0
M  V30 1250 C 112.994 -4.15477 1.02777 0
M  V30 1251 C 112.32 -5.33963 0.28061 0
M  V30 1252 C 113.62 -4.66019 2.35846 0
M  V30 1253 H 115.314 -2.53429 1.59419 0
M  V30 1254 H 112.86 -1.21813 0.767961 0
M  V30 1255 H 114.813 -4.21037 -0.174814 0
M  V30 1256 H 113.537 -3.15749 -0.834877 0
M  V30 1257 H 112.196 -3.43549 1.27944 0
M  V30 1258 H 111.844 -4.98788 -0.649545 0
M  V30 1259 H 111.544 -5.806 0.904258 0
M  V30 1260 H 113.068 -6.10596 0.021396 0
M  V30 1261 H 114.482 -5.3144 2.15045 0
M  V30 1262 H 112.879 -5.23293 2.93743 0
M  V30 1263 H 113.949 -3.82023 2.98641 0
M  V30 1264 N 115.292 -0.849877 -1.32721 0
M  V30 1265 C 116.522 -0.46408 -2.0132 0
M  V30 1266 C 116.93 0.94246 -1.64056 0
M  V30 1267 O 116.273 1.6257 -0.855379 0
M  V30 1268 C 116.335 -0.517887 -3.5575 0
M  V30 1269 C 115.999 -1.88248 -4.16427 0
M  V30 1270 C 116.996 -2.84726 -4.35002 0
M  V30 1271 C 114.681 -2.17832 -4.52609 0
M  V30 1272 C 116.675 -4.08945 -4.8892 0
M  V30 1273 C 114.362 -3.42304 -5.06232 0
M  V30 1274 C 115.36 -4.37677 -5.24335 0
M  V30 1275 O 115.048 -5.59946 -5.76815 0
M  V30 1276 H 114.78 -0.181327 -0.651227 0
M  V30 1277 H 117.334 -1.14713 -1.70382 0
M  V30 1278 H 115.564 0.221997 -3.86062 0
M  V30 1279 H 117.253 -0.148366 -4.05629 0
M  V30 1280 H 118.019 -2.63174 -4.07388 0
M  V30 1281 H 113.898 -1.44385 -4.37806 0
M  V30 1282 H 117.442 -4.83396 -5.02966 0
M  V30 1283 H 113.339 -3.63709 -5.33278 0
M  V30 1284 H 114.107 -5.61838 -5.95214 0
M  V30 1285 N 116.77 1.45427 -0.607355 0
M  V30 1286 C 117.998 2.06614 -0.108814 0
M  V30 1287 C 118.413 1.45204 1.2067 0
M  V30 1288 O 117.77 0.566132 1.73497 0
M  V30 1289 C 117.821 3.61481 0.0375347 0
M  V30 1290 O 117.542 4.20598 -1.22593 0
M  V30 1291 C 119.043 4.39652 0.567561 0
M  V30 1292 H 116.263 0.66747 -0.0687351 0
M  V30 1293 H 118.807 1.86675 -0.835022 0
M  V30 1294 H 116.962 3.80762 0.714068 0
M  V30 1295 H 117.376 5.1377 -1.05547 0
M  V30 1296 H 118.85 5.48518 0.61905 0
M  V30 1297 H 119.327 4.09417 1.58978 0
M  V30 1298 H 119.933 4.25234 -0.0749202 0
M  V30 1299 N 118.248 0.346503 1.53744 0
M  V30 1300 C 119.525 -0.304532 1.93215 0
M  V30 1301 C 119.905 -1.67993 1.27834 0
M  V30 1302 O 119.253 -2.24411 0.430352 0
M  V30 1303 C 119.463 -0.373852 3.46992 0
M  V30 1304 C 120.811 -0.62329 4.2 0
M  V30 1305 O 121.835 -0.455847 3.53271 0
M  V30 1306 O 120.694 -0.947879 5.38217 0
M  V30 1307 H 117.788 -0.178318 0.807547 0
M  V30 1308 H 120.334 0.397895 1.64969 0
M  V30 1309 H 119.106 0.591224 3.86808 0
M  V30 1310 H 118.729 -1.12294 3.81413 0
M  V30 1311 N 119.726 -1.57421 0.075193 0
M  V30 1312 C 120.656 -2.15942 -0.888324 0
M  V30 1313 C 121.637 -1.08737 -1.30806 0
M  V30 1314 O 122.822 -1.36787 -1.37851 0
M  V30 1315 C 119.952 -2.72379 -2.1547 0
M  V30 1316 C 118.906 -3.8478 -1.87425 0
M  V30 1317 C 118.232 -4.27834 -3.20721 0
M  V30 1318 C 119.532 -5.08869 -1.17684 0
M  V30 1319 H 121.226 -2.96705 -0.400799 0
M  V30 1320 H 118.772 -1.42723 -0.191342 0
M  V30 1321 H 120.725 -3.11965 -2.83295 0
M  V30 1322 H 119.449 -1.88841 -2.6647 0
M  V30 1323 H 118.108 -3.45703 -1.22004 0
M  V30 1324 H 117.756 -3.41214 -3.6957 0
M  V30 1325 H 117.456 -5.03605 -3.02746 0
M  V30 1326 H 118.98 -4.70039 -3.89738 0
M  V30 1327 H 120.394 -5.4575 -1.75584 0
M  V30 1328 H 118.791 -5.8994 -1.09956 0
M  V30 1329 H 119.861 -4.84648 -0.156453 0
M  V30 1330 N 121.204 0.198386 -1.56346 0
M  V30 1331 C 122.62 0.549085 -1.49857 0
M  V30 1332 C 122.82 1.86016 -0.774611 0
M  V30 1333 O 121.876 2.50416 -0.323776 0
M  V30 1334 C 123.189 0.606868 -2.94512 0
M  V30 1335 C 124.737 0.695925 -3.05165 0
M  V30 1336 C 125.212 0.784848 -4.51225 0
M  V30 1337 N 126.703 0.848463 -4.55363 0
M  V30 1338 C 127.438 0.937378 -5.65686 0
M  V30 1339 N 126.934 0.9888 -6.85707 0
M  V30 1340 N 128.727 0.974312 -5.53592 0
M  V30 1341 H 120.878 -0.661655 -2.01831 0
M  V30 1342 H 123.141 -0.235261 -0.918344 0
M  V30 1343 H 122.847 -0.28732 -3.50524 0
M  V30 1344 H 122.721 1.46268 -3.47686 0
M  V30 1345 H 125.108 1.58055 -2.49204 0
M  V30 1346 H 125.189 -0.186022 -2.55123 0
M  V30 1347 H 124.833 -0.0954072 -5.0781 0
M  V30 1348 H 124.763 1.68255 -4.98997 0
M  V30 1349 H 127.254 0.818103 -3.68938 0
M  V30 1350 H 127.567 1.05707 -7.65536 0
M  V30 1351 H 125.912 0.957534 -6.88372 0
M  V30 1352 H 129.103 0.930954 -4.58749 0
M  V30 1353 H 129.276 1.04015 -6.39597 0
M  V30 1354 N 122.682 1.50554 0.465978 0
M  V30 1355 C 123.959 1.5232 1.22712 0
M  V30 1356 C 124.339 0.270807 2.09356 0
M  V30 1357 O 123.687 -0.745541 2.15995 0
M  V30 1358 C 123.897 2.82175 2.05374 0
M  V30 1359 C 125.245 3.33033 2.6339 0
M  V30 1360 O 126.269 2.83531 2.15612 0
M  V30 1361 O 125.128 4.19336 3.50456 0
M  V30 1362 H 122.222 0.611183 0.557122 0
M  V30 1363 H 124.768 1.62847 0.477381 0
M  V30 1364 H 123.54 3.64797 1.41558 0
M  V30 1365 H 123.163 2.74675 2.87471 0
M  V30 1366 N 124.16 -0.719506 1.40217 0
M  V30 1367 C 125.408 -1.47641 1.3801 0
M  V30 1368 C 125.729 -1.94992 -0.018145 0
M  V30 1369 O 124.999 -1.70073 -0.972207 0
M  V30 1370 H 123.579 -0.547744 0.507923 0
M  V30 1371 H 126.241 -0.853187 1.75233 0
M  V30 1372 H 125.337 -2.35112 2.05253 0
M  V30 1373 N 125.638 -1.25649 -0.95132 0
M  V30 1374 C 127.054 -1.02542 -1.223 0
M  V30 1375 C 127.254 0.255715 -1.99871 0
M  V30 1376 O 126.31 0.967558 -2.33226 0
M  V30 1377 C 127.623 -2.25065 -1.99415 0
M  V30 1378 C 129.171 -2.29861 -2.12446 0
M  V30 1379 C 129.646 -3.52048 -2.92961 0
M  V30 1380 N 131.137 -3.52465 -3.00538 0
M  V30 1381 C 131.872 -4.43672 -3.63239 0
M  V30 1382 N 131.368 -5.45157 -4.27523 0
M  V30 1383 N 133.161 -4.31346 -3.60412 0
M  V30 1384 H 125.312 -2.07951 -0.432471 0
M  V30 1385 H 127.575 -0.91339 -0.253816 0
M  V30 1386 H 127.281 -3.18194 -1.49817 0
M  V30 1387 H 127.155 -2.28502 -3.00111 0
M  V30 1388 H 129.542 -1.37252 -2.61239 0
M  V30 1389 H 129.623 -2.3044 -1.11044 0
M  V30 1390 H 129.267 -4.44981 -2.44856 0
M  V30 1391 H 129.197 -3.48715 -3.94596 0
M  V30 1392 H 131.688 -2.79056 -2.54826 0
M  V30 1393 H 132.001 -6.10958 -4.73234 0
M  V30 1394 H 130.346 -5.49025 -4.26141 0
M  V30 1395 H 133.537 -3.51288 -3.09377 0
M  V30 1396 H 133.71 -5.02624 -4.0899 0
M  V30 1397 N 127.117 1.15442 -1.07289 0
M  V30 1398 C 128.05 2.19135 -0.636798 0
M  V30 1399 C 129.028 1.58884 0.34562 0
M  V30 1400 O 130.212 1.86805 0.252195 0
M  V30 1401 C 127.339 3.38638 0.0650014 0
M  V30 1402 C 126.385 4.17412 -0.87576 0
M  V30 1403 S 127.218 4.79882 -2.37642 0
M  V30 1404 C 128.374 6.02753 -1.6864 0
M  V30 1405 H 128.607 2.55787 -1.51526 0
M  V30 1406 H 126.14 1.26394 -0.886793 0
M  V30 1407 H 128.098 4.07873 0.463664 0
M  V30 1408 H 126.759 3.00331 0.919801 0
M  V30 1409 H 125.952 5.02909 -0.33143 0
M  V30 1410 H 125.554 3.53722 -1.21478 0
M  V30 1411 H 127.846 6.70113 -0.997753 0
M  V30 1412 H 128.789 6.61754 -2.51967 0
M  V30 1413 H 129.197 5.52355 -1.16465 0
M  V30 1414 N 128.595 0.856903 1.32268 0
M  V30 1415 C 129.525 0.31858 2.31316 0
M  V30 1416 C 130.506 -0.583487 1.59779 0
M  V30 1417 O 131.691 -0.503259 1.87566 0
M  V30 1418 C 128.821 -0.491979 3.43798 0
M  V30 1419 C 127.775 0.315849 4.26833 0
M  V30 1420 C 127.101 -0.619586 5.31098 0
M  V30 1421 C 128.401 1.54282 4.98993 0
M  V30 1422 H 130.095 1.14621 2.76591 0
M  V30 1423 H 127.641 0.552613 1.32974 0
M  V30 1424 H 129.594 -0.879012 4.1213 0
M  V30 1425 H 128.318 -1.35299 2.97257 0
M  V30 1426 H 126.977 0.684664 3.6015 0
M  V30 1427 H 126.625 -1.47751 4.8081 0
M  V30 1428 H 126.325 -0.0830621 5.87541 0
M  V30 1429 H 127.849 -1.00375 6.02293 0
M  V30 1430 H 129.263 1.22796 5.59995 0
M  V30 1431 H 127.66 2.01745 5.65172 0
M  V30 1432 H 128.73 2.30285 4.26728 0
M  V30 1433 N 130.073 -1.45103 0.615059 0
M  V30 1434 C 131.322 -2.01396 0.110718 0
M  V30 1435 C 131.635 -1.48834 -1.26916 0
M  V30 1436 O 132.841 -1.97152 -1.86664 0
M  V30 1437 C 131.297 -3.59599 0.14723 0
M  V30 1438 C 130.905 -4.21158 1.52743 0
M  V30 1439 C 132.649 -4.23428 -0.30148 0
M  V30 1440 C 130.556 -5.71535 1.51992 0
M  V30 1441 H 129.486 -0.753061 0.0376241 0
M  V30 1442 H 132.137 -1.66494 0.77149 0
M  V30 1443 H 130.519 -3.91724 -0.580339 0
M  V30 1444 H 131.693 -4.00594 2.2773 0
M  V30 1445 H 130.008 -3.69552 1.91886 0
M  V30 1446 H 132.605 -5.33703 -0.326392 0
M  V30 1447 H 132.948 -3.94629 -1.32565 0
M  V30 1448 H 133.481 -3.96047 0.373065 0
M  V30 1449 H 130.22 -6.05044 2.52193 0
M  V30 1450 H 129.74 -5.94268 0.81274 0
M  V30 1451 H 131.419 -6.34873 1.24681 0
M  V30 1452 N 131.551 -0.354651 -1.53558 0
M  V30 1453 C 132.498 0.496968 -2.25386 0
M  V30 1454 C 133.468 1.0865 -1.25636 0
M  V30 1455 O 134.653 1.12104 -1.54394 0
M  V30 1456 C 131.793 1.63637 -3.03837 0
M  V30 1457 C 130.906 1.07307 -4.18461 0
M  V30 1458 C 130.041 2.18068 -4.84376 0
M  V30 1459 C 129.08 1.59147 -5.91049 0
M  V30 1460 N 128.217 2.63695 -6.50699 0
M  V30 1461 H 133.057 -0.122075 -2.9775 0
M  V30 1462 H 130.594 -0.0720154 -1.46924 0
M  V30 1463 H 132.552 2.30734 -3.47589 0
M  V30 1464 H 131.182 2.22623 -2.33749 0
M  V30 1465 H 130.234 0.292708 -3.79272 0
M  V30 1466 H 131.546 0.602193 -4.95152 0
M  V30 1467 H 130.7 2.93007 -5.31255 0
M  V30 1468 H 129.439 2.68504 -4.07133 0
M  V30 1469 H 128.444 0.827175 -5.43542 0
M  V30 1470 H 129.669 1.09549 -6.70206 0
M  V30 1471 H 127.615 3.13365 -5.76315 0
M  V30 1472 H 127.532 2.21263 -7.22896 0
M  V30 1473 H 128.8 3.3837 -7.02229 0
M  V30 1474 N 133.029 1.57378 -0.0835403 0
M  V30 1475 C 133.959 2.1641 0.87686 0
M  V30 1476 C 134.94 1.09429 1.30228 0
M  V30 1477 O 136.125 1.37516 1.37124 0
M  V30 1478 C 133.255 2.73517 2.14022 0
M  V30 1479 C 132.209 3.85769 1.85381 0
M  V30 1480 C 131.535 4.29529 3.18448 0
M  V30 1481 C 132.835 5.09486 1.14984 0
M  V30 1482 H 134.529 2.96914 0.385059 0
M  V30 1483 H 132.075 1.42823 0.18377 0
M  V30 1484 H 134.028 3.13463 2.81636 0
M  V30 1485 H 132.752 1.90252 2.65465 0
M  V30 1486 H 131.411 3.46345 1.20169 0
M  V30 1487 H 131.059 3.43169 3.67755 0
M  V30 1488 H 130.759 5.05204 3.00071 0
M  V30 1489 H 132.283 4.72099 3.8724 0
M  V30 1490 H 133.697 5.46674 1.72687 0
M  V30 1491 H 132.094 5.90515 1.06826 0
M  V30 1492 H 133.164 4.84724 0.130749 0
M  V30 1493 N 134.507 -0.190092 1.56449 0
M  V30 1494 C 135.437 -1.23816 1.97969 0
M  V30 1495 C 136.418 -1.47201 0.852395 0
M  V30 1496 O 137.603 -1.58854 1.1171 0
M  V30 1497 C 134.733 -2.5813 2.3235 0
M  V30 1498 C 133.687 -2.49348 3.47864 0
M  V30 1499 C 133.013 -3.8798 3.67934 0
M  V30 1500 C 134.313 -2.01424 4.81898 0
M  V30 1501 H 136.007 -0.89311 2.85769 0
M  V30 1502 H 133.553 -0.428177 1.37487 0
M  V30 1503 H 135.506 -3.31637 2.59991 0
M  V30 1504 H 134.23 -2.94386 1.41438 0
M  V30 1505 H 132.889 -1.78297 3.20321 0
M  V30 1506 H 132.537 -4.21597 2.74344 0
M  V30 1507 H 132.237 -3.82978 4.45648 0
M  V30 1508 H 133.761 -4.63101 3.97957 0
M  V30 1509 H 135.175 -2.64693 5.08538 0
M  V30 1510 H 133.572 -2.07413 5.63116 0
M  V30 1511 H 134.642 -0.967677 4.75146 0
M  V30 1512 N 135.985 -1.50799 -0.457987 0
M  V30 1513 C 136.895 -1.73426 -1.57989 0
M  V30 1514 C 137.911 -0.617745 -1.62665 0
M  V30 1515 O 139.087 -0.897614 -1.80291 0
M  V30 1516 C 136.152 -1.83557 -2.94122 0
M  V30 1517 C 135.213 -3.07345 -2.99729 0
M  V30 1518 C 134.446 -3.16983 -4.29368 0
M  V30 1519 O 134.669 -2.33077 -5.20607 0
M  V30 1520 O 133.603 -4.09812 -4.40837 0
M  V30 1521 H 137.429 -2.68555 -1.41817 0
M  V30 1522 H 135.014 -1.35052 -0.638859 0
M  V30 1523 H 136.896 -1.92326 -3.74952 0
M  V30 1524 H 135.571 -0.916137 -3.10465 0
M  V30 1525 H 134.478 -3.04068 -2.1793 0
M  V30 1526 H 135.811 -3.9891 -2.88326 0
M  V30 1527 N 137.463 0.71206 -1.40597 0
M  V30 1528 C 138.709 1.47416 -1.39271 0
M  V30 1529 C 139.042 1.942 0.00388791 0
M  V30 1530 O 138.317 1.68403 0.973179 0
M  V30 1531 C 138.6 2.69774 -2.38525 0
M  V30 1532 C 138.453 2.28861 -3.87224 0
M  V30 1533 C 139.772 3.71939 -2.35264 0
M  V30 1534 H 136.891 0.534713 -0.5072 0
M  V30 1535 H 139.533 0.812375 -1.71757 0
M  V30 1536 H 137.683 3.26238 -2.10953 0
M  V30 1537 H 139.355 1.77852 -4.25636 0
M  V30 1538 H 137.598 1.60824 -4.02887 0
M  V30 1539 H 138.269 3.16584 -4.52193 0
M  V30 1540 H 140.745 3.25113 -2.59694 0
M  V30 1541 H 139.621 4.55186 -3.06753 0
M  V30 1542 H 139.882 4.20484 -1.36549 0
M  V30 1543 N 138.941 1.26152 0.944643 0
M  V30 1544 C 139.871 1.09902 2.06019 0
M  V30 1545 C 140.852 0.00519538 1.70099 0
M  V30 1546 O 142.037 0.176583 1.93396 0
M  V30 1547 C 139.167 0.727562 3.39594 0
M  V30 1548 C 138.121 1.77274 3.89561 0
M  V30 1549 C 137.447 1.25569 5.19747 0
M  V30 1550 C 138.747 3.17357 4.14827 0
M  V30 1551 H 140.441 2.03217 2.19871 0
M  V30 1552 H 137.987 0.978452 1.05652 0
M  V30 1553 H 139.94 0.600777 4.17095 0
M  V30 1554 H 138.664 -0.241287 3.25707 0
M  V30 1555 H 137.323 1.88814 3.14237 0
M  V30 1556 H 136.971 0.276783 5.02238 0
M  V30 1557 H 136.671 1.95433 5.54148 0
M  V30 1558 H 138.195 1.1415 5.99835 0
M  V30 1559 H 139.609 3.08914 4.82954 0
M  V30 1560 H 138.006 3.84781 4.60504 0
M  V30 1561 H 139.076 3.63673 3.20734 0
M  V30 1562 N 140.419 -1.14872 1.07899 0
M  V30 1563 C 141.644 -1.90202 0.826926 0
M  V30 1564 C 142.069 -1.77774 -0.614664 0
M  V30 1565 O 141.427 -1.11431 -1.43013 0
M  V30 1566 C 141.475 -3.38352 1.24702 0
M  V30 1567 O 140.579 -4.10497 0.39575 0
M  V30 1568 H 139.92 -0.591968 0.300782 0
M  V30 1569 H 142.45 -1.45437 1.43907 0
M  V30 1570 H 142.46 -3.89156 1.22563 0
M  V30 1571 H 141.135 -3.46715 2.29698 0
M  V30 1572 H 139.712 -3.69796 0.480117 0
M  V30 1573 N 141.898 -0.863906 -1.31812 0
M  V30 1574 C 143.146 -0.470904 -1.96537 0
M  V30 1575 C 143.467 0.978771 -1.68657 0
M  V30 1576 O 142.737 1.6853 -0.998717 0
M  V30 1577 H 141.317 -0.171148 -0.72713 0
M  V30 1578 H 143.979 -1.10236 -1.60729 0
M  V30 1579 H 143.075 -0.623616 -3.05806 0
M  V30 1580 N 143.376 1.44774 -0.622745 0
M  V30 1581 C 144.286 2.34433 0.0886031 0
M  V30 1582 C 145.302 1.52131 0.844529 0
M  V30 1583 O 146.478 1.84886 0.798691 0
M  V30 1584 C 143.543 3.29986 1.0635 0
M  V30 1585 C 142.604 4.28195 0.307873 0
M  V30 1586 C 141.837 5.19183 1.23633 0
M  V30 1587 O 142.06 5.13918 2.47476 0
M  V30 1588 O 140.994 5.97515 0.725189 0
M  V30 1589 H 144.82 2.96693 -0.648599 0
M  V30 1590 H 142.405 1.44408 -0.382957 0
M  V30 1591 H 144.287 3.88825 1.6246 0
M  V30 1592 H 142.962 2.70269 1.78146 0
M  V30 1593 H 141.869 3.72927 -0.296064 0
M  V30 1594 H 143.202 4.90808 -0.3699 0
M  V30 1595 N 144.854 0.36279 1.53368 0
M  V30 1596 C 146.27 0.0116182 1.59596 0
M  V30 1597 C 146.47 -1.47012 1.37803 0
M  V30 1598 O 145.526 -2.23136 1.18181 0
M  V30 1599 C 146.839 0.465052 2.97082 0
M  V30 1600 C 148.387 0.419033 3.10182 0
M  V30 1601 C 148.862 0.848235 4.50077 0
M  V30 1602 N 150.353 0.803183 4.56183 0
M  V30 1603 C 151.088 1.107 5.62613 0
M  V30 1604 N 150.584 1.47996 6.76808 0
M  V30 1605 N 152.377 1.02998 5.52583 0
M  V30 1606 H 144.528 1.32775 1.65785 0
M  V30 1607 H 146.791 0.542518 0.777417 0
M  V30 1608 H 146.497 1.49892 3.18159 0
M  V30 1609 H 146.371 -0.149786 3.76902 0
M  V30 1610 H 148.758 -0.605696 2.88817 0
M  V30 1611 H 148.839 1.06933 2.32377 0
M  V30 1612 H 148.483 1.87107 4.7218 0
M  V30 1613 H 148.413 0.175218 5.26308 0
M  V30 1614 H 150.904 0.52838 3.74188 0
M  V30 1615 H 151.217 1.69613 7.53957 0
M  V30 1616 H 149.562 1.51859 6.78206 0
M  V30 1617 H 152.753 0.737817 4.62249 0
M  V30 1618 H 152.926 1.2701 6.35431 0
M  V30 1619 N 146.332 -1.57332 0.0918853 0
M  V30 1620 C 147.262 -2.16872 -0.865371 0
M  V30 1621 C 148.243 -1.10118 -1.29646 0
M  V30 1622 O 149.428 -1.38242 -1.36392 0
M  V30 1623 C 146.558 -2.74649 -2.12569 0
M  V30 1624 C 145.512 -3.86747 -1.83333 0
M  V30 1625 C 144.838 -4.31212 -3.16166 0
M  V30 1626 C 146.138 -5.10089 -1.1228 0
M  V30 1627 H 147.832 -2.97114 -0.369307 0
M  V30 1628 H 145.378 -1.42918 -0.176194 0
M  V30 1629 H 147.331 -3.14952 -2.7997 0
M  V30 1630 H 146.055 -1.91657 -2.64452 0
M  V30 1631 H 144.714 -3.46978 -1.18331 0
M  V30 1632 H 144.362 -3.45115 -3.6593 0
M  V30 1633 H 144.062 -5.06788 -2.97388 0
M  V30 1634 H 145.586 -4.74146 -3.84731 0
M  V30 1635 H 147 -5.47582 -1.69785 0
M  V30 1636 H 145.397 -5.91073 -1.03693 0
M  V30 1637 H 146.467 -4.84786 -0.105041 0
M  V30 1638 N 147.81 0.181792 -1.56548 0
M  V30 1639 C 149.221 0.745244 -1.71181 0
M  V30 1640 C 149.572 1.83262 -0.70068 0
M  V30 1641 O 148.697 2.15946 0.140154 0
M  V30 1642 C 149.292 1.35859 -3.10367 0
M  V30 1643 C 147.851 1.86898 -3.2672 0
M  V30 1644 C 146.998 0.743942 -2.67134 0
M  V30 1645 H 149.949 -0.0434661 -1.5864 0
M  V30 1646 H 149.97 2.22817 -3.08436 0
M  V30 1647 H 149.482 0.566948 -3.83937 0
M  V30 1648 H 147.583 2.68738 -2.5809 0
M  V30 1649 H 147.696 2.02162 -4.34359 0
M  V30 1650 H 146.06 1.16169 -2.26665 0
M  V30 1651 H 146.843 -0.035676 -3.43281 0
M  V30 1652 N 149.288 1.51039 0.449983 0
M  V30 1653 C 150.235 1.71439 1.54523 0
M  V30 1654 C 151.205 0.555871 1.56522 0
M  V30 1655 O 152.39 0.788871 1.73728 0
M  V30 1656 C 149.53 1.83384 2.92343 0
M  V30 1657 C 148.643 3.10873 2.9997 0
M  V30 1658 C 147.778 3.13488 4.28834 0
M  V30 1659 C 146.817 4.35343 4.30282 0
M  V30 1660 N 145.954 4.35579 5.5065 0
M  V30 1661 H 150.794 2.64934 1.36433 0
M  V30 1662 H 148.331 1.31312 0.662982 0
M  V30 1663 H 150.289 1.88291 3.72293 0
M  V30 1664 H 148.919 0.933086 3.0902 0
M  V30 1665 H 147.971 3.15336 2.12761 0
M  V30 1666 H 149.283 4.00814 2.96901 0
M  V30 1667 H 148.437 3.17241 5.17149 0
M  V30 1668 H 147.176 2.21414 4.34543 0
M  V30 1669 H 146.181 4.3178 3.40362 0
M  V30 1670 H 147.406 5.28668 4.26248 0
M  V30 1671 H 145.352 3.46369 5.57104 0
M  V30 1672 H 145.269 5.19313 5.49409 0
M  V30 1673 H 146.537 4.43507 6.41032 0
M  V30 1674 N 150.766 -0.704594 1.40972 0
M  V30 1675 C 152.177 -1.28418 1.3552 0
M  V30 1676 C 152.528 -1.96171 0.0339434 0
M  V30 1677 O 151.653 -1.98231 -0.867944 0
M  V30 1678 C 152.248 -2.33528 2.45459 0
M  V30 1679 C 150.807 -2.87085 2.43433 0
M  V30 1680 C 149.954 -1.61007 2.2577 0
M  V30 1681 H 152.905 -0.499963 1.50619 0
M  V30 1682 H 152.926 -3.14619 2.13998 0
M  V30 1683 H 152.438 -1.84187 3.41609 0
M  V30 1684 H 150.539 -3.40626 1.51013 0
M  V30 1685 H 150.652 -3.3813 3.39419 0
M  V30 1686 H 149.016 -1.86482 1.73483 0
M  V30 1687 H 149.799 -1.13675 3.23933 0
M  V30 1688 N 152.244 -1.26651 -0.937939 0
M  V30 1689 C 153.472 -1.15173 -1.7188 0
M  V30 1690 C 153.887 0.292668 -1.86518 0
M  V30 1691 O 153.244 1.20014 -1.37488 0
M  V30 1692 C 153.295 -1.81925 -3.12387 0
M  V30 1693 O 153.016 -3.2072 -2.98446 0
M  V30 1694 C 154.517 -1.76442 -4.06673 0
M  V30 1695 H 151.737 -0.400911 -0.538063 0
M  V30 1696 H 154.281 -1.67332 -1.1756 0
M  V30 1697 H 152.436 -1.33696 -3.63599 0
M  V30 1698 H 152.85 -3.53802 -3.872 0
M  V30 1699 H 154.324 -2.27781 -5.02812 0
M  V30 1700 H 154.801 -0.731608 -4.33064 0
M  V30 1701 H 155.407 -2.24238 -3.61382 0
M  V30 1702 N 153.722 1.14298 -1.08507 0
M  V30 1703 C 154.669 2.19414 -0.715965 0
M  V30 1704 C 155.639 1.63399 0.298326 0
M  V30 1705 O 156.824 1.89929 0.182101 0
M  V30 1706 C 153.964 3.44845 -0.132534 0
M  V30 1707 C 153.077 4.15007 -1.19973 0
M  V30 1708 C 152.212 5.28024 -0.580048 0
M  V30 1709 C 151.251 5.9002 -1.62921 0
M  V30 1710 N 150.388 6.94485 -1.03125 0
M  V30 1711 H 155.228 2.50336 -1.61666 0
M  V30 1712 H 152.765 1.2293 -0.807882 0
M  V30 1713 H 154.723 4.16601 0.223454 0
M  V30 1714 H 153.353 3.14403 0.731467 0
M  V30 1715 H 152.405 3.41629 -1.67313 0
M  V30 1716 H 153.717 4.57178 -1.99473 0
M  V30 1717 H 152.871 6.06455 -0.172364 0
M  V30 1718 H 151.61 4.87076 0.246603 0
M  V30 1719 H 150.615 5.10291 -2.04654 0
M  V30 1720 H 151.84 6.33042 -2.45835 0
M  V30 1721 H 149.786 6.55612 -0.225711 0
M  V30 1722 H 149.703 7.35148 -1.76334 0
M  V30 1723 H 150.971 7.7679 -0.649458 0
M  V30 1724 N 155.201 0.870884 1.31352 0
M  V30 1725 C 156.449 0.48132 1.96285 0
M  V30 1726 C 156.77 -0.969813 1.69173 0
M  V30 1727 O 156.04 -1.67998 1.00764 0
M  V30 1728 H 154.62 0.175002 0.726212 0
M  V30 1729 H 157.282 1.11087 1.60143 0
M  V30 1730 H 156.378 0.639825 3.05471 0
M  V30 1731 N 156.679 -1.44442 0.630414 0
M  V30 1732 C 158.095 -1.56832 0.295973 0
M  V30 1733 C 158.295 -1.61806 -1.20088 0
M  V30 1734 O 157.351 -1.5607 -1.9849 0
M  V30 1735 C 158.664 -2.84031 0.987264 0
M  V30 1736 C 160.212 -2.97742 0.96534 0
M  V30 1737 C 160.687 -4.27743 1.63708 0
M  V30 1738 N 162.178 -4.34555 1.60364 0
M  V30 1739 C 162.913 -5.33862 2.09234 0
M  V30 1740 N 162.409 -6.39578 2.66292 0
M  V30 1741 N 164.202 -5.25366 1.99867 0
M  V30 1742 H 156.353 -1.39457 1.60205 0
M  V30 1743 H 158.616 -0.668237 0.672431 0
M  V30 1744 H 158.322 -2.86338 2.04215 0
M  V30 1745 H 158.196 -3.73534 0.524588 0
M  V30 1746 H 160.583 -2.94989 -0.0810639 0
M  V30 1747 H 160.664 -2.09589 1.4665 0
M  V30 1748 H 160.308 -4.31255 2.68293 0
M  V30 1749 H 160.238 -5.14752 1.11076 0
M  V30 1750 H 162.729 -3.58772 1.18705 0
M  V30 1751 H 163.042 -7.11637 3.01317 0
M  V30 1752 H 161.387 -6.40265 2.70343 0
M  V30 1753 H 164.578 -4.41688 1.55013 0
M  V30 1754 H 164.751 -6.02606 2.38265 0
M  V30 1755 N 158.157 -0.370918 -1.53173 0
M  V30 1756 C 159.09 0.516727 -2.22273 0
M  V30 1757 C 160.068 1.07877 -1.21661 0
M  V30 1758 O 161.252 1.13389 -1.50583 0
M  V30 1759 C 158.379 1.71346 -2.92161 0
M  V30 1760 C 157.425 1.27838 -4.0689 0
M  V30 1761 S 158.258 0.275217 -5.34792 0
M  V30 1762 C 159.414 1.47816 -6.08195 0
M  V30 1763 H 159.647 -0.0701054 -2.97217 0
M  V30 1764 H 157.18 -0.155038 -1.5362 0
M  V30 1765 H 159.138 2.39988 -3.3304 0
M  V30 1766 H 157.799 2.27156 -2.16931 0
M  V30 1767 H 156.992 2.17141 -4.54825 0
M  V30 1768 H 156.594 0.671105 -3.6793 0
M  V30 1769 H 158.886 2.40831 -6.33251 0
M  V30 1770 H 159.829 1.04008 -7.0042 0
M  V30 1771 H 160.237 1.68663 -5.38714 0
M  V30 1772 N 159.635 1.57281 -0.100228 0
M  V30 1773 C 161.051 1.57527 0.256416 0
M  V30 1774 C 161.251 1.11173 1.68056 0
M  V30 1775 O 160.307 0.79053 2.39806 0
M  V30 1776 C 161.62 3.00673 0.0401747 0
M  V30 1777 C 163.168 3.12815 0.107528 0
M  V30 1778 C 163.643 4.57929 -0.0807834 0
M  V30 1779 N 165.134 4.63193 -0.0261207 0
M  V30 1780 C 165.869 5.73212 -0.146999 0
M  V30 1781 N 165.365 6.92047 -0.322999 0
M  V30 1782 N 167.158 5.62031 -0.0879044 0
M  V30 1783 H 159.309 1.85718 -1.03065 0
M  V30 1784 H 161.572 0.857446 -0.404339 0
M  V30 1785 H 161.278 3.38804 -0.943649 0
M  V30 1786 H 161.152 3.69042 0.780262 0
M  V30 1787 H 163.539 2.74554 1.08186 0
M  V30 1788 H 163.62 2.47028 -0.664134 0
M  V30 1789 H 163.264 4.96886 -1.05201 0
M  V30 1790 H 163.194 5.21783 0.710635 0
M  V30 1791 H 165.685 3.77748 0.107161 0
M  V30 1792 H 165.998 7.7173 -0.406608 0
M  V30 1793 H 164.343 6.94074 -0.358733 0
M  V30 1794 H 167.534 4.68075 0.048498 0
M  V30 1795 H 167.707 6.47734 -0.185557 0
M  V30 1796 N 161.113 -0.173488 1.56642 0
M  V30 1797 C 162.362 -0.888758 1.81063 0
M  V30 1798 C 162.675 -1.83506 0.67712 0
M  V30 1799 O 163.881 -2.59254 0.806206 0
M  V30 1800 C 162.337 -1.63091 3.20826 0
M  V30 1801 C 161.945 -0.728357 4.4204 0
M  V30 1802 C 163.689 -2.33454 3.54541 0
M  V30 1803 C 161.596 -1.47062 5.72823 0
M  V30 1804 H 160.526 -0.335618 0.675186 0
M  V30 1805 H 163.177 -0.141712 1.82952 0
M  V30 1806 H 161.559 -2.42263 3.13248 0
M  V30 1807 H 162.733 0.0262449 4.60793 0
M  V30 1808 H 161.048 -0.134492 4.16183 0
M  V30 1809 H 163.645 -2.89578 4.49498 0
M  V30 1810 H 163.988 -3.08687 2.79317 0
M  V30 1811 H 164.521 -1.61227 3.63663 0
M  V30 1812 H 161.26 -0.760658 6.51072 0
M  V30 1813 H 160.78 -2.1986 5.58052 0
M  V30 1814 H 162.459 -2.01868 6.14702 0
M  V30 1815 N 162.591 -1.51276 -0.441967 0
M  V30 1816 C 163.541 -1.6864 -1.53442 0
M  V30 1817 C 164.525 -0.540444 -1.51552 0
M  V30 1818 O 165.717 -0.796157 -1.58083 0
M  V30 1819 C 162.846 -1.8106 -2.91672 0
M  V30 1820 C 161.932 -3.01424 -2.98336 0
M  V30 1821 N 162.323 -4.2467 -2.74752 0
M  V30 1822 C 160.621 -3.00584 -3.29493 0
M  V30 1823 C 161.322 -5.05891 -2.87139 0
M  V30 1824 N 160.298 -4.40442 -3.18609 0
M  V30 1825 H 164.1 -2.61598 -1.33954 0
M  V30 1826 H 161.614 -1.4886 -0.6492 0
M  V30 1827 H 163.611 -1.91609 -3.70259 0
M  V30 1828 H 162.271 -0.892795 -3.12185 0
M  V30 1829 H 163.282 -4.53691 -2.49769 0
M  V30 1830 H 159.959 -2.18417 -3.55809 0
M  V30 1831 H 161.349 -6.13983 -2.72899 0
M  V30 1832 N 164.069 0.697108 -1.41344 0
M  V30 1833 C 165.309 1.46939 -1.42085 0
M  V30 1834 C 165.673 1.9198 -0.0280397 0
M  V30 1835 O 166.874 2.6865 0.0897504 0
M  V30 1836 C 165.145 2.64985 -2.39828 0
M  V30 1837 S 166.704 3.54147 -2.59085 0
M  V30 1838 H 163.522 0.502146 -0.503359 0
M  V30 1839 H 166.124 0.813546 -1.77769 0
M  V30 1840 H 164.828 2.30098 -3.39828 0
M  V30 1841 H 164.359 3.35464 -2.05493 0
M  V30 1842 H 166.374 4.60137 -1.85711 0
M  V30 1843 N 165.547 1.27147 0.931209 0
M  V30 1844 C 166.477 1.12081 2.04842 0
M  V30 1845 C 167.458 0.0232364 1.70084 0
M  V30 1846 O 168.643 0.197085 1.93197 0
M  V30 1847 C 165.773 0.76354 3.38803 0
M  V30 1848 C 164.727 1.81396 3.87659 0
M  V30 1849 C 164.053 1.31075 5.18385 0
M  V30 1850 C 165.353 3.21739 4.11438 0
M  V30 1851 H 167.047 2.05537 2.17703 0
M  V30 1852 H 164.593 0.989603 1.04608 0
M  V30 1853 H 166.546 0.644982 4.16435 0
M  V30 1854 H 165.27 -0.206727 3.25945 0
M  V30 1855 H 163.929 1.92136 3.12217 0
M  V30 1856 H 163.577 0.330037 5.01916 0
M  V30 1857 H 163.277 2.013 5.52044 0
M  V30 1858 H 164.801 1.20506 5.98591 0
M  V30 1859 H 166.215 3.14019 4.79651 0
M  V30 1860 H 164.612 3.89644 4.56397 0
M  V30 1861 H 165.682 3.67054 3.16859 0
M  V30 1862 N 167.025 -1.13721 1.09112 0
M  V30 1863 C 167.935 -2.22638 0.73957 0
M  V30 1864 C 168.951 -1.72091 -0.257068 0
M  V30 1865 O 170.127 -2.01155 -0.0992154 0
M  V30 1866 C 167.192 -3.46322 0.16191 0
M  V30 1867 C 166.253 -4.11775 1.21408 0
M  V30 1868 C 165.486 -5.29555 0.663891 0
M  V30 1869 O 165.709 -5.68077 -0.514274 0
M  V30 1870 O 164.643 -5.84973 1.41738 0
M  V30 1871 H 168.469 -2.55074 1.64836 0
M  V30 1872 H 166.054 -1.21791 0.865289 0
M  V30 1873 H 167.936 -4.21107 -0.157073 0
M  V30 1874 H 166.611 -3.15593 -0.719932 0
M  V30 1875 H 165.518 -3.3883 1.58571 0
M  V30 1876 H 166.851 -4.46627 2.06845 0
M  V30 1877 N 168.503 -0.877838 -1.30888 0
M  V30 1878 C 169.451 -0.328662 -2.30266 0
M  V30 1879 C 170.445 0.560496 -1.59859 0
M  V30 1880 O 171.651 0.445722 -1.74394 0
M  V30 1881 H 168.026 -0.0876142 -0.746879 0
M  V30 1882 H 169.997 -1.18061 -2.74051 0
M  V30 1883 C 168.746 0.448071 -3.44801 0
M  V30 1884 H 168.069 -0.226859 -3.99156 0
M  V30 1885 H 169.509 0.797541 -4.16432 0
M  V30 1886 C 167.968 1.64239 -2.94155 0
M  V30 1887 O 168.498 2.74175 -2.93583 0
M  V30 1888 N 166.704 1.47716 -2.50256 0
M  V30 1889 H 166.251 0.582821 -2.5092 0
M  V30 1890 H 166.209 2.27765 -2.16727 0
M  V30 1891 N 169.982 1.44106 -0.638065 0
M  V30 1892 C 171.228 2.02277 -0.145546 0
M  V30 1893 C 171.561 1.50125 1.23191 0
M  V30 1894 O 170.836 0.688133 1.8192 0
M  V30 1895 C 171.119 3.59829 -0.139791 0
M  V30 1896 C 170.972 4.22247 -1.55008 0
M  V30 1897 C 172.291 4.36873 0.531966 0
M  V30 1898 H 169.41 0.734992 -0.0543632 0
M  V30 1899 H 172.052 1.71592 -0.815863 0
M  V30 1900 H 170.202 3.86102 0.431007 0
M  V30 1901 H 171.874 4.07057 -2.1703 0
M  V30 1902 H 170.117 3.79476 -2.10191 0
M  V30 1903 H 170.788 5.31284 -1.49804 0
M  V30 1904 H 173.264 4.16074 0.0464781 0
M  V30 1905 H 172.14 5.4657 0.505206 0
M  V30 1906 H 172.401 4.11995 1.60352 0
M  V30 1907 N 171.46 0.379036 1.52974 0
M  V30 1908 C 172.737 -0.263479 1.93817 0
M  V30 1909 C 173.117 -1.65244 1.31368 0
M  V30 1910 O 172.465 -2.23448 0.477856 0
M  V30 1911 C 172.675 -0.300166 3.47707 0
M  V30 1912 C 174.023 -0.534061 4.21228 0
M  V30 1913 O 175.047 -0.38081 3.54159 0
M  V30 1914 O 173.906 -0.833501 5.40106 0
M  V30 1915 H 171 -0.161149 0.811147 0
M  V30 1916 H 173.546 0.432798 1.64088 0
M  V30 1917 H 172.318 0.673138 3.85467 0
M  V30 1918 H 171.941 -1.04179 3.83709 0
M  V30 1919 N 172.938 -1.57226 0.108567 0
M  V30 1920 C 173.885 -2.14756 -0.845481 0
M  V30 1921 C 174.855 -1.06971 -1.27068 0
M  V30 1922 O 176.04 -1.34827 -1.35005 0
M  V30 1923 C 173.18 -2.74298 -2.09415 0
M  V30 1924 C 172.293 -3.96358 -1.71826 0
M  V30 1925 C 171.428 -4.44021 -2.9158 0
M  V30 1926 C 170.467 -5.58637 -2.50181 0
M  V30 1927 N 169.604 -6.01091 -3.62814 0
M  V30 1928 H 174.444 -2.95961 -0.348035 0
M  V30 1929 H 171.981 -1.46226 -0.160106 0
M  V30 1930 H 173.939 -3.06945 -2.82561 0
M  V30 1931 H 172.569 -1.95801 -2.56636 0
M  V30 1932 H 171.621 -3.69939 -0.885947 0
M  V30 1933 H 172.933 -4.79504 -1.37394 0
M  V30 1934 H 172.087 -4.78522 -3.72963 0
M  V30 1935 H 170.826 -3.59803 -3.29231 0
M  V30 1936 H 169.831 -5.23751 -1.67228 0
M  V30 1937 H 171.056 -6.44613 -2.13659 0
M  V30 1938 H 169.002 -5.19817 -4.00158 0
M  V30 1939 H 168.919 -6.79066 -3.32273 0
M  V30 1940 H 170.187 -6.40227 -4.44668 0
M  V30 1941 N 174.416 0.165178 -1.56732 0
M  V30 1942 C 175.379 1.18822 -1.95995 0
M  V30 1943 C 176.379 1.3685 -0.84431 0
M  V30 1944 O 177.569 1.34152 -1.11126 0
M  V30 1945 C 174.701 2.5521 -2.26011 0
M  V30 1946 H 175.894 0.851825 -2.87548 0
M  V30 1947 H 173.447 0.407857 -1.50885 0
M  V30 1948 H 174.182 2.93852 -1.37191 0
M  V30 1949 H 173.967 2.43489 -3.07336 0
M  V30 1950 H 175.457 3.28927 -2.57288 0
M  V30 1951 N 175.894 1.51508 0.433938 0
M  V30 1952 C 176.824 1.76016 1.53429 0
M  V30 1953 C 177.805 0.610112 1.58782 0
M  V30 1954 O 178.99 0.853177 1.74455 0
M  V30 1955 C 176.12 1.88831 2.9148 0
M  V30 1956 C 175.074 3.04288 3.00987 0
M  V30 1957 C 174.4 3.0229 4.4105 0
M  V30 1958 C 175.7 4.44193 2.74754 0
M  V30 1959 H 177.394 2.68152 1.33171 0
M  V30 1960 H 174.94 1.29035 0.639214 0
M  V30 1961 H 176.893 2.04559 3.6842 0
M  V30 1962 H 175.617 0.933455 3.12976 0
M  V30 1963 H 174.276 2.8827 2.26486 0
M  V30 1964 H 173.924 2.04576 4.59519 0
M  V30 1965 H 173.624 3.79822 4.4834 0
M  V30 1966 H 175.148 3.20116 5.1996 0
M  V30 1967 H 176.562 4.60544 3.41426 0
M  V30 1968 H 174.959 5.23457 2.9345 0
M  V30 1969 H 176.029 4.53996 1.70339 0
M  V30 1970 N 177.372 -0.689602 1.41712 0
M  V30 1971 C 178.304 -1.815 1.39966 0
M  V30 1972 C 179.317 -1.59995 0.300917 0
M  V30 1973 O 180.506 -1.69387 0.563039 0
M  V30 1974 C 177.606 -3.18364 1.16179 0
M  V30 1975 C 176.779 -3.66847 2.38206 0
M  V30 1976 C 175.838 -4.82398 2.10186 0
M  V30 1977 O 174.864 -4.93706 2.83272 0
M  V30 1978 N 176.066 -5.70064 1.0958 0
M  V30 1979 H 178.831 -1.83488 2.36965 0
M  V30 1980 H 176.392 -0.872149 1.36401 0
M  V30 1981 H 178.384 -3.93301 0.953756 0
M  V30 1982 H 176.954 -3.11365 0.27756 0
M  V30 1983 H 176.174 -2.82751 2.74673 0
M  V30 1984 H 177.462 -3.95978 3.19498 0
M  V30 1985 H 176.86 -5.63565 0.491019 0
M  V30 1986 H 175.417 -6.44874 0.947656 0
M  V30 1987 N 178.85 -1.27639 -0.924453 0
M  V30 1988 C 180.097 -1.14167 -1.67249 0
M  V30 1989 C 180.425 0.311863 -1.91984 0
M  V30 1990 O 179.68 1.24425 -1.51053 0
M  V30 1991 C 179.979 -1.87407 -3.04325 0
M  V30 1992 C 179.645 -3.37249 -2.99289 0
M  V30 1993 C 178.307 -3.7812 -2.97622 0
M  V30 1994 C 180.659 -4.32845 -2.90336 0
M  V30 1995 C 177.987 -5.12944 -2.8479 0
M  V30 1996 C 180.339 -5.6773 -2.79045 0
M  V30 1997 C 179.003 -6.07889 -2.7573 0
M  V30 1998 H 178.273 -0.417766 -0.612007 0
M  V30 1999 H 180.92 -1.58286 -1.07786 0
M  V30 2000 H 179.225 -1.35805 -3.67511 0
M  V30 2001 H 180.922 -1.74408 -3.61086 0
M  V30 2002 H 177.512 -3.04748 -3.01374 0
M  V30 2003 H 181.696 -4.02239 -2.90719 0
M  V30 2004 H 176.952 -5.432 -2.80612 0
M  V30 2005 H 181.126 -6.41472 -2.71083 0
M  V30 2006 H 178.753 -7.12314 -2.65544 0
M  V30 2007 N 180.328 1.1314 -1.09713 0
M  V30 2008 C 181.258 2.20748 -0.761102 0
M  V30 2009 C 182.239 1.68061 0.262566 0
M  V30 2010 O 183.424 1.93765 0.129977 0
M  V30 2011 C 180.554 3.46812 -0.184054 0
M  V30 2012 C 179.508 4.12606 -1.13757 0
M  V30 2013 C 178.834 5.33031 -0.422083 0
M  V30 2014 C 180.134 4.59603 -2.48118 0
M  V30 2015 H 181.828 2.49113 -1.66082 0
M  V30 2016 H 179.374 1.19734 -0.799987 0
M  V30 2017 H 181.327 4.21353 0.0631215 0
M  V30 2018 H 180.051 3.17851 0.750868 0
M  V30 2019 H 178.71 3.40036 -1.37007 0
M  V30 2020 H 178.358 5.00335 0.517072 0
M  V30 2021 H 178.058 5.77999 -1.05788 0
M  V30 2022 H 179.582 6.10325 -0.183277 0
M  V30 2023 H 180.996 5.25552 -2.29059 0
M  V30 2024 H 179.393 5.15321 -3.07514 0
M  V30 2025 H 180.463 3.73971 -3.08665 0
M  V30 2026 N 181.806 0.884767 1.30421 0
M  V30 2027 C 182.753 0.349642 2.28136 0
M  V30 2028 C 183.723 -0.560061 1.56373 0
M  V30 2029 O 184.908 -0.488524 1.8444 0
M  V30 2030 C 182.048 -0.42999 3.42411 0
M  V30 2031 C 181.161 0.508907 4.28992 0
M  V30 2032 C 180.296 -0.286301 5.30428 0
M  V30 2033 C 179.335 0.648079 6.08659 0
M  V30 2034 N 178.472 -0.111792 7.02011 0
M  V30 2035 H 183.312 1.18807 2.73293 0
M  V30 2036 H 180.849 0.597231 1.3443 0
M  V30 2037 H 182.807 -0.897923 4.07423 0
M  V30 2038 H 181.437 -1.23299 2.98324 0
M  V30 2039 H 180.489 1.09533 3.64289 0
M  V30 2040 H 181.801 1.22475 4.8353 0
M  V30 2041 H 180.955 -0.816098 6.01186 0
M  V30 2042 H 179.694 -1.03536 4.76583 0
M  V30 2043 H 178.699 1.18951 5.36778 0
M  V30 2044 H 179.924 1.39623 6.64592 0
M  V30 2045 H 177.87 -0.843395 6.50556 0
M  V30 2046 H 177.787 0.544429 7.54037 0
M  V30 2047 H 179.055 -0.622339 7.77012 0
M  V30 2048 N 183.284 -1.43765 0.645699 0
M  V30 2049 C 184.194 -2.34544 -0.0512957 0
M  V30 2050 C 185.21 -1.53455 -0.82022 0
M  V30 2051 O 186.386 -1.86133 -0.769176 0
M  V30 2052 C 183.451 -3.31636 -1.01087 0
M  V30 2053 C 182.512 -4.2863 -0.239712 0
M  V30 2054 C 181.745 -5.21084 -1.15358 0
M  V30 2055 O 181.968 -5.1779 -2.39269 0
M  V30 2056 O 180.902 -5.98593 -0.630038 0
M  V30 2057 H 184.728 -2.95624 0.695718 0
M  V30 2058 H 182.313 -1.43781 0.405882 0
M  V30 2059 H 184.195 -3.9136 -1.56254 0
M  V30 2060 H 182.87 -2.73069 -1.73824 0
M  V30 2061 H 181.777 -3.72408 0.355356 0
M  V30 2062 H 183.11 -4.90157 0.447936 0
M  V30 2063 N 184.763 -0.387143 -1.52771 0
M  V30 2064 C 185.695 0.484089 -2.2403 0
M  V30 2065 C 186.708 1.02849 -1.26198 0
M  V30 2066 O 187.897 0.931186 -1.52286 0
M  V30 2067 C 184.997 1.68337 -2.94136 0
M  V30 2068 C 184.17 1.26672 -4.18656 0
M  V30 2069 C 183.229 2.33045 -4.7178 0
M  V30 2070 O 182.255 1.94541 -5.34923 0
M  V30 2071 N 183.457 3.64929 -4.5145 0
M  V30 2072 H 186.222 -0.126404 -2.99433 0
M  V30 2073 H 183.783 -0.213392 -1.60488 0
M  V30 2074 H 185.775 2.39019 -3.26577 0
M  V30 2075 H 184.345 2.20025 -2.22053 0
M  V30 2076 H 183.565 0.388878 -3.92277 0
M  V30 2077 H 184.853 0.964964 -4.99566 0
M  V30 2078 H 184.251 3.98974 -4.01044 0
M  V30 2079 H 182.808 4.31651 -4.88386 0
M  V30 2080 N 186.241 1.57166 -0.116904 0
M  V30 2081 C 187.657 1.5779 0.239693 0
M  V30 2082 C 187.857 1.1295 1.66867 0
M  V30 2083 O 186.913 0.81592 2.38954 0
M  V30 2084 C 188.226 3.00699 0.00828202 0
M  V30 2085 C 189.774 3.12912 0.0743438 0
M  V30 2086 C 190.249 4.57817 -0.129348 0
M  V30 2087 N 191.74 4.63139 -0.075247 0
M  V30 2088 C 192.475 5.73023 -0.207788 0
M  V30 2089 N 191.971 6.91665 -0.396382 0
M  V30 2090 N 193.764 5.61906 -0.14751 0
M  V30 2091 H 185.915 1.84615 -1.05029 0
M  V30 2092 H 188.178 0.85311 -0.41341 0
M  V30 2093 H 187.884 3.37784 -0.979531 0
M  V30 2094 H 187.758 3.69848 0.741077 0
M  V30 2095 H 190.145 2.75686 1.05268 0
M  V30 2096 H 190.226 2.4631 -0.690297 0
M  V30 2097 H 189.87 4.95742 -1.10465 0
M  V30 2098 H 189.8 5.22507 0.655253 0
M  V30 2099 H 192.291 3.7784 0.0670898 0
M  V30 2100 H 192.604 7.71255 -0.488437 0
M  V30 2101 H 190.949 6.93654 -0.432329 0
M  V30 2102 H 194.14 4.681 -0.00115036 0
M  V30 2103 H 194.313 6.47501 -0.254247 0
M  V30 2104 N 187.719 -0.156864 1.56817 0
M  V30 2105 C 188.965 -0.872416 1.83076 0
M  V30 2106 C 189.298 -1.81261 0.697001 0
M  V30 2107 O 188.573 -1.92171 -0.30008 0
M  V30 2108 C 188.856 -1.65551 3.19789 0
M  V30 2109 C 188.709 -0.737467 4.43713 0
M  V30 2110 C 190.028 -2.62012 3.53606 0
M  V30 2111 H 187.147 -0.315715 0.665953 0
M  V30 2112 H 189.789 -0.138004 1.89498 0
M  V30 2113 H 187.939 -2.28159 3.14445 0
M  V30 2114 H 189.611 -0.123143 4.61136 0
M  V30 2115 H 187.854 -0.0464067 4.33775 0
M  V30 2116 H 188.525 -1.32122 5.35955 0
M  V30 2117 H 191.001 -2.09525 3.59497 0
M  V30 2118 H 189.877 -3.13861 4.50314 0
M  V30 2119 H 190.138 -3.42902 2.79053 0
M  V30 2120 N 189.197 -1.51736 -0.425897 0
M  V30 2121 C 190.147 -1.70258 -1.51645 0
M  V30 2122 C 191.131 -0.556488 -1.5097 0
M  V30 2123 O 192.323 -0.812879 -1.5723 0
M  V30 2124 C 189.452 -1.84143 -2.89735 0
M  V30 2125 C 188.538 -3.04572 -2.95122 0
M  V30 2126 N 188.929 -4.2756 -2.70233 0
M  V30 2127 C 187.227 -3.04061 -3.26286 0
M  V30 2128 C 187.928 -5.08908 -2.81757 0
M  V30 2129 N 186.904 -4.43797 -3.13919 0
M  V30 2130 H 190.706 -2.63004 -1.31172 0
M  V30 2131 H 188.22 -1.4954 -0.633375 0
M  V30 2132 H 190.217 -1.95525 -3.68206 0
M  V30 2133 H 188.877 -0.925857 -3.1122 0
M  V30 2134 H 189.888 -4.56315 -2.44943 0
M  V30 2135 H 186.565 -2.22179 -3.53473 0
M  V30 2136 H 187.955 -6.16843 -2.66372 0
M  V30 2137 N 190.675 0.682077 -1.42076 0
M  V30 2138 C 191.605 1.80796 -1.47767 0
M  V30 2139 C 192.586 1.6677 -0.334954 0
M  V30 2140 O 193.771 1.863 -0.548264 0
M  V30 2141 C 190.901 3.19038 -1.37229 0
M  V30 2142 C 189.855 3.47789 -2.49453 0
M  V30 2143 C 189.181 4.8553 -2.23975 0
M  V30 2144 C 190.481 3.45411 -3.91776 0
M  V30 2145 H 192.175 1.7629 -2.41997 0
M  V30 2146 H 189.721 0.846721 -1.16476 0
M  V30 2147 H 191.674 3.97528 -1.39821 0
M  V30 2148 H 190.398 3.24204 -0.394907 0
M  V30 2149 H 189.057 2.71657 -2.46166 0
M  V30 2150 H 188.705 4.87337 -1.24547 0
M  V30 2151 H 188.405 5.0573 -2.99184 0
M  V30 2152 H 189.929 5.66312 -2.28304 0
M  V30 2153 H 191.343 4.13882 -3.96705 0
M  V30 2154 H 189.74 3.77145 -4.66778 0
M  V30 2155 H 190.81 2.44122 -4.18966 0
M  V30 2156 N 192.153 1.28127 0.917671 0
M  V30 2157 C 193.063 1.13556 2.05286 0
M  V30 2158 C 194.079 0.0630914 1.73886 0
M  V30 2159 O 195.255 0.271598 1.9956 0
M  V30 2160 C 192.32 0.794676 3.3747 0
M  V30 2161 C 191.381 1.94909 3.82504 0
M  V30 2162 C 190.614 1.62437 5.0838 0
M  V30 2163 O 190.837 0.536905 5.67867 0
M  V30 2164 O 189.771 2.46677 5.4903 0
M  V30 2165 H 193.597 2.08844 2.20495 0
M  V30 2166 H 191.182 1.07409 1.03845 0
M  V30 2167 H 193.064 0.618344 4.16839 0
M  V30 2168 H 191.739 -0.128581 3.23445 0
M  V30 2169 H 190.646 2.18055 3.03978 0
M  V30 2170 H 191.979 2.85291 4.01086 0
M  V30 2171 N 193.631 -1.12557 1.10312 0
M  V30 2172 C 194.579 -2.20325 0.745629 0
M  V30 2173 C 195.573 -1.67429 -0.25763 0
M  V30 2174 O 196.779 -1.79612 -0.118132 0
M  V30 2175 H 193.154 -0.718118 0.223182 0
M  V30 2176 H 195.125 -2.47733 1.66346 0
M  V30 2177 C 193.874 -3.47168 0.192262 0
M  V30 2178 H 193.197 -3.88215 0.955475 0
M  V30 2179 H 194.637 -4.23995 -0.0198274 0
M  V30 2180 C 193.096 -3.19298 -1.07472 0
M  V30 2181 O 193.626 -3.3891 -2.15645 0
M  V30 2182 N 191.832 -2.73113 -0.992847 0
M  V30 2183 H 191.379 -2.57354 -0.112474 0
M  V30 2184 H 191.337 -2.54842 -1.84127 0
M  V30 2185 N 195.109 -0.891671 -1.2995 0
M  V30 2186 C 196.042 -0.307994 -2.26112 0
M  V30 2187 C 197.02 0.575262 -1.52084 0
M  V30 2188 O 198.204 0.523864 -1.81074 0
M  V30 2189 C 195.331 0.561734 -3.34009 0
M  V30 2190 C 194.377 -0.253107 -4.25748 0
M  V30 2191 S 195.21 -1.64572 -5.09584 0
M  V30 2192 C 196.366 -0.782699 -6.20987 0
M  V30 2193 H 196.599 -1.12309 -2.75271 0
M  V30 2194 H 194.132 -0.691509 -1.38049 0
M  V30 2195 H 196.09 1.05777 -3.96638 0
M  V30 2196 H 194.751 1.35099 -2.83561 0
M  V30 2197 H 193.944 0.410908 -5.02322 0
M  V30 2198 H 193.546 -0.682004 -3.67729 0
M  V30 2199 H 195.838 -0.00257476 -6.775 0
M  V30 2200 H 196.781 -1.52026 -6.91588 0
M  V30 2201 H 197.189 -0.340638 -5.63471 0
M  V30 2202 N 196.587 1.43421 -0.653314 0
M  V30 2203 C 197.835 2.01414 -0.166415 0
M  V30 2204 C 198.156 1.51803 1.22397 0
M  V30 2205 O 197.426 0.730693 1.81763 0
M  V30 2206 H 196.006 0.744703 -0.0585319 0
M  V30 2207 H 198.668 1.75629 -0.845003 0
M  V30 2208 H 197.764 3.11734 -0.151111 0
M  V30 2209 N 198.065 0.39524 1.52563 0
M  V30 2210 C 199.29 -0.187456 2.06551 0
M  V30 2211 C 199.715 -1.39249 1.26457 0
M  V30 2212 O 199.073 -1.78947 0.291151 0
M  V30 2213 C 199.121 -0.529985 3.56684 0
M  V30 2214 O 198.225 -1.62307 3.79118 0
M  V30 2215 H 197.566 -0.0202537 0.663691 0
M  V30 2216 H 200.096 0.564426 1.96661 0
M  V30 2217 H 200.106 -0.792598 4.00227 0
M  V30 2218 H 198.781 0.350987 4.14416 0
M  V30 2219 H 197.358 -1.3537 3.47461 0
M  V30 2220 N 199.544 -1.57102 0.125237 0
M  V30 2221 C 200.494 -2.12202 -0.833936 0
M  V30 2222 C 201.478 -1.04433 -1.22403 0
M  V30 2223 O 202.67 -1.30655 -1.19408 0
M  V30 2224 C 199.799 -2.72994 -2.08157 0
M  V30 2225 C 198.885 -3.87852 -1.71556 0
M  V30 2226 N 199.276 -4.9464 -1.05662 0
M  V30 2227 C 197.574 -3.98153 -2.00973 0
M  V30 2228 C 198.275 -5.74953 -0.883376 0
M  V30 2229 N 197.251 -5.24985 -1.41036 0
M  V30 2230 H 201.053 -2.92141 -0.321035 0
M  V30 2231 H 198.567 -1.62217 -0.0770315 0
M  V30 2232 H 200.564 -3.10816 -2.77847 0
M  V30 2233 H 199.224 -1.9452 -2.59985 0
M  V30 2234 H 200.235 -5.12872 -0.719878 0
M  V30 2235 H 196.912 -3.30728 -2.54804 0
M  V30 2236 H 198.302 -6.70904 -0.365675 0
M  V30 2237 N 201.022 0.148545 -1.56898 0
M  V30 2238 C 202.299 0.890019 -1.74178 0
M  V30 2239 C 202.679 1.99407 -0.692839 0
M  V30 2240 O 202.027 2.26671 0.288505 0
M  V30 2241 C 202.237 1.43389 -3.18183 0
M  V30 2242 C 203.585 1.89791 -3.79822 0
M  V30 2243 O 204.609 1.53134 -3.21603 0
M  V30 2244 O 203.468 2.57387 -4.82093 0
M  V30 2245 H 200.562 0.420496 -0.712118 0
M  V30 2246 H 203.108 0.134591 -1.69165 0
M  V30 2247 H 201.88 0.640383 -3.86024 0
M  V30 2248 H 201.503 2.25287 -3.27615 0
M  V30 2249 N 202.5 1.5196 0.417844 0
M  V30 2250 C 203.749 1.6482 1.16264 0
M  V30 2251 C 204.062 0.379886 1.91876 0
M  V30 2252 O 205.268 0.388154 2.68711 0
M  V30 2253 C 203.724 2.91161 2.1155 0
M  V30 2254 C 203.332 4.25068 1.41495 0
M  V30 2255 C 205.076 3.13383 2.86341 0
M  V30 2256 C 202.983 5.42541 2.35379 0
M  V30 2257 H 201.913 0.613954 0.437694 0
M  V30 2258 H 204.564 1.78442 0.427871 0
M  V30 2259 H 202.946 2.71218 2.88543 0
M  V30 2260 H 204.12 4.55463 0.699263 0
M  V30 2261 H 202.435 4.0888 0.787792 0
M  V30 2262 H 205.032 3.98324 3.5671 0
M  V30 2263 H 205.375 2.27256 3.48798 0
M  V30 2264 H 205.908 3.33757 2.1645 0
M  V30 2265 H 202.647 6.30987 1.77582 0
M  V30 2266 H 202.167 5.16497 3.04945 0
M  V30 2267 H 203.846 5.75272 2.96093 0
M  V30 2268 N 203.978 -0.674533 1.42435 0
M  V30 2269 C 205.224 -1.43671 1.43131 0
M  V30 2270 C 205.557 -1.94142 0.0476021 0
M  V30 2271 O 204.832 -1.70924 -0.928188 0
M  V30 2272 C 205.115 -2.63355 2.45594 0
M  V30 2273 C 204.968 -2.18514 3.93156 0
M  V30 2274 C 206.287 -3.65571 2.45043 0
M  V30 2275 H 203.406 -0.521077 0.521198 0
M  V30 2276 H 206.048 -0.766551 1.7385 0
M  V30 2277 H 204.198 -3.2053 2.19528 0
M  V30 2278 H 205.87 -1.66504 4.30202 0
M  V30 2279 H 204.113 -1.50086 4.07009 0
M  V30 2280 H 204.784 -3.04484 4.60428 0
M  V30 2281 H 207.26 -3.18113 2.68223 0
M  V30 2282 H 206.136 -4.46893 3.18713 0
M  V30 2283 H 206.397 -4.16716 1.47649 0
M  V30 2284 N 205.456 -1.28612 -0.910864 0
M  V30 2285 C 206.733 -1.06632 -1.63979 0
M  V30 2286 C 207.113 0.393351 -2.07403 0
M  V30 2287 O 206.461 1.37999 -1.82122 0
M  V30 2288 C 206.671 -2.0436 -2.8291 0
M  V30 2289 C 208.019 -2.34666 -3.5386 0
M  V30 2290 O 209.043 -2.02467 -2.93062 0
M  V30 2291 O 207.902 -2.89631 -4.63439 0
M  V30 2292 H 204.996 -0.407737 -0.7195 0
M  V30 2293 H 207.542 -1.39942 -0.959914 0
M  V30 2294 H 206.314 -3.02727 -2.47936 0
M  V30 2295 H 205.937 -1.71714 -3.58609 0
M  V30 2296 N 206.934 1.1197 -1.10907 0
M  V30 2297 C 208.182 1.83225 -0.852819 0
M  V30 2298 C 208.503 1.84769 0.623341 0
M  V30 2299 O 207.773 1.3143 1.45269 0
M  V30 2300 H 206.353 0.67849 -0.312507 0
M  V30 2301 H 209.015 1.3556 -1.40033 0
M  V30 2302 H 208.111 2.87265 -1.22005 0
M  V30 2303 N 208.412 0.89855 1.29475 0
M  V30 2304 C 209.36 0.365253 2.29714 0
M  V30 2305 C 210.354 -0.534993 1.6073 0
M  V30 2306 O 211.56 -0.417921 1.75081 0
M  V30 2307 H 207.935 0.0994853 0.74539 0
M  V30 2308 H 209.906 1.22406 2.72138 0
M  V30 2309 C 208.655 -0.393159 3.4547 0
M  V30 2310 H 207.978 0.290332 3.98744 0
M  V30 2311 H 209.418 -0.731189 4.17648 0
M  V30 2312 C 207.877 -1.59539 2.9673 0
M  V30 2313 O 208.407 -2.69469 2.97908 0
M  V30 2314 N 206.613 -1.43716 2.52575 0
M  V30 2315 H 206.16 -0.542828 2.51816 0
M  V30 2316 H 206.118 -2.24288 2.20323 0
M  V30 2317 N 209.89 -1.43072 0.660911 0
M  V30 2318 C 210.84 -2.27948 -0.04847 0
M  V30 2319 C 211.824 -1.40325 -0.787246 0
M  V30 2320 O 213.016 -1.63893 -0.668446 0
M  V30 2321 C 210.145 -3.28143 -1.00881 0
M  V30 2322 C 209.231 -4.23252 -0.268108 0
M  V30 2323 N 209.622 -5.00656 0.719528 0
M  V30 2324 C 207.92 -4.43092 -0.508493 0
M  V30 2325 C 208.621 -5.70019 1.15988 0
M  V30 2326 N 207.597 -5.41364 0.492584 0
M  V30 2327 H 211.399 -2.85213 0.709279 0
M  V30 2328 H 208.913 -1.54869 0.488822 0
M  V30 2329 H 210.91 -3.87736 -1.53188 0
M  V30 2330 H 209.57 -2.7244 -1.76654 0
M  V30 2331 H 210.581 -5.06115 1.09855 0
M  V30 2332 H 207.258 -3.98449 -1.24679 0
M  V30 2333 H 208.648 -6.4214 1.97751 0
M  V30 2334 N 211.368 -0.403325 -1.52352 0
M  V30 2335 C 212.784 -0.0539281 -1.59509 0
M  V30 2336 C 212.984 1.43307 -1.41652 0
M  V30 2337 O 212.04 2.19924 -1.24056 0
M  V30 2338 C 213.353 -0.543654 -2.95745 0
M  V30 2339 C 214.901 -0.501125 -3.08962 0
M  V30 2340 C 215.376 -0.967267 -4.47669 0
M  V30 2341 N 216.867 -0.923849 -4.53893 0
M  V30 2342 C 217.602 -1.25578 -5.5948 0
M  V30 2343 N 217.098 -1.65889 -6.72646 0
M  V30 2344 N 218.891 -1.17613 -5.49658 0
M  V30 2345 H 211.042 -1.37123 -1.62206 0
M  V30 2346 H 213.305 -0.56294 -0.76276 0
M  V30 2347 H 213.011 -1.58275 -3.14073 0
M  V30 2348 H 212.885 0.0498042 -3.77167 0
M  V30 2349 H 215.272 0.528909 -2.90321 0
M  V30 2350 H 215.353 -1.13056 -2.2946 0
M  V30 2351 H 214.997 -1.9956 -4.67053 0
M  V30 2352 H 214.927 -0.314698 -5.25659 0
M  V30 2353 H 217.418 -0.627403 -3.72655 0
M  V30 2354 H 217.731 -1.89543 -7.49195 0
M  V30 2355 H 216.076 -1.69787 -6.73942 0
M  V30 2356 H 219.267 -0.860115 -4.6013 0
M  V30 2357 H 219.44 -1.43812 -6.3184 0
M  V30 2358 N 212.846 1.57033 -0.133567 0
M  V30 2359 C 213.776 2.1909 0.807567 0
M  V30 2360 C 214.757 1.13517 1.26681 0
M  V30 2361 O 215.942 1.41809 1.32679 0
M  V30 2362 C 213.072 2.80188 2.05212 0
M  V30 2363 C 212.026 3.91471 1.73015 0
M  V30 2364 C 211.352 4.39443 3.04622 0
M  V30 2365 C 212.652 5.12886 0.987168 0
M  V30 2366 H 214.346 2.97988 0.290403 0
M  V30 2367 H 211.892 1.43335 0.138239 0
M  V30 2368 H 213.845 3.22264 2.71521 0
M  V30 2369 H 212.569 1.98601 2.59278 0
M  V30 2370 H 211.228 3.49993 1.0909 0
M  V30 2371 H 210.876 3.54695 3.56651 0
M  V30 2372 H 210.576 5.14495 2.83847 0
M  V30 2373 H 212.1 4.8418 3.72024 0
M  V30 2374 H 213.514 5.51891 1.55208 0
M  V30 2375 H 211.911 5.93615 0.87985 0
M  V30 2376 H 212.981 4.84894 -0.0235286 0
M  V30 2377 N 214.325 -0.140222 1.56975 0
M  V30 2378 C 215.553 -0.866437 1.87884 0
M  V30 2379 C 215.968 -1.74428 0.722517 0
M  V30 2380 O 215.325 -1.79891 -0.30749 0
M  V30 2381 C 215.376 -1.71753 3.18093 0
M  V30 2382 O 215.097 -0.875056 4.29272 0
M  V30 2383 C 216.598 -2.55074 3.62563 0
M  V30 2384 H 213.818 -0.25019 0.622612 0
M  V30 2385 H 216.362 -0.130977 2.0408 0
M  V30 2386 H 214.517 -2.40598 3.03631 0
M  V30 2387 H 214.931 -1.46002 5.03769 0
M  V30 2388 H 216.405 -3.10356 4.5649 0
M  V30 2389 H 216.882 -3.31434 2.88181 0
M  V30 2390 H 217.488 -1.91509 3.79743 0
M  V30 2391 N 215.803 -1.52179 -0.40978 0
M  V30 2392 C 216.733 -1.78435 -1.5061 0
M  V30 2393 C 217.714 -0.635295 -1.57791 0
M  V30 2394 O 218.899 -0.880823 -1.73076 0
M  V30 2395 C 216.029 -1.93444 -2.88439 0
M  V30 2396 C 214.983 -3.09038 -2.96108 0
M  V30 2397 C 214.309 -3.09268 -4.36185 0
M  V30 2398 C 215.609 -4.48508 -2.67652 0
M  V30 2399 H 217.303 -2.70237 -1.28889 0
M  V30 2400 H 214.849 -1.30036 -0.618605 0
M  V30 2401 H 216.802 -2.10394 -3.65119 0
M  V30 2402 H 215.526 -0.983129 -3.11452 0
M  V30 2403 H 214.185 -2.91837 -2.21872 0
M  V30 2404 H 213.833 -2.11861 -4.56206 0
M  V30 2405 H 213.533 -3.86907 -4.42241 0
M  V30 2406 H 215.057 -3.28348 -5.14801 0
M  V30 2407 H 216.471 -4.65918 -3.34056 0
M  V30 2408 H 214.868 -5.28059 -2.85085 0
M  V30 2409 H 215.938 -4.56649 -1.63095 0
M  V30 2410 N 217.281 0.66697 -1.42791 0
M  V30 2411 C 218.529 1.42417 -1.43394 0
M  V30 2412 C 218.85 1.94925 -0.0542373 0
M  V30 2413 O 218.12 1.73564 0.908415 0
M  V30 2414 H 216.7 0.528515 -0.527902 0
M  V30 2415 H 219.362 0.787562 -1.78279 0
M  V30 2416 H 218.458 2.27333 -2.13837 0
M  V30 2417 N 218.759 1.29093 0.90403 0
M  V30 2418 C 219.689 1.16401 2.02418 0
M  V30 2419 C 220.67 0.0593085 1.69997 0
M  V30 2420 O 221.855 0.238021 1.92736 0
M  V30 2421 C 218.985 0.835233 3.37107 0
M  V30 2422 C 217.939 1.89578 3.83724 0
M  V30 2423 C 217.265 1.42041 5.15489 0
M  V30 2424 C 218.565 3.30394 4.04521 0
M  V30 2425 H 220.259 2.10109 2.13295 0
M  V30 2426 H 217.805 1.01157 1.02486 0
M  V30 2427 H 219.758 0.733169 4.14973 0
M  V30 2428 H 218.482 -0.137543 3.2631 0
M  V30 2429 H 217.141 1.98715 3.08071 0
M  V30 2430 H 216.789 0.436426 5.01103 0
M  V30 2431 H 216.489 2.12964 5.4765 0
M  V30 2432 H 218.013 1.33176 5.959 0
M  V30 2433 H 219.427 3.24123 4.72882 0
M  V30 2434 H 217.824 3.99237 4.48029 0
M  V30 2435 H 218.894 3.73692 3.09002 0
M  V30 2436 N 220.237 -1.11381 1.11499 0
M  V30 2437 C 221.486 -1.82494 0.858993 0
M  V30 2438 C 221.799 -1.85605 -0.617278 0
M  V30 2439 O 223.005 -2.52824 -0.989552 0
M  V30 2440 C 221.461 -3.27745 1.48699 0
M  V30 2441 C 221.069 -3.32961 2.99735 0
M  V30 2442 C 222.813 -4.03754 1.31085 0
M  V30 2443 C 220.72 -4.72612 3.55516 0
M  V30 2444 H 219.65 -0.683802 0.317696 0
M  V30 2445 H 222.301 -1.25331 1.34031 0
M  V30 2446 H 220.683 -3.84844 0.933339 0
M  V30 2447 H 221.857 -2.85741 3.61509 0
M  V30 2448 H 220.172 -2.70433 3.16631 0
M  V30 2449 H 222.769 -5.06891 1.70192 0
M  V30 2450 H 223.112 -4.15527 0.253496 0
M  V30 2451 H 223.645 -3.53043 1.83318 0
M  V30 2452 H 220.384 -4.66036 4.60967 0
M  V30 2453 H 219.904 -5.2024 2.98513 0
M  V30 2454 H 221.583 -5.4157 3.53992 0
M  V30 2455 N 221.715 -0.905404 -1.28997 0
M  V30 2456 C 222.961 -0.544465 -1.95977 0
M  V30 2457 C 223.316 0.90041 -1.70031 0
M  V30 2458 O 222.609 1.63064 -1.00601 0
M  V30 2459 C 222.803 -0.779906 -3.48787 0
M  V30 2460 C 222.632 -2.24612 -3.89589 0
M  V30 2461 C 221.402 -2.89464 -4.14172 0
M  V30 2462 C 223.6 -3.22182 -4.00878 0
M  V30 2463 N 221.582 -4.26469 -4.41585 0
M  V30 2464 C 222.953 -4.44323 -4.32409 0
M  V30 2465 C 225.008 -3.17694 -3.83373 0
M  V30 2466 C 223.711 -5.62546 -4.48258 0
M  V30 2467 C 225.737 -4.35208 -4.00435 0
M  V30 2468 C 225.099 -5.56121 -4.3233 0
M  V30 2469 H 221.198 -0.248948 -0.741316 0
M  V30 2470 H 223.782 -1.1674 -1.5582 0
M  V30 2471 H 221.953 -0.186308 -3.87953 0
M  V30 2472 H 223.685 -0.383833 -4.02876 0
M  V30 2473 H 220.44 -2.40232 -4.08149 0
M  V30 2474 H 220.864 -4.97283 -4.5939 0
M  V30 2475 H 225.506 -2.25297 -3.57773 0
M  V30 2476 H 223.224 -6.55429 -4.72692 0
M  V30 2477 H 226.81 -4.33228 -3.88336 0
M  V30 2478 H 225.69 -6.45537 -4.45255 0
M  V30 2479 N 223.193 1.4272 -0.668489 0
M  V30 2480 C 224.421 2.05966 -0.196348 0
M  V30 2481 C 224.836 1.50191 1.14403 0
M  V30 2482 O 224.193 0.639208 1.7094 0
M  V30 2483 C 224.244 3.61314 -0.115815 0
M  V30 2484 O 223.965 4.1502 -1.40322 0
M  V30 2485 C 225.466 4.41663 0.380579 0
M  V30 2486 H 222.686 0.663954 -0.0969829 0
M  V30 2487 H 225.23 1.82966 -0.913446 0
M  V30 2488 H 223.385 3.83448 0.551931 0
M  V30 2489 H 223.799 5.08832 -1.27243 0
M  V30 2490 H 225.273 5.5065 0.385848 0
M  V30 2491 H 225.75 4.15792 1.41471 0
M  V30 2492 H 226.356 4.24534 -0.255209 0
M  V30 2493 N 224.671 0.411399 1.52136 0
M  V30 2494 C 225.92 -0.165009 2.01024 0
M  V30 2495 C 226.233 -1.4603 1.30133 0
M  V30 2496 O 227.439 -2.1181 1.69849 0
M  V30 2497 C 225.895 -0.344618 3.58246 0
M  V30 2498 C 225.503 0.938716 4.38055 0
M  V30 2499 C 227.247 -0.876195 4.15359 0
M  V30 2500 C 225.154 0.726172 5.86925 0
M  V30 2501 H 224.084 -0.0654407 0.751155 0
M  V30 2502 H 226.735 0.537192 1.75461 0
M  V30 2503 H 225.117 -1.10921 3.80148 0
M  V30 2504 H 226.291 1.70963 4.27912 0
M  V30 2505 H 224.606 1.39688 3.92271 0
M  V30 2506 H 227.203 -1.05128 5.24263 0
M  V30 2507 H 227.546 -1.85152 3.7286 0
M  V30 2508 H 228.079 -0.170607 3.97434 0
M  V30 2509 H 224.818 1.67312 6.33788 0
M  V30 2510 H 224.338 -0.00540283 5.998 0
M  V30 2511 H 226.017 0.369231 6.45946 0
M  V30 2512 N 226.149 -1.5696 0.141893 0
M  V30 2513 C 227.398 -1.95135 -0.510427 0
M  V30 2514 C 227.711 -1.02896 -1.66348 0
M  V30 2515 O 228.917 -1.30629 -2.38009 0
M  V30 2516 C 227.373 -3.46876 -0.959427 0
M  V30 2517 C 226.981 -4.47691 0.166419 0
M  V30 2518 C 228.725 -3.93927 -1.58183 0
M  V30 2519 C 226.632 -5.90636 -0.300565 0
M  V30 2520 H 225.562 -0.728494 -0.194454 0
M  V30 2521 H 228.213 -1.8211 0.22542 0
M  V30 2522 H 226.595 -3.55215 -1.75038 0
M  V30 2523 H 227.769 -4.51043 0.94325 0
M  V30 2524 H 226.084 -4.10527 0.696905 0
M  V30 2525 H 228.681 -4.98158 -1.94275 0
M  V30 2526 H 229.024 -3.3519 -2.46888 0
M  V30 2527 H 229.557 -3.88484 -0.855863 0
M  V30 2528 H 226.296 -6.5318 0.550989 0
M  V30 2529 H 225.816 -5.90655 -1.04338 0
M  V30 2530 H 227.495 -6.42588 -0.754265 0
M  V30 2531 N 227.627 0.131896 -1.57047 0
M  V30 2532 C 228.557 1.16384 -2.02428 0
M  V30 2533 C 229.538 1.43936 -0.90644 0
M  V30 2534 O 230.723 1.54599 -1.17528 0
M  V30 2535 C 227.853 2.49328 -2.4177 0
M  V30 2536 C 226.807 2.36266 -3.56879 0
M  V30 2537 C 226.133 3.74057 -3.8208 0
M  V30 2538 C 227.433 1.834 -4.89042 0
M  V30 2539 H 229.127 0.786433 -2.88887 0
M  V30 2540 H 226.673 0.376855 -1.38981 0
M  V30 2541 H 228.626 3.21759 -2.7212 0
M  V30 2542 H 227.35 2.88934 -1.52266 0
M  V30 2543 H 226.009 1.66286 -3.26718 0
M  V30 2544 H 225.657 4.11125 -2.89803 0
M  V30 2545 H 225.357 3.66174 -4.59554 0
M  V30 2546 H 226.881 4.48012 -4.1487 0
M  V30 2547 H 228.295 2.45636 -5.18011 0
M  V30 2548 H 226.692 1.8637 -5.70426 0
M  V30 2549 H 227.762 0.790662 -4.7841 0
M  V30 2550 N 229.106 1.52395 0.401703 0
M  V30 2551 C 230.522 1.41363 0.740864 0
M  V30 2552 C 230.722 0.523982 1.94568 0
M  V30 2553 O 229.778 -0.00741204 2.52499 0
M  V30 2554 C 231.091 2.84011 0.987847 0
M  V30 2555 C 232.639 2.93404 1.09011 0
M  V30 2556 C 233.114 4.37036 1.3698 0
M  V30 2557 N 234.605 4.40304 1.43829 0
M  V30 2558 C 235.34 5.48508 1.67112 0
M  V30 2559 N 234.836 6.66819 1.87949 0
M  V30 2560 N 236.629 5.36034 1.69187 0
M  V30 2561 H 228.78 2.08765 -0.391262 0
M  V30 2562 H 231.043 0.941265 -0.112798 0
M  V30 2563 H 230.749 3.51265 0.174835 0
M  V30 2564 H 230.623 3.25502 1.906 0
M  V30 2565 H 233.01 2.26325 1.8937 0
M  V30 2566 H 233.091 2.55359 0.15015 0
M  V30 2567 H 232.735 5.04676 0.571353 0
M  V30 2568 H 232.665 4.72623 2.3224 0
M  V30 2569 H 235.156 3.55024 1.29486 0
M  V30 2570 H 235.469 7.45063 2.05185 0
M  V30 2571 H 233.814 6.6987 1.85199 0
M  V30 2572 H 237.005 4.42579 1.52451 0
M  V30 2573 H 237.178 6.20434 1.86993 0
M  V30 2574 N 230.584 -0.659388 1.43143 0
M  V30 2575 C 231.831 -1.41935 1.44433 0
M  V30 2576 C 232.159 -1.94387 0.0663522 0
M  V30 2577 O 231.414 -1.72314 -0.927706 0
M  V30 2578 C 231.713 -2.62206 2.42864 0
M  V30 2579 C 231.379 -2.28208 3.88886 0
M  V30 2580 C 230.041 -2.18647 4.28657 0
M  V30 2581 C 232.393 -2.00887 4.8093 0
M  V30 2582 C 229.721 -1.79914 5.58433 0
M  V30 2583 C 232.073 -1.63653 6.11065 0
M  V30 2584 C 230.737 -1.52614 6.49819 0
M  V30 2585 H 230.007 -0.519376 0.528517 0
M  V30 2586 H 232.654 -0.750453 1.76183 0
M  V30 2587 H 230.959 -3.34199 2.04495 0
M  V30 2588 H 232.656 -3.2041 2.41119 0
M  V30 2589 H 229.246 -2.36557 3.57406 0
M  V30 2590 H 233.43 -2.07198 4.5098 0
M  V30 2591 H 228.686 -1.69948 5.87305 0
M  V30 2592 H 232.86 -1.41543 6.81864 0
M  V30 2593 H 230.487 -1.22371 7.50286 0
M  V30 2594 N 232.062 -1.29571 -0.897171 0
M  V30 2595 C 232.994 -1.10724 -2.00681 0
M  V30 2596 C 234.007 -0.0540026 -1.6271 0
M  V30 2597 O 235.196 -0.298783 -1.75982 0
M  V30 2598 C 232.296 -0.663912 -3.32333 0
M  V30 2599 C 231.469 -1.79622 -3.98816 0
M  V30 2600 C 230.528 -1.34349 -5.0876 0
M  V30 2601 O 229.554 -2.04864 -5.31055 0
M  V30 2602 N 230.756 -0.215764 -5.80099 0
M  V30 2603 H 233.521 -2.06291 -2.17403 0
M  V30 2604 H 231.082 -1.21544 -1.06951 0
M  V30 2605 H 233.074 -0.344295 -4.03233 0
M  V30 2606 H 231.644 0.199375 -3.11964 0
M  V30 2607 H 230.864 -2.28459 -3.21248 0
M  V30 2608 H 232.152 -2.55535 -4.39976 0
M  V30 2609 H 231.55 0.372091 -5.64475 0
M  V30 2610 H 230.107 0.0444707 -6.51785 0
M  V30 2611 N 233.54 1.10788 -1.12088 0
M  V30 2612 C 234.789 1.82036 -0.868659 0
M  V30 2613 C 235.102 1.85929 0.607426 0
M  V30 2614 O 236.308 2.53346 0.97613 0
M  V30 2615 C 234.764 3.26951 -1.50435 0
M  V30 2616 C 234.372 3.31367 -3.01496 0
M  V30 2617 C 236.116 4.03053 -1.33225 0
M  V30 2618 C 234.023 4.7072 -3.58017 0
M  V30 2619 H 232.953 0.682108 -0.321318 0
M  V30 2620 H 235.604 1.24618 -1.34694 0
M  V30 2621 H 233.986 3.84343 -0.953735 0
M  V30 2622 H 235.16 2.83819 -3.6302 0
M  V30 2623 H 233.475 2.6875 -3.18061 0
M  V30 2624 H 236.072 5.05981 -1.72878 0
M  V30 2625 H 236.415 4.15387 -0.275529 0
M  V30 2626 H 236.948 3.52066 -1.85188 0
M  V30 2627 H 233.687 4.63585 -4.63432 0
M  V30 2628 H 233.207 5.1865 -3.01268 0
M  V30 2629 H 234.886 5.39685 -3.56859 0
M  V30 2630 N 235.018 0.912232 1.28515 0
M  V30 2631 C 235.95 0.35676 2.26406 0
M  V30 2632 C 236.963 -0.503933 1.54804 0
M  V30 2633 O 238.152 -0.319059 1.75625 0
M  V30 2634 C 235.252 -0.508825 3.35058 0
M  V30 2635 C 234.425 0.329007 4.36161 0
M  V30 2636 C 233.484 -0.471422 5.24084 0
M  V30 2637 O 232.51 0.115482 5.69083 0
M  V30 2638 N 233.712 -1.77479 5.52704 0
M  V30 2639 H 236.477 1.19818 2.74707 0
M  V30 2640 H 234.038 0.778022 1.4198 0
M  V30 2641 H 236.03 -1.051 3.90815 0
M  V30 2642 H 234.6 -1.25095 2.86478 0
M  V30 2643 H 233.82 1.05256 3.79888 0
M  V30 2644 H 235.108 0.90234 5.00735 0
M  V30 2645 H 234.506 -2.27417 5.17975 0
M  V30 2646 H 233.063 -2.26382 6.11224 0
M  V30 2647 N 236.496 -1.42363 0.676048 0
M  V30 2648 C 237.773 -1.95183 0.127726 0
M  V30 2649 C 238.153 -1.61641 -1.35777 0
M  V30 2650 O 237.501 -0.913216 -2.09458 0
M  V30 2651 C 237.711 -3.46721 0.398199 0
M  V30 2652 C 239.059 -4.23427 0.315383 0
M  V30 2653 O 240.083 -3.54649 0.332016 0
M  V30 2654 O 238.942 -5.45888 0.25865 0
M  V30 2655 H 236.036 -0.826992 0.00359427 0
M  V30 2656 H 238.582 -1.52184 0.750864 0
M  V30 2657 H 237.354 -3.64344 1.4272 0
M  V30 2658 H 236.977 -3.96769 -0.256885 0
M  V30 2659 N 237.974 -0.419461 -1.51915 0
M  V30 2660 C 239.223 0.154346 -2.01109 0
M  V30 2661 C 239.536 1.45338 -1.30905 0
M  V30 2662 O 240.742 2.10906 -1.7097 0
M  V30 2663 C 239.198 0.325615 -3.58424 0
M  V30 2664 C 238.806 -0.961934 -4.37551 0
M  V30 2665 C 240.55 0.854155 -4.15818 0
M  V30 2666 C 238.457 -0.757287 -5.86531 0
M  V30 2667 H 237.387 0.0614563 -0.751491 0
M  V30 2668 H 240.038 -0.54649 -1.75173 0
M  V30 2669 H 238.42 1.08903 -3.80731 0
M  V30 2670 H 239.594 -1.7323 -4.26999 0
M  V30 2671 H 237.909 -1.41766 -3.91524 0
M  V30 2672 H 240.506 1.02346 -5.24814 0
M  V30 2673 H 240.849 1.83172 -3.73837 0
M  V30 2674 H 241.382 0.149528 -3.97519 0
M  V30 2675 H 238.121 -1.70671 -6.32892 0
M  V30 2676 H 237.641 -0.0264061 -5.99794 0
M  V30 2677 H 239.32 -0.403482 -6.45741 0
M  V30 2678 N 239.452 1.56882 -0.150215 0
M  V30 2679 C 240.677 2.01027 0.510184 0
M  V30 2680 C 241.102 1.02966 1.57415 0
M  V30 2681 O 240.46 0.00590158 1.81299 0
M  V30 2682 C 240.508 3.43899 1.08472 0
M  V30 2683 O 239.612 3.4885 2.19948 0
M  V30 2684 H 238.953 0.652233 0.124451 0
M  V30 2685 H 241.483 2.03093 -0.247894 0
M  V30 2686 H 241.493 3.82766 1.41259 0
M  V30 2687 H 240.168 4.14776 0.305582 0
M  V30 2688 H 238.745 3.21827 1.88366 0
M  V30 2689 N 240.93 -0.123565 1.57115 0
M  V30 2690 C 242.176 -0.833386 1.84885 0
M  V30 2691 C 242.509 -1.79742 0.735292 0
M  V30 2692 O 241.784 -1.92764 -0.25925 0
M  V30 2693 C 242.067 -1.5873 3.23228 0
M  V30 2694 C 241.92 -0.643183 4.45178 0
M  V30 2695 C 243.239 -2.54453 3.59085 0
M  V30 2696 H 240.358 -0.301518 0.6725 0
M  V30 2697 H 243 -0.097778 1.89748 0
M  V30 2698 H 241.15 -2.21438 3.19214 0
M  V30 2699 H 242.822 -0.0253015 4.61293 0
M  V30 2700 H 241.065 0.0456139 4.33776 0
M  V30 2701 H 241.736 -1.20724 5.38637 0
M  V30 2702 H 244.212 -2.01853 3.63861 0
M  V30 2703 H 243.088 -3.04238 4.5687 0
M  V30 2704 H 243.349 -3.36906 2.86264 0
M  V30 2705 N 242.408 -1.52605 -0.393616 0
M  V30 2706 C 243.318 -1.79971 -1.50492 0
M  V30 2707 C 244.334 -0.686181 -1.59899 0
M  V30 2708 O 245.51 -0.973274 -1.76322 0
M  V30 2709 C 242.575 -1.95867 -2.86072 0
M  V30 2710 C 241.636 -3.19781 -2.86424 0
M  V30 2711 C 240.869 -3.34909 -4.15538 0
M  V30 2712 O 241.092 -2.54948 -5.10253 0
M  V30 2713 O 240.026 -4.28141 -4.23059 0
M  V30 2714 H 243.852 -2.74328 -1.30299 0
M  V30 2715 H 241.437 -1.3764 -0.581005 0
M  V30 2716 H 243.319 -2.08056 -3.66457 0
M  V30 2717 H 241.994 -1.04699 -3.063 0
M  V30 2718 H 240.901 -3.13038 -2.04837 0
M  V30 2719 H 242.234 -4.1078 -2.71147 0
M  V30 2720 N 243.887 0.651787 -1.4349 0
M  V30 2721 C 245.115 1.43937 -1.48626 0
M  V30 2722 C 245.53 1.8851 -0.104587 0
M  V30 2723 O 244.887 1.5958 0.885464 0
M  V30 2724 C 244.938 2.6734 -2.43334 0
M  V30 2725 O 244.659 2.24631 -3.76128 0
M  V30 2726 C 246.16 3.60683 -2.57726 0
M  V30 2727 H 243.38 0.44213 -0.504739 0
M  V30 2728 H 245.924 0.798944 -1.88248 0
M  V30 2729 H 244.079 3.2752 -2.06904 0
M  V30 2730 H 244.493 3.04485 -4.2707 0
M  V30 2731 H 245.967 4.43933 -3.28067 0
M  V30 2732 H 246.444 4.08126 -1.62265 0
M  V30 2733 H 247.05 3.06384 -2.94973 0
M  V30 2734 N 245.365 1.30045 0.890287 0
M  V30 2735 C 246.275 1.17885 2.02831 0
M  V30 2736 C 247.291 0.0999609 1.73713 0
M  V30 2737 O 248.467 0.313867 1.98939 0
M  V30 2738 C 245.532 0.866079 3.35708 0
M  V30 2739 C 244.593 2.02979 3.78283 0
M  V30 2740 C 243.826 1.73184 5.0482 0
M  V30 2741 O 244.049 0.657237 5.66601 0
M  V30 2742 O 242.983 2.58267 5.43674 0
M  V30 2743 H 246.809 2.13474 2.16015 0
M  V30 2744 H 244.394 1.09587 1.01543 0
M  V30 2745 H 246.276 0.706623 4.15433 0
M  V30 2746 H 244.951 -0.0599443 3.23644 0
M  V30 2747 H 243.858 2.24454 2.99285 0
M  V30 2748 H 245.191 2.93734 3.94944 0
M  V30 2749 N 246.843 -1.10192 1.12674 0
M  V30 2750 C 248.12 -1.78717 0.794965 0
M  V30 2751 C 248.5 -1.98628 -0.714853 0
M  V30 2752 O 247.848 -1.58135 -1.64941 0
M  V30 2753 C 248.058 -3.11546 1.5729 0
M  V30 2754 C 249.406 -3.86382 1.76052 0
M  V30 2755 O 250.43 -3.21274 1.53823 0
M  V30 2756 O 249.289 -5.03246 2.13087 0
M  V30 2757 H 246.383 -0.774702 0.289423 0
M  V30 2758 H 248.929 -1.16819 1.23091 0
M  V30 2759 H 247.701 -2.92489 2.59935 0
M  V30 2760 H 247.324 -3.81164 1.13137 0
M  V30 2761 N 248.321 -0.919034 -1.28029 0
M  V30 2762 C 249.269 -0.401753 -2.29104 0
M  V30 2763 C 250.263 0.509354 -1.61561 0
M  V30 2764 O 251.469 0.390014 -1.75724 0
M  V30 2765 H 247.844 -0.111331 -0.743713 0
M  V30 2766 H 249.815 -1.2672 -2.70156 0
M  V30 2767 C 248.564 0.338148 -3.46052 0
M  V30 2768 H 247.887 -0.353732 -3.98232 0
M  V30 2769 H 249.327 0.664653 -4.18758 0
M  V30 2770 C 247.786 1.54798 -2.99231 0
M  V30 2771 O 248.316 2.64696 -3.02157 0
M  V30 2772 N 246.522 1.3968 -2.54829 0
M  V30 2773 H 246.069 0.502698 -2.52647 0
M  V30 2774 H 246.027 2.20755 -2.23863 0
M  V30 2775 N 249.799 1.42003 -0.683588 0
M  V30 2776 C 250.746 2.30798 -0.0107309 0
M  V30 2777 C 251.716 1.4645 0.783688 0
M  V30 2778 O 252.901 1.75263 0.754156 0
M  V30 2779 C 250.041 3.3238 0.928306 0
M  V30 2780 C 249.154 4.31814 0.126776 0
M  V30 2781 C 248.289 5.20468 1.06236 0
M  V30 2782 C 247.328 6.11577 0.253035 0
M  V30 2783 N 246.465 6.92754 1.14179 0
M  V30 2784 H 251.305 2.8778 -0.773727 0
M  V30 2785 H 248.842 1.41745 -0.393283 0
M  V30 2786 H 250.8 3.89813 1.48666 0
M  V30 2787 H 249.43 2.76976 1.65783 0
M  V30 2788 H 248.482 3.76427 -0.54833 0
M  V30 2789 H 249.794 4.96276 -0.501192 0
M  V30 2790 H 248.948 5.82677 1.69035 0
M  V30 2791 H 247.687 4.56204 1.7242 0
M  V30 2792 H 246.692 5.48428 -0.388108 0
M  V30 2793 H 247.917 6.77892 -0.404839 0
M  V30 2794 H 245.863 6.3111 1.78987 0
M  V30 2795 H 245.78 7.53855 0.569111 0
M  V30 2796 H 247.048 7.59441 1.75697 0
M  V30 2797 N 251.277 0.427512 1.51691 0
M  V30 2798 C 252.187 -0.39527 2.31246 0
M  V30 2799 C 253.203 -1.03674 1.39742 0
M  V30 2800 O 254.379 -1.03425 1.72816 0
M  V30 2801 C 251.444 -1.48706 3.13189 0
M  V30 2802 C 250.505 -0.866743 4.20459 0
M  V30 2803 C 249.738 -1.90651 4.98486 0
M  V30 2804 O 249.961 -3.12733 4.77026 0
M  V30 2805 O 248.895 -1.5025 5.82845 0
M  V30 2806 H 252.721 0.253918 3.02637 0
M  V30 2807 H 250.306 0.190274 1.48183 0
M  V30 2808 H 252.188 -2.12047 3.64162 0
M  V30 2809 H 250.863 -2.12051 2.44573 0
M  V30 2810 H 249.77 -0.195544 3.73589 0
M  V30 2811 H 251.103 -0.276934 4.9142 0
M  V30 2812 N 252.755 -1.56801 0.158532 0
M  V30 2813 C 253.702 -2.17337 -0.776729 0
M  V30 2814 C 254.672 -1.1096 -1.23601 0
M  V30 2815 O 255.857 -1.39054 -1.30647 0
M  V30 2816 C 252.997 -2.80822 -2.00582 0
M  V30 2817 C 252.11 -4.01624 -1.59129 0
M  V30 2818 C 251.245 -4.53072 -2.77306 0
M  V30 2819 C 250.284 -5.66314 -2.32282 0
M  V30 2820 N 249.421 -6.12329 -3.43508 0
M  V30 2821 H 254.261 -2.96918 -0.253701 0
M  V30 2822 H 251.798 -1.46661 -0.113504 0
M  V30 2823 H 253.756 -3.15779 -2.72652 0
M  V30 2824 H 252.386 -2.03866 -2.50277 0
M  V30 2825 H 251.438 -3.72571 -0.767806 0
M  V30 2826 H 252.75 -4.83633 -1.2207 0
M  V30 2827 H 251.904 -4.90145 -3.57551 0
M  V30 2828 H 250.643 -3.70095 -3.17617 0
M  V30 2829 H 249.648 -5.28806 -1.5048 0
M  V30 2830 H 250.873 -6.51085 -1.93043 0
M  V30 2831 H 248.819 -5.32284 -3.83418 0
M  V30 2832 H 248.736 -6.89293 -3.105 0
M  V30 2833 H 250.004 -6.5405 -4.24075 0
M  V30 2834 N 254.233 0.115231 -1.57178 0
M  V30 2835 C 255.18 1.14115 -2.00615 0
M  V30 2836 C 256.15 1.40939 -0.878941 0
M  V30 2837 O 257.335 1.52741 -1.14345 0
M  V30 2838 C 254.475 2.46156 -2.4187 0
M  V30 2839 C 253.588 2.26236 -3.68024 0
M  V30 2840 C 252.723 3.51534 -3.98243 0
M  V30 2841 C 251.762 3.26787 -5.17568 0
M  V30 2842 N 250.899 4.44298 -5.43639 0
M  V30 2843 H 255.739 0.763743 -2.88047 0
M  V30 2844 H 253.276 0.365615 -1.42484 0
M  V30 2845 H 255.234 3.23189 -2.63827 0
M  V30 2846 H 253.864 2.81783 -1.57475 0
M  V30 2847 H 252.916 1.40102 -3.5366 0
M  V30 2848 H 254.228 2.03929 -4.55208 0
M  V30 2849 H 253.382 4.36984 -4.20868 0
M  V30 2850 H 252.121 3.76876 -3.09541 0
M  V30 2851 H 251.126 2.39729 -4.94783 0
M  V30 2852 H 252.351 3.02812 -6.0785 0
M  V30 2853 H 250.297 4.69754 -4.57895 0
M  V30 2854 H 250.214 4.25109 -6.25154 0
M  V30 2855 H 251.482 5.3087 -5.70786 0
M  V30 2856 N 255.711 1.52812 0.385517 0
M  V30 2857 C 256.936 1.72207 1.15583 0
M  V30 2858 C 257.361 0.441034 1.82857 0
M  V30 2859 O 256.719 -0.603465 1.70962 0
M  V30 2860 C 256.767 2.87476 2.17692 0
M  V30 2861 O 255.871 2.54693 3.24354 0
M  V30 2862 H 255.212 0.572526 0.336319 0
M  V30 2863 H 257.742 1.99618 0.448744 0
M  V30 2864 H 257.752 3.13072 2.6163 0
M  V30 2865 H 256.427 3.80408 1.68115 0
M  V30 2866 H 255.004 2.3985 2.85529 0
M  V30 2867 N 257.189 -0.644168 1.43834 0
M  V30 2868 C 258.152 -1.73857 1.49353 0
M  V30 2869 C 259.152 -1.56315 0.377112 0
M  V30 2870 O 260.342 -1.62048 0.639226 0
M  V30 2871 C 257.474 -3.12819 1.35488 0
M  V30 2872 H 258.667 -1.70342 2.46827 0
M  V30 2873 H 256.22 -0.856652 1.30733 0
M  V30 2874 H 256.955 -3.2194 0.390569 0
M  V30 2875 H 256.74 -3.26958 2.16428 0
M  V30 2876 H 258.23 -3.92606 1.42302 0
M  V30 2877 N 258.668 -1.30515 -0.883378 0
M  V30 2878 C 259.615 -1.17032 -1.98927 0
M  V30 2879 C 260.585 -0.0594241 -1.65994 0
M  V30 2880 O 261.77 -0.229895 -1.8941 0
M  V30 2881 C 258.91 -0.869777 -3.33959 0
M  V30 2882 C 258.023 -2.06271 -3.79574 0
M  V30 2883 C 257.158 -1.70011 -5.03259 0
M  V30 2884 C 256.197 -2.8579 -5.41286 0
M  V30 2885 N 255.334 -2.49816 -6.56153 0
M  V30 2886 H 260.174 -2.1164 -2.09792 0
M  V30 2887 H 257.711 -1.05296 -1.02719 0
M  V30 2888 H 259.669 -0.676138 -4.11685 0
M  V30 2889 H 258.299 0.0394332 -3.22776 0
M  V30 2890 H 257.351 -2.36755 -2.97744 0
M  V30 2891 H 258.663 -2.92971 -4.03694 0
M  V30 2892 H 257.817 -1.47032 -5.88614 0
M  V30 2893 H 256.556 -0.804829 -4.81013 0
M  V30 2894 H 255.561 -3.09434 -4.54456 0
M  V30 2895 H 256.786 -3.76008 -5.65504 0
M  V30 2896 H 254.732 -1.62795 -6.35479 0
M  V30 2897 H 254.649 -3.30048 -6.8015 0
M  V30 2898 H 255.917 -2.30197 -7.44735 0
M  V30 2899 N 260.146 1.09593 -1.13257 0
M  V30 2900 C 261.423 1.78293 -0.804432 0
M  V30 2901 C 261.803 1.99004 0.70431 0
M  V30 2902 O 261.151 1.59007 1.641 0
M  V30 2903 C 261.361 3.10707 -1.5894 0
M  V30 2904 C 262.709 3.85443 -1.78099 0
M  V30 2905 O 263.733 3.20454 -1.55525 0
M  V30 2906 O 262.592 5.02108 -2.15753 0
M  V30 2907 H 259.686 0.773156 -0.293528 0
M  V30 2908 H 262.232 1.16164 -1.23709 0
M  V30 2909 H 261.004 2.91106 -2.61482 0
M  V30 2910 H 260.627 3.80558 -1.15157 0
M  V30 2911 N 261.624 0.925811 1.2754 0
M  V30 2912 C 262.587 0.428129 2.25166 0
M  V30 2913 C 263.587 -0.452261 1.54309 0
M  V30 2914 O 264.777 -0.253608 1.72344 0
M  V30 2915 C 261.909 -0.384749 3.38722 0
M  V30 2916 H 263.102 1.29066 2.70706 0
M  V30 2917 H 260.655 0.706323 1.3943 0
M  V30 2918 H 261.39 -1.26618 2.98561 0
M  V30 2919 H 261.175 0.246454 3.91325 0
M  V30 2920 H 262.665 -0.723389 4.11287 0
M  V30 2921 N 263.102 -1.41638 0.69111 0
M  V30 2922 C 264.032 -2.3347 0.037248 0
M  V30 2923 C 265.013 -1.51575 -0.771947 0
M  V30 2924 O 266.198 -1.80126 -0.72582 0
M  V30 2925 C 263.328 -3.35354 -0.903064 0
M  V30 2926 C 262.282 -4.27526 -0.201288 0
M  V30 2927 C 261.608 -5.19747 -1.25565 0
M  V30 2928 C 262.908 -5.13959 0.929689 0
M  V30 2929 H 264.602 -2.88397 0.804227 0
M  V30 2930 H 262.148 -1.38669 0.388189 0
M  V30 2931 H 264.101 -3.98519 -1.36969 0
M  V30 2932 H 262.825 -2.78767 -1.70166 0
M  V30 2933 H 261.484 -3.65779 0.245265 0
M  V30 2934 H 261.132 -4.59479 -2.04666 0
M  V30 2935 H 260.832 -5.8225 -0.791128 0
M  V30 2936 H 262.356 -5.85789 -1.72288 0
M  V30 2937 H 263.77 -5.70718 0.543546 0
M  V30 2938 H 262.167 -5.85379 1.32103 0
M  V30 2939 H 263.237 -4.51389 1.77133 0
M  V30 2940 N 264.58 -0.43555 -1.51462 0
M  V30 2941 C 265.51 0.367376 -2.30592 0
M  V30 2942 C 266.491 1.02263 -1.35928 0
M  V30 2943 O 267.676 1.02661 -1.64847 0
M  V30 2944 C 264.806 1.46983 -3.14664 0
M  V30 2945 C 263.76 0.938161 -4.17591 0
M  V30 2946 C 263.086 2.13622 -4.90173 0
M  V30 2947 C 264.386 -0.0261621 -5.22293 0
M  V30 2948 H 266.08 -0.292969 -2.97963 0
M  V30 2949 H 263.626 -0.14234 -1.43295 0
M  V30 2950 H 265.579 2.03873 -3.688 0
M  V30 2951 H 264.303 2.15843 -2.4511 0
M  V30 2952 H 262.962 0.391481 -3.64504 0
M  V30 2953 H 262.61 2.81098 -4.17124 0
M  V30 2954 H 262.31 1.78688 -5.59772 0
M  V30 2955 H 263.834 2.7107 -5.47132 0
M  V30 2956 H 265.248 0.452384 -5.71512 0
M  V30 2957 H 263.645 -0.287992 -5.99409 0
M  V30 2958 H 264.715 -0.963391 -4.75233 0
M  V30 2959 N 266.058 1.56714 -0.166846 0
M  V30 2960 C 266.988 2.20754 0.760913 0
M  V30 2961 C 267.969 1.16178 1.24244 0
M  V30 2962 O 269.154 1.44592 1.29641 0
M  V30 2963 C 266.284 2.84478 1.99223 0
M  V30 2964 C 265.238 3.95053 1.64672 0
M  V30 2965 C 264.564 4.45805 2.95232 0
M  V30 2966 C 265.864 5.14865 0.878155 0
M  V30 2967 H 267.558 2.98537 0.22713 0
M  V30 2968 H 265.104 1.43596 0.107805 0
M  V30 2969 H 267.057 3.27951 2.64624 0
M  V30 2970 H 265.781 2.04056 2.55007 0
M  V30 2971 H 264.44 3.52228 1.01641 0
M  V30 2972 H 264.088 3.62181 3.49047 0
M  V30 2973 H 263.788 5.204 2.7287 0
M  V30 2974 H 265.312 4.91962 3.6167 0
M  V30 2975 H 266.726 5.55059 1.43466 0
M  V30 2976 H 265.123 5.95348 0.753738 0
M  V30 2977 H 266.193 4.84735 -0.126377 0
M  V30 2978 N 267.536 -0.106894 1.57237 0
M  V30 2979 C 268.782 -0.808678 1.86633 0
M  V30 2980 C 269.137 -1.76917 0.756178 0
M  V30 2981 O 268.43 -1.90055 -0.242834 0
M  V30 2982 C 268.624 -1.58628 3.20268 0
M  V30 2983 C 268.453 -0.702592 4.44178 0
M  V30 2984 C 267.223 -0.352808 5.04067 0
M  V30 2985 C 269.421 -0.0148031 5.14298 0
M  V30 2986 N 267.403 0.540279 6.11518 0
M  V30 2987 C 268.774 0.736809 6.15606 0
M  V30 2988 C 270.829 0.0603524 4.97863 0
M  V30 2989 C 269.532 1.55654 7.02257 0
M  V30 2990 C 271.558 0.866942 5.85011 0
M  V30 2991 C 270.92 1.60671 6.85831 0
M  V30 2992 H 267.019 -0.27246 0.733001 0
M  V30 2993 H 269.603 -0.0717858 1.94568 0
M  V30 2994 H 267.774 -2.29413 3.13408 0
M  V30 2995 H 269.506 -2.23434 3.3743 0
M  V30 2996 H 266.261 -0.697802 4.68431 0
M  V30 2997 H 266.685 0.979029 6.69884 0
M  V30 2998 H 271.327 -0.497236 4.19866 0
M  V30 2999 H 269.045 2.12524 7.79653 0
M  V30 3000 H 272.631 0.927612 5.74358 0
M  V30 3001 H 271.511 2.2208 7.52097 0
M  V30 3002 N 269.014 -1.53014 -0.377408 0
M  V30 3003 C 270.254 -1.70318 -1.1301 0
M  V30 3004 C 270.618 -0.439538 -1.86901 0
M  V30 3005 O 271.819 -0.489095 -2.64313 0
M  V30 3006 C 270.09 -2.91125 -2.07319 0
M  V30 3007 S 271.649 -3.29075 -2.90268 0
M  V30 3008 H 268.467 -0.599426 -0.382374 0
M  V30 3009 H 271.069 -1.91089 -0.412933 0
M  V30 3010 H 269.773 -3.81303 -1.51777 0
M  V30 3011 H 269.304 -2.7272 -2.83526 0
M  V30 3012 H 271.319 -2.80165 -4.09539 0
M  V30 3013 N 270.492 0.636531 -1.44174 0
M  V30 3014 C 271.424 1.7618 -1.46606 0
M  V30 3015 C 272.437 1.58768 -0.360091 0
M  V30 3016 O 273.626 1.67181 -0.625518 0
M  V30 3017 C 270.726 3.13833 -1.27915 0
M  V30 3018 C 269.899 3.57753 -2.51658 0
M  V30 3019 C 268.958 4.74265 -2.27945 0
M  V30 3020 O 267.984 4.82852 -3.01401 0
M  V30 3021 N 269.186 5.65604 -1.30662 0
M  V30 3022 H 271.951 1.74567 -2.43612 0
M  V30 3023 H 269.512 0.820924 -1.39544 0
M  V30 3024 H 271.504 3.8949 -1.09907 0
M  V30 3025 H 270.074 3.10121 -0.39293 0
M  V30 3026 H 269.294 2.72362 -2.84978 0
M  V30 3027 H 270.582 3.83847 -3.33974 0
M  V30 3028 H 269.98 5.61354 -0.699844 0
M  V30 3029 H 268.537 6.40913 -1.18634 0
M  V30 3030 N 271.97 1.30982 0.876444 0
M  V30 3031 C 272.903 1.12414 1.98591 0
M  V30 3032 C 273.881 0.0294078 1.62573 0
M  V30 3033 O 275.065 0.184598 1.87594 0
M  V30 3034 C 272.192 0.716276 3.3104 0
M  V30 3035 C 271.238 1.81311 3.86042 0
M  V30 3036 S 272.071 3.41727 4.1229 0
M  V30 3037 C 273.227 3.02863 5.47745 0
M  V30 3038 H 273.46 2.06338 2.14037 0
M  V30 3039 H 270.993 1.15393 1.02586 0
M  V30 3040 H 272.951 0.487697 4.07593 0
M  V30 3041 H 271.612 -0.203749 3.13438 0
M  V30 3042 H 270.805 1.48021 4.81774 0
M  V30 3043 H 270.407 1.99641 3.16259 0
M  V30 3044 H 272.699 2.51353 6.29148 0
M  V30 3045 H 273.642 3.97533 5.8598 0
M  V30 3046 H 274.05 2.40487 5.10711 0
M  V30 3047 N 273.449 -1.08991 1.13837 0
M  V30 3048 C 274.396 -2.15748 0.819835 0
M  V30 3049 C 275.366 -1.64636 -0.220026 0
M  V30 3050 O 276.551 -1.90582 -0.0912757 0
M  V30 3051 C 273.691 -3.4382 0.296913 0
M  V30 3052 C 272.804 -4.0881 1.39636 0
M  V30 3053 C 271.939 -5.24655 0.831314 0
M  V30 3054 C 270.978 -5.81575 1.90886 0
M  V30 3055 N 270.115 -6.88774 1.36142 0
M  V30 3056 H 274.955 -2.42338 1.73426 0
M  V30 3057 H 272.492 -1.18935 0.865613 0
M  V30 3058 H 274.45 -4.17193 -0.0244339 0
M  V30 3059 H 273.08 -3.17535 -0.580628 0
M  V30 3060 H 272.132 -3.33258 1.83422 0
M  V30 3061 H 273.444 -4.47141 2.21058 0
M  V30 3062 H 272.598 -6.04942 0.461515 0
M  V30 3063 H 271.337 -4.87698 -0.013932 0
M  V30 3064 H 270.342 -4.99946 2.28767 0
M  V30 3065 H 271.567 -6.20592 2.75758 0
M  V30 3066 H 269.513 -6.53788 0.538254 0
M  V30 3067 H 269.43 -7.25898 2.11208 0
M  V30 3068 H 270.698 -7.72806 1.01933 0
M  V30 3069 N 274.927 -0.932562 -1.27047 0
M  V30 3070 C 276.155 -0.592031 -1.98249 0
M  V30 3071 C 276.57 0.831062 -1.69525 0
M  V30 3072 O 275.927 1.55299 -0.958561 0
M  V30 3073 C 275.978 -0.814279 -3.5221 0
M  V30 3074 O 275.699 -2.18139 -3.7993 0
M  V30 3075 C 277.2 -0.483121 -4.4066 0
M  V30 3076 H 274.42 -0.223896 -0.632544 0
M  V30 3077 H 276.964 -1.25091 -1.61779 0
M  V30 3078 H 275.119 -0.20213 -3.86872 0
M  V30 3079 H 275.533 -2.235 -4.74498 0
M  V30 3080 H 277.007 -0.689298 -5.47679 0
M  V30 3081 H 277.484 0.581546 -4.35333 0
M  V30 3082 H 278.09 -1.07362 -4.11526 0
M  V30 3083 N 276.405 1.4127 -0.698611 0
M  V30 3084 C 277.368 2.29158 -0.044132 0
M  V30 3085 C 278.368 1.44529 0.704841 0
M  V30 3086 O 279.558 1.65643 0.539276 0
M  V30 3087 C 276.69 3.27459 0.947809 0
M  V30 3088 H 277.883 2.88529 -0.817994 0
M  V30 3089 H 275.436 1.49307 -0.46228 0
M  V30 3090 H 276.171 2.73073 1.74933 0
M  V30 3091 H 275.956 3.8991 0.41385 0
M  V30 3092 H 277.446 3.93311 1.40344 0
M  V30 3093 N 277.883 0.443576 1.51229 0
M  V30 3094 C 279.131 -0.120557 2.0174 0
M  V30 3095 C 279.452 -1.42665 1.32935 0
M  V30 3096 O 278.722 -1.9028 0.465866 0
M  V30 3097 H 277.302 -0.0475426 0.745486 0
M  V30 3098 H 279.964 0.587711 1.85828 0
M  V30 3099 H 279.06 -0.291972 3.10731 0
M  V30 3100 N 279.361 -1.56624 0.175154 0
M  V30 3101 C 280.591 -2.01082 -0.474283 0
M  V30 3102 C 280.999 -1.05447 -1.57091 0
M  V30 3103 O 280.342 -0.0480595 -1.83637 0
M  V30 3104 C 280.404 -3.41963 -1.10911 0
M  V30 3105 C 280.068 -4.56742 -0.153666 0
M  V30 3106 C 281.065 -5.16076 0.629448 0
M  V30 3107 C 278.75 -5.02277 -0.0483776 0
M  V30 3108 C 280.744 -6.19377 1.50501 0
M  V30 3109 C 278.431 -6.05427 0.830768 0
M  V30 3110 C 279.429 -6.63849 1.60605 0
M  V30 3111 O 279.117 -7.64998 2.47049 0
M  V30 3112 H 278.849 -0.664261 -0.125432 0
M  V30 3113 H 281.403 -2.03549 0.275163 0
M  V30 3114 H 279.633 -3.36422 -1.90676 0
M  V30 3115 H 281.322 -3.70352 -1.66114 0
M  V30 3116 H 282.088 -4.81776 0.558297 0
M  V30 3117 H 277.967 -4.56513 -0.641611 0
M  V30 3118 H 281.511 -6.64906 2.1106 0
M  V30 3119 H 277.408 -6.39151 0.903107 0
M  V30 3120 H 278.176 -7.82336 2.40607 0
M  V30 3121 N 280.839 0.0985539 -1.57292 0
M  V30 3122 C 282.25 0.653457 -1.74891 0
M  V30 3123 C 282.601 1.7929 -0.796838 0
M  V30 3124 O 281.726 2.16385 0.0254886 0
M  V30 3125 C 282.321 1.19216 -3.17133 0
M  V30 3126 C 280.88 1.69316 -3.36168 0
M  V30 3127 C 280.027 0.601294 -2.70702 0
M  V30 3128 H 282.978 -0.127497 -1.58187 0
M  V30 3129 H 282.999 2.06154 -3.19814 0
M  V30 3130 H 282.511 0.362635 -3.86402 0
M  V30 3131 H 280.612 2.5468 -2.71972 0
M  V30 3132 H 280.725 1.78853 -4.44464 0
M  V30 3133 H 279.089 1.0399 -2.32504 0
M  V30 3134 H 279.872 -0.217592 -3.4261 0
M  V30 3135 N 282.317 1.53212 0.369288 0
M  V30 3136 C 283.265 1.80054 1.47253 0
M  V30 3137 C 284.259 0.669456 1.55611 0
M  V30 3138 O 285.465 0.852328 1.58541 0
M  V30 3139 H 281.84 0.570034 0.490475 0
M  V30 3140 H 283.811 2.72403 1.21817 0
M  V30 3141 C 282.56 2.00403 2.84137 0
M  V30 3142 H 281.883 2.86876 2.78464 0
M  V30 3143 H 283.323 2.23164 3.60519 0
M  V30 3144 C 281.782 0.782081 3.27697 0
M  V30 3145 O 282.312 -0.0310205 4.01688 0
M  V30 3146 N 280.518 0.606573 2.84199 0
M  V30 3147 H 280.065 1.26939 2.24152 0
M  V30 3148 H 280.023 -0.20962 3.137 0
M  V30 3149 N 283.795 -0.628877 1.44509 0
M  V30 3150 C 285.041 -1.39045 1.47629 0
M  V30 3151 C 285.374 -1.93892 0.109343 0
M  V30 3152 O 284.649 -1.7379 -0.87334 0
M  V30 3153 C 284.932 -2.55408 2.53848 0
M  V30 3154 C 284.785 -2.05896 3.99909 0
M  V30 3155 C 286.104 -3.5759 2.56549 0
M  V30 3156 H 283.223 -0.504232 0.537512 0
M  V30 3157 H 285.865 -0.710854 1.76201 0
M  V30 3158 H 284.015 -3.13384 2.29615 0
M  V30 3159 H 285.687 -1.52734 4.35282 0
M  V30 3160 H 283.93 -1.37061 4.11578 0
M  V30 3161 H 284.601 -2.89681 4.69882 0
M  V30 3162 H 287.077 -3.09419 2.78207 0
M  V30 3163 H 285.953 -4.36527 3.32769 0
M  V30 3164 H 286.214 -4.11808 1.60832 0
M  V30 3165 N 285.273 -1.31445 -0.869486 0
M  V30 3166 C 286.221 -1.19067 -1.99814 0
M  V30 3167 C 287.215 -0.0988569 -1.69111 0
M  V30 3168 O 288.421 -0.260781 -1.78101 0
M  V30 3169 H 284.796 -0.368677 -0.655425 0
M  V30 3170 H 286.767 -2.14555 -2.07385 0
M  V30 3171 C 285.516 -0.915323 -3.35436 0
M  V30 3172 H 284.839 -1.74759 -3.59582 0
M  V30 3173 H 286.279 -0.868895 -4.15001 0
M  V30 3174 C 284.738 0.381928 -3.34728 0
M  V30 3175 O 285.268 1.39857 -3.76567 0
M  V30 3176 N 283.474 0.398633 -2.87853 0
M  V30 3177 H 283.021 -0.429186 -2.54 0
M  V30 3178 H 282.979 1.26651 -2.87762 0
M  V30 3179 N 286.751 1.08385 -1.14413 0
M  V30 3180 C 288 1.80153 -0.907076 0
M  V30 3181 C 288.313 1.87176 0.567851 0
M  V30 3182 O 289.519 2.55359 0.922172 0
M  V30 3183 C 287.975 3.23687 -1.57336 0
M  V30 3184 C 287.583 3.24897 -3.08457 0
M  V30 3185 C 289.327 4.00136 -1.41744 0
M  V30 3186 C 287.234 4.6302 -3.67921 0
M  V30 3187 H 286.164 0.675139 -0.335714 0
M  V30 3188 H 288.815 1.21733 -1.37307 0
M  V30 3189 H 287.197 3.82234 -1.03505 0
M  V30 3190 H 288.371 2.76055 -3.68958 0
M  V30 3191 H 286.686 2.61943 -3.2369 0
M  V30 3192 H 289.283 5.02201 -1.83572 0
M  V30 3193 H 289.626 4.14709 -0.363576 0
M  V30 3194 H 290.159 3.48058 -1.92614 0
M  V30 3195 H 286.898 4.5365 -4.73161 0
M  V30 3196 H 286.418 5.12143 -3.12201 0
M  V30 3197 H 288.097 5.31994 -3.68227 0
M  V30 3198 N 288.23 0.939286 1.26551 0
M  V30 3199 C 289.18 0.418284 2.2413 0
M  V30 3200 C 290.164 -0.483935 1.5345 0
M  V30 3201 O 291.356 -0.319489 1.74093 0
M  V30 3202 C 288.485 -0.31709 3.41832 0
M  V30 3203 C 287.571 0.602311 4.19801 0
M  V30 3204 N 287.962 1.72726 4.75394 0
M  V30 3205 C 286.26 0.407534 4.44134 0
M  V30 3206 C 286.961 2.30004 5.34297 0
M  V30 3207 N 285.937 1.58828 5.1988 0
M  V30 3208 H 289.739 1.27705 2.64705 0
M  V30 3209 H 287.253 0.794929 1.41614 0
M  V30 3210 H 289.25 -0.707364 4.10855 0
M  V30 3211 H 287.91 -1.17264 3.02786 0
M  V30 3212 H 288.921 2.10944 4.72994 0
M  V30 3213 H 285.598 -0.406406 4.15517 0
M  V30 3214 H 286.988 3.24778 5.88191 0
M  V30 3215 N 289.708 -1.40897 0.706093 0
M  V30 3216 C 290.656 -2.32572 0.0361893 0
M  V30 3217 C 291.65 -1.51532 -0.757266 0
M  V30 3218 O 292.856 -1.67396 -0.661703 0
M  V30 3219 H 289.231 -0.751966 -0.00709935 0
M  V30 3220 H 291.202 -2.86733 0.826249 0
M  V30 3221 C 289.951 -3.36418 -0.87854 0
M  V30 3222 H 289.274 -3.98836 -0.277401 0
M  V30 3223 H 290.714 -4.0308 -1.3154 0
M  V30 3224 C 289.173 -2.71141 -1.99961 0
M  V30 3225 O 289.703 -2.56735 -3.0895 0
M  V30 3226 N 287.909 -2.29671 -1.78043 0
M  V30 3227 H 287.456 -2.41588 -0.894042 0
M  V30 3228 H 287.414 -1.86332 -2.53235 0
M  V30 3229 N 291.186 -0.45159 -1.50991 0
M  V30 3230 C 292.433 0.110074 -2.02201 0
M  V30 3231 C 292.761 1.4146 -1.33489 0
M  V30 3232 O 292.016 1.90617 -0.443125 0
M  V30 3233 C 292.315 0.361728 -3.55565 0
M  V30 3234 C 291.981 -0.858717 -4.42648 0
M  V30 3235 C 290.643 -1.19338 -4.66167 0
M  V30 3236 C 292.995 -1.67221 -4.93646 0
M  V30 3237 C 290.323 -2.34195 -5.37931 0
M  V30 3238 C 292.675 -2.8119 -5.6667 0
M  V30 3239 C 291.339 -3.15094 -5.88449 0
M  V30 3240 H 290.609 0.040279 -0.739904 0
M  V30 3241 H 293.256 -0.601696 -1.81802 0
M  V30 3242 H 291.561 1.15554 -3.74372 0
M  V30 3243 H 293.258 0.80996 -3.92735 0
M  V30 3244 H 289.848 -0.58796 -4.24548 0
M  V30 3245 H 294.032 -1.42686 -4.75347 0
M  V30 3246 H 289.288 -2.6076 -5.53005 0
M  V30 3247 H 293.462 -3.44585 -6.05173 0
M  V30 3248 H 291.089 -4.04204 -6.43835 0
M  V30 3249 N 292.664 1.56529 -0.183458 0
M  V30 3250 C 293.892 2.01623 0.464285 0
M  V30 3251 C 294.307 1.06366 1.55986 0
M  V30 3252 O 293.664 0.0665398 1.82379 0
M  V30 3253 C 293.715 3.46475 1.03139 0
M  V30 3254 O 293.436 4.38095 -0.0204675 0
M  V30 3255 C 294.937 4.0703 1.75617 0
M  V30 3256 H 292.157 0.660596 0.117704 0
M  V30 3257 H 294.701 2.02451 -0.288751 0
M  V30 3258 H 292.856 3.46383 1.73486 0
M  V30 3259 H 293.27 5.22973 0.399952 0
M  V30 3260 H 294.744 5.10271 2.10542 0
M  V30 3261 H 295.221 3.49819 2.65563 0
M  V30 3262 H 295.827 4.1086 1.09882 0
M  V30 3263 N 294.142 -0.090211 1.57342 0
M  V30 3264 C 295.37 -0.806224 1.90546 0
M  V30 3265 C 295.785 -1.72041 0.777644 0
M  V30 3266 O 295.142 -1.80778 -0.250103 0
M  V30 3267 C 295.193 -1.61546 3.23396 0
M  V30 3268 O 294.914 -0.738043 4.31839 0
M  V30 3269 C 296.415 -2.4341 3.70495 0
M  V30 3270 H 293.635 -0.230256 0.630257 0
M  V30 3271 H 296.179 -0.0659843 2.04394 0
M  V30 3272 H 294.334 -2.30816 3.11131 0
M  V30 3273 H 294.748 -1.29901 5.08159 0
M  V30 3274 H 296.222 -2.95676 4.66133 0
M  V30 3275 H 296.699 -3.22098 2.98579 0
M  V30 3276 H 297.305 -1.79331 3.85643 0
M  V30 3277 N 295.62 -1.53406 -0.361157 0
M  V30 3278 C 296.845 -1.74024 -1.12829 0
M  V30 3279 C 297.27 -0.470069 -1.82132 0
M  V30 3280 O 296.628 0.57619 -1.719 0
M  V30 3281 C 296.676 -2.90903 -2.13091 0
M  V30 3282 O 295.78 -2.59821 -3.20261 0
M  V30 3283 H 295.121 -0.577804 -0.327168 0
M  V30 3284 H 297.651 -2.00307 -0.41693 0
M  V30 3285 H 297.661 -3.17194 -2.56616 0
M  V30 3286 H 296.336 -3.83034 -1.62042 0
M  V30 3287 H 294.913 -2.44362 -2.81677 0
M  V30 3288 N 297.098 0.621204 -1.44841 0
M  V30 3289 C 298.344 1.38073 -1.49357 0
M  V30 3290 C 298.699 1.91973 -0.128115 0
M  V30 3291 O 297.992 1.71311 0.858087 0
M  V30 3292 C 298.186 2.55675 -2.4973 0
M  V30 3293 C 298.015 2.13289 -3.95901 0
M  V30 3294 C 296.785 2.001 -4.63991 0
M  V30 3295 C 298.983 1.7159 -4.84831 0
M  V30 3296 N 296.965 1.51381 -5.94943 0
M  V30 3297 C 298.336 1.34188 -6.05304 0
M  V30 3298 C 300.391 1.59059 -4.7181 0
M  V30 3299 C 299.094 0.855085 -7.14199 0
M  V30 3300 C 301.12 1.11784 -5.8074 0
M  V30 3301 C 300.482 0.753385 -7.0036 0
M  V30 3302 H 296.581 0.499675 -0.601539 0
M  V30 3303 H 299.165 0.711609 -1.8123 0
M  V30 3304 H 297.336 3.20201 -2.19832 0
M  V30 3305 H 299.068 3.22509 -2.4448 0
M  V30 3306 H 295.823 2.20863 -4.18947 0
M  V30 3307 H 296.247 1.29293 -6.64539 0
M  V30 3308 H 300.889 1.85865 -3.79755 0
M  V30 3309 H 298.607 0.574552 -8.06055 0
M  V30 3310 H 302.193 1.02533 -5.72694 0
M  V30 3311 H 301.073 0.393183 -7.83214 0
M  V30 3312 N 298.576 1.31904 0.862503 0
M  V30 3313 C 299.992 1.10724 1.14945 0
M  V30 3314 C 300.192 -0.117421 2.01158 0
M  V30 3315 O 299.248 -0.804595 2.39338 0
M  V30 3316 C 300.561 2.38267 1.83437 0
M  V30 3317 C 302.109 2.43949 1.96106 0
M  V30 3318 C 302.584 3.71394 2.68013 0
M  V30 3319 N 304.075 3.72331 2.75543 0
M  V30 3320 C 304.81 4.67641 3.31812 0
M  V30 3321 N 304.306 5.73313 3.88953 0
M  V30 3322 N 306.099 4.5515 3.29841 0
M  V30 3323 H 298.25 2.10436 0.288191 0
M  V30 3324 H 300.513 0.928705 0.190292 0
M  V30 3325 H 300.219 3.27759 1.27542 0
M  V30 3326 H 300.093 2.48633 2.83657 0
M  V30 3327 H 302.48 1.54922 2.51164 0
M  V30 3328 H 302.561 2.37543 0.949059 0
M  V30 3329 H 302.205 4.60791 2.13621 0
M  V30 3330 H 302.135 3.75069 3.69636 0
M  V30 3331 H 304.626 2.95947 2.34997 0
M  V30 3332 H 304.939 6.42107 4.30022 0
M  V30 3333 H 303.284 5.77077 3.87308 0
M  V30 3334 H 306.475 3.71766 2.84443 0
M  V30 3335 H 306.648 5.29604 3.73394 0
M  V30 3336 N 300.054 -1.07777 1.14986 0
M  V30 3337 C 301.331 -1.7699 0.832695 0
M  V30 3338 C 301.711 -2.001 -0.672561 0
M  V30 3339 O 301.059 -1.61598 -1.6155 0
M  V30 3340 C 301.269 -3.08139 1.63863 0
M  V30 3341 C 302.617 -3.8256 1.84208 0
M  V30 3342 O 303.641 -3.17939 1.60603 0
M  V30 3343 O 302.5 -4.98612 2.23714 0
M  V30 3344 H 299.594 -0.768389 0.305791 0
M  V30 3345 H 302.14 -1.14182 1.25541 0
M  V30 3346 H 300.912 -2.86909 2.6608 0
M  V30 3347 H 300.535 -3.78678 1.21197 0
M  V30 3348 N 301.532 -0.945985 -1.26051 0
M  V30 3349 C 302.78 -0.594941 -1.93145 0
M  V30 3350 C 303.101 0.86953 -1.7454 0
M  V30 3351 O 302.371 1.61838 -1.10387 0
M  V30 3352 H 300.951 -0.217044 -0.714773 0
M  V30 3353 H 303.613 -1.20235 -1.53393 0
M  V30 3354 H 302.709 -0.816835 -3.01221 0
M  V30 3355 N 303.011 1.40521 -0.713556 0
M  V30 3356 C 303.944 2.28198 -0.00881422 0
M  V30 3357 C 304.922 1.43227 0.769735 0
M  V30 3358 O 306.106 1.72641 0.756799 0
M  V30 3359 C 303.233 3.23758 0.994899 0
M  V30 3360 C 302.279 4.25391 0.3074 0
M  V30 3361 S 303.112 5.26765 -0.963247 0
M  V30 3362 C 304.268 6.25888 0.0384143 0
M  V30 3363 H 304.501 2.87622 -0.752407 0
M  V30 3364 H 302.034 1.45925 -0.504502 0
M  V30 3365 H 303.992 3.79341 1.56879 0
M  V30 3366 H 302.653 2.63396 1.71118 0
M  V30 3367 H 301.846 4.92596 1.0661 0
M  V30 3368 H 301.448 3.73497 -0.193879 0
M  V30 3369 H 303.74 6.71683 0.885912 0
M  V30 3370 H 304.683 7.05552 -0.60019 0
M  V30 3371 H 305.091 5.63072 0.401233 0
M  V30 3372 N 304.489 0.459591 1.5075 0
M  V30 3373 C 305.452 -0.329093 2.26825 0
M  V30 3374 C 306.452 -0.930481 1.31144 0
M  V30 3375 O 307.642 -0.801453 1.54669 0
M  V30 3376 C 304.774 -1.46768 3.07688 0
M  V30 3377 H 305.967 0.337924 2.9799 0
M  V30 3378 H 303.52 0.213336 1.54837 0
M  V30 3379 H 304.255 -2.17009 2.40993 0
M  V30 3380 H 304.04 -1.04238 3.77991 0
M  V30 3381 H 305.53 -2.02433 3.65254 0
M  V30 3382 N 305.967 -1.56429 0.191757 0
M  V30 3383 C 307.214 -1.97485 -0.447891 0
M  V30 3384 C 307.542 -1.07852 -1.61859 0
M  V30 3385 O 306.797 -0.116903 -1.95351 0
M  V30 3386 C 307.096 -3.44449 -0.953384 0
M  V30 3387 C 306.762 -4.50781 0.103586 0
M  V30 3388 C 305.424 -4.79584 0.394023 0
M  V30 3389 C 307.776 -5.1471 0.819946 0
M  V30 3390 C 305.104 -5.69607 1.40585 0
M  V30 3391 C 307.456 -6.05827 1.8209 0
M  V30 3392 C 306.12 -6.32987 2.11857 0
M  V30 3393 H 305.39 -0.722648 -0.163895 0
M  V30 3394 H 308.037 -1.89322 0.28802 0
M  V30 3395 H 306.342 -3.49666 -1.76751 0
M  V30 3396 H 308.039 -3.73569 -1.45765 0
M  V30 3397 H 304.629 -4.28394 -0.132951 0
M  V30 3398 H 308.813 -4.92552 0.608789 0
M  V30 3399 H 304.069 -5.88926 1.64243 0
M  V30 3400 H 308.243 -6.54424 2.38123 0
M  V30 3401 H 305.87 -7.02544 2.90407 0
M  V30 3402 N 307.445 0.0818655 -1.57387 0
M  V30 3403 C 308.393 1.11712 -2.04018 0
M  V30 3404 C 309.387 1.40683 -0.94364 0
M  V30 3405 O 310.593 1.40209 -1.12878 0
M  V30 3406 H 306.968 0.377542 -0.650358 0
M  V30 3407 H 308.939 0.697614 -2.90131 0
M  V30 3408 C 307.688 2.42537 -2.49141 0
M  V30 3409 H 307.011 2.21092 -3.33104 0
M  V30 3410 H 308.451 3.13446 -2.85531 0
M  V30 3411 C 306.91 3.0778 -1.37014 0
M  V30 3412 O 307.44 3.95436 -0.706621 0
M  V30 3413 N 305.646 2.68242 -1.11779 0
M  V30 3414 H 305.193 1.97052 -1.65917 0
M  V30 3415 H 305.151 3.1222 -0.369594 0
M  V30 3416 N 308.923 1.53595 0.353017 0
M  V30 3417 C 309.886 1.80232 1.41594 0
M  V30 3418 C 310.886 0.673081 1.46035 0
M  V30 3419 O 312.076 0.941335 1.46576 0
M  V30 3420 C 309.208 1.93578 2.80607 0
M  V30 3421 H 310.401 2.75174 1.19244 0
M  V30 3422 H 307.954 1.44864 0.586872 0
M  V30 3423 H 308.689 1.00746 3.08254 0
M  V30 3424 H 308.474 2.75724 2.78781 0
M  V30 3425 H 309.964 2.15735 3.57558 0
M  V30 3426 N 310.401 -0.613514 1.45168 0
M  V30 3427 C 311.331 -1.7354 1.56225 0
M  V30 3428 C 312.312 -1.64981 0.41414 0
M  V30 3429 O 313.497 -1.83472 0.636526 0
M  V30 3430 C 310.627 -3.12128 1.52295 0
M  V30 3431 C 309.581 -3.35491 2.65762 0
M  V30 3432 C 308.907 -4.74291 2.46885 0
M  V30 3433 C 310.207 -3.26325 4.0781 0
M  V30 3434 H 311.901 -1.64543 2.50132 0
M  V30 3435 H 309.447 -0.790185 1.20383 0
M  V30 3436 H 311.4 -3.90404 1.58628 0
M  V30 3437 H 310.124 -3.2195 0.549139 0
M  V30 3438 H 308.783 -2.59603 2.58847 0
M  V30 3439 H 308.431 -4.80839 1.47657 0
M  V30 3440 H 308.131 -4.9088 3.22972 0
M  V30 3441 H 309.655 -5.54775 2.55063 0
M  V30 3442 H 311.069 -3.94483 4.16 0
M  V30 3443 H 309.466 -3.54445 4.8424 0
M  V30 3444 H 310.536 -2.23855 4.30136 0
M  V30 3445 N 311.879 -1.3236 -0.855495 0
M  V30 3446 C 313.128 -1.22226 -1.60448 0
M  V30 3447 C 313.441 0.214733 -1.94418 0
M  V30 3448 O 314.647 0.437917 -2.67945 0
M  V30 3449 C 313.103 -2.14063 -2.89318 0
M  V30 3450 C 312.711 -3.62839 -2.62777 0
M  V30 3451 C 314.455 -2.12764 -3.67331 0
M  V30 3452 C 312.362 -4.4664 -3.87643 0
M  V30 3453 H 311.292 -0.453904 -0.602069 0
M  V30 3454 H 313.943 -1.57314 -0.944698 0
M  V30 3455 H 312.325 -1.71889 -3.5675 0
M  V30 3456 H 313.499 -4.1335 -2.03662 0
M  V30 3457 H 311.814 -3.66261 -1.98096 0
M  V30 3458 H 314.411 -2.72611 -4.59987 0
M  V30 3459 H 314.754 -1.11841 -4.00995 0
M  V30 3460 H 315.287 -2.53214 -3.06802 0
M  V30 3461 H 312.026 -5.48373 -3.5912 0
M  V30 3462 H 311.546 -4.0088 -4.46156 0
M  V30 3463 H 313.225 -4.59597 -4.55389 0
M  V30 3464 N 313.357 1.07166 -1.15556 0
M  V30 3465 C 314.307 2.12649 -0.82247 0
M  V30 3466 C 315.291 1.59725 0.194129 0
M  V30 3467 O 316.483 1.76999 -0.00540402 0
M  V30 3468 C 313.612 3.41847 -0.315572 0
M  V30 3469 C 312.698 4.0162 -1.36244 0
M  V30 3470 N 313.089 4.35625 -2.5703 0
M  V30 3471 C 311.387 4.29114 -1.21562 0
M  V30 3472 C 312.088 4.83017 -3.24144 0
M  V30 3473 N 311.064 4.81906 -2.51531 0
M  V30 3474 H 314.866 2.36776 -1.74111 0
M  V30 3475 H 312.38 1.24622 -1.0413 0
M  V30 3476 H 314.377 4.16859 -0.0585855 0
M  V30 3477 H 313.037 3.19163 0.597105 0
M  V30 3478 H 314.048 4.26253 -2.94158 0
M  V30 3479 H 310.725 4.15919 -0.362988 0
M  V30 3480 H 312.115 5.18605 -4.27198 0
M  V30 3481 N 314.835 0.952656 1.25548 0
M  V30 3482 C 315.782 0.47008 2.25962 0
M  V30 3483 C 316.752 -0.476384 1.59122 0
M  V30 3484 O 317.937 -0.39007 1.8677 0
M  V30 3485 C 315.077 -0.247881 3.44209 0
M  V30 3486 C 314.19 0.735591 4.25691 0
M  V30 3487 C 313.325 -0.0047306 5.312 0
M  V30 3488 C 312.364 0.969805 6.04368 0
M  V30 3489 N 311.501 0.260486 7.01617 0
M  V30 3490 H 316.341 1.33126 2.66611 0
M  V30 3491 H 313.878 0.66765 1.31076 0
M  V30 3492 H 315.836 -0.680695 4.1161 0
M  V30 3493 H 314.466 -1.07312 3.0444 0
M  V30 3494 H 313.518 1.28689 3.57971 0
M  V30 3495 H 314.83 1.47934 4.76358 0
M  V30 3496 H 313.984 -0.496275 6.04667 0
M  V30 3497 H 312.723 -0.781282 4.81401 0
M  V30 3498 H 311.728 1.47237 5.29718 0
M  V30 3499 H 312.953 1.74655 6.56256 0
M  V30 3500 H 310.899 -0.497364 6.54112 0
M  V30 3501 H 310.816 0.943362 7.50091 0
M  V30 3502 H 312.084 -0.209587 7.79218 0
M  V30 3503 N 316.313 -1.40141 0.720998 0
M  V30 3504 C 317.263 -2.27949 0.0482544 0
M  V30 3505 C 318.247 -1.43538 -0.727021 0
M  V30 3506 O 319.439 -1.6658 -0.598332 0
M  V30 3507 C 316.568 -3.32126 -0.868729 0
M  V30 3508 C 315.654 -4.24008 -0.0883515 0
M  V30 3509 N 316.045 -4.97154 0.931226 0
M  V30 3510 C 314.343 -4.4485 -0.320105 0
M  V30 3511 C 315.044 -5.64587 1.4006 0
M  V30 3512 N 314.02 -5.38787 0.721752 0
M  V30 3513 H 317.822 -2.81948 0.829609 0
M  V30 3514 H 315.336 -1.52656 0.554067 0
M  V30 3515 H 317.333 -3.93884 -1.36605 0
M  V30 3516 H 315.993 -2.79687 -1.6494 0
M  V30 3517 H 317.004 -5.01 1.31222 0
M  V30 3518 H 313.681 -4.03378 -1.07668 0
M  V30 3519 H 315.071 -6.33175 2.24808 0
M  V30 3520 N 317.792 -0.46758 -1.50504 0
M  V30 3521 C 319.208 -0.121533 -1.59137 0
M  V30 3522 C 319.408 1.3717 -1.47603 0
M  V30 3523 O 318.464 2.14464 -1.33272 0
M  V30 3524 C 319.777 -0.6686 -2.93173 0
M  V30 3525 C 321.325 -0.631716 -3.06559 0
M  V30 3526 C 321.8 -1.15627 -4.43164 0
M  V30 3527 N 323.291 -1.11553 -4.49567 0
M  V30 3528 C 324.026 -1.49195 -5.5365 0
M  V30 3529 N 323.522 -1.94269 -6.65005 0
M  V30 3530 N 325.315 -1.4082 -5.44175 0
M  V30 3531 H 317.466 -1.4388 -1.56245 0
M  V30 3532 H 319.729 -0.594784 -0.738198 0
M  V30 3533 H 319.435 -1.71453 -3.07078 0
M  V30 3534 H 319.309 -0.11021 -3.77039 0
M  V30 3535 H 321.696 0.405297 -2.92304 0
M  V30 3536 H 321.777 -1.22687 -2.24458 0
M  V30 3537 H 321.421 -2.1919 -4.58168 0
M  V30 3538 H 321.351 -0.537365 -5.23851 0
M  V30 3539 H 323.842 -0.784895 -3.69659 0
M  V30 3540 H 324.155 -2.21148 -7.40482 0
M  V30 3541 H 322.5 -1.98219 -6.66134 0
M  V30 3542 H 325.691 -1.0545 -4.56068 0
M  V30 3543 H 325.864 -1.70481 -6.25172 0
M  V30 3544 N 319.27 1.56325 -0.20005 0
M  V30 3545 C 320.681 1.8408 0.31167 0
M  V30 3546 C 321.032 1.12087 1.61031 0
M  V30 3547 O 320.157 0.38332 2.12978 0
M  V30 3548 C 320.752 3.33932 0.57226 0
M  V30 3549 C 319.311 3.6208 1.02834 0
M  V30 3550 C 318.458 2.77186 0.079634 0
M  V30 3551 H 321.409 1.52939 -0.423729 0
M  V30 3552 H 321.43 3.52971 1.42096 0
M  V30 3553 H 320.942 3.86303 -0.37308 0
M  V30 3554 H 319.043 3.15147 1.98778 0
M  V30 3555 H 319.156 4.7023 0.917624 0
M  V30 3556 H 317.52 2.47951 0.582448 0
M  V30 3557 H 318.303 3.32347 -0.860238 0
M  V30 3558 N 320.748 -0.0735177 1.57428 0
M  V30 3559 C 322.025 -0.805903 1.78226 0
M  V30 3560 C 322.405 -1.95874 0.787189 0
M  V30 3561 O 321.753 -2.2779 -0.180029 0
M  V30 3562 C 321.963 -1.28045 3.24662 0
M  V30 3563 C 323.311 -1.71453 3.88444 0
M  V30 3564 O 324.335 -1.37616 3.28543 0
M  V30 3565 O 323.194 -2.34093 4.93825 0
M  V30 3566 H 320.288 -0.386041 0.73137 0
M  V30 3567 H 322.834 -0.0537269 1.69615 0
M  V30 3568 H 321.606 -0.455476 3.8864 0
M  V30 3569 H 321.229 -2.094 3.37991 0
M  V30 3570 N 322.226 -1.5378 -0.344866 0
M  V30 3571 C 323.156 -1.84662 -1.42906 0
M  V30 3572 C 324.137 -0.701648 -1.54955 0
M  V30 3573 O 325.322 -0.953438 -1.69184 0
M  V30 3574 C 322.452 -2.05503 -2.79974 0
M  V30 3575 C 321.406 -3.21318 -2.82734 0
M  V30 3576 C 320.732 -3.2749 -4.22675 0
M  V30 3577 C 322.032 -4.59456 -2.48389 0
M  V30 3578 H 323.726 -2.75461 -1.17311 0
M  V30 3579 H 321.272 -1.32542 -0.562896 0
M  V30 3580 H 323.225 -2.25691 -3.55867 0
M  V30 3581 H 321.949 -1.11434 -3.07002 0
M  V30 3582 H 320.608 -3.00984 -2.09294 0
M  V30 3583 H 320.256 -2.31019 -4.4681 0
M  V30 3584 H 319.956 -4.05316 -4.25433 0
M  V30 3585 H 321.48 -3.49887 -5.00412 0
M  V30 3586 H 322.894 -4.79667 -3.13995 0
M  V30 3587 H 321.291 -5.39675 -2.62432 0
M  V30 3588 H 322.361 -4.63155 -1.4358 0
M  V30 3589 N 323.704 0.605807 -1.45491 0
M  V30 3590 C 324.953 1.36086 -1.48874 0
M  V30 3591 C 325.266 1.95131 -0.135333 0
M  V30 3592 O 326.472 2.7146 -0.0468144 0
M  V30 3593 C 324.928 2.46518 -2.62215 0
M  V30 3594 C 324.536 1.93877 -4.03876 0
M  V30 3595 C 326.28 3.23512 -2.74846 0
M  V30 3596 C 324.187 3.01801 -5.08596 0
M  V30 3597 H 323.117 0.511497 -0.553974 0
M  V30 3598 H 325.768 0.649089 -1.71636 0
M  V30 3599 H 324.15 3.20388 -2.32739 0
M  V30 3600 H 325.324 1.26704 -4.43038 0
M  V30 3601 H 323.639 1.29622 -3.95711 0
M  V30 3602 H 326.236 4.04013 -3.50253 0
M  V30 3603 H 326.579 3.74631 -1.81542 0
M  V30 3604 H 327.112 2.56742 -3.03856 0
M  V30 3605 H 323.851 2.55597 -6.03614 0
M  V30 3606 H 323.371 3.67535 -4.74002 0
M  V30 3607 H 325.05 3.66152 -5.33424 0
M  V30 3608 N 325.182 1.32811 0.848464 0
M  V30 3609 C 326.459 1.14334 1.58704 0
M  V30 3610 C 326.839 -0.293948 2.09043 0
M  V30 3611 O 326.187 -1.29153 1.88499 0
M  V30 3612 C 326.397 2.17626 2.72837 0
M  V30 3613 C 327.745 2.51282 3.42261 0
M  V30 3614 O 328.769 2.16219 2.83068 0
M  V30 3615 O 327.628 3.11413 4.49093 0
M  V30 3616 H 324.722 0.441601 0.699226 0
M  V30 3617 H 327.268 1.44362 0.892053 0
M  V30 3618 H 326.04 3.14211 2.3321 0
M  V30 3619 H 325.663 1.88628 3.50008 0
M  V30 3620 N 326.66 -1.06551 1.16123 0
M  V30 3621 C 327.907 -1.79302 0.941126 0
M  V30 3622 C 328.235 -1.87105 -0.531235 0
M  V30 3623 O 327.49 -1.35692 -1.41018 0
M  V30 3624 C 327.789 -3.23911 1.51052 0
M  V30 3625 C 327.455 -3.36193 3.00475 0
M  V30 3626 C 326.117 -3.39252 3.41265 0
M  V30 3627 C 328.469 -3.38326 3.96465 0
M  V30 3628 C 325.797 -3.42057 4.76669 0
M  V30 3629 C 328.149 -3.4267 5.31752 0
M  V30 3630 C 326.813 -3.4401 5.72026 0
M  V30 3631 H 326.083 -0.656111 0.344382 0
M  V30 3632 H 328.73 -1.25325 1.44796 0
M  V30 3633 H 327.035 -3.80723 0.925063 0
M  V30 3634 H 328.732 -3.78793 1.31593 0
M  V30 3635 H 325.322 -3.34516 2.6795 0
M  V30 3636 H 329.506 -3.35176 3.6602 0
M  V30 3637 H 324.762 -3.41398 5.07206 0
M  V30 3638 H 328.936 -3.43268 6.05921 0
M  V30 3639 H 326.563 -3.45937 6.76928 0
M  V30 3640 N 328.138 -0.959301 -1.25041 0
M  V30 3641 C 329.415 -0.533805 -1.88175 0
M  V30 3642 C 329.795 0.988994 -1.865 0
M  V30 3643 O 329.143 1.85677 -1.33177 0
M  V30 3644 C 329.353 -1.11575 -3.30684 0
M  V30 3645 C 330.701 -1.19548 -4.07423 0
M  V30 3646 O 331.725 -1.06765 -3.39823 0
M  V30 3647 O 330.584 -1.39656 -5.28354 0
M  V30 3648 H 327.678 -0.176772 -0.807887 0
M  V30 3649 H 330.224 -1.05303 -1.33076 0
M  V30 3650 H 328.996 -2.15884 -3.26358 0
M  V30 3651 H 328.619 -0.580059 -3.93346 0
M  V30 3652 N 329.616 1.39756 -0.72842 0
M  V30 3653 C 330.563 2.30647 -0.0841519 0
M  V30 3654 C 331.533 1.48869 0.7367 0
M  V30 3655 O 332.718 1.77574 0.698015 0
M  V30 3656 C 329.858 3.35165 0.822091 0
M  V30 3657 C 328.971 4.31999 -0.0106663 0
M  V30 3658 C 328.106 5.23585 0.896241 0
M  V30 3659 C 327.145 6.12072 0.0583381 0
M  V30 3660 N 326.282 6.96035 0.920818 0
M  V30 3661 H 331.122 2.85173 -0.864891 0
M  V30 3662 H 328.659 1.40422 -0.438179 0
M  V30 3663 H 330.617 3.94345 1.36189 0
M  V30 3664 H 329.247 2.8211 1.56888 0
M  V30 3665 H 328.299 3.74492 -0.66781 0
M  V30 3666 H 329.611 4.9443 -0.658825 0
M  V30 3667 H 328.765 5.87759 1.50412 0
M  V30 3668 H 327.504 4.61459 1.57819 0
M  V30 3669 H 326.509 5.46916 -0.562389 0
M  V30 3670 H 327.734 6.76261 -0.6203 0
M  V30 3671 H 325.68 6.36485 1.58818 0
M  V30 3672 H 325.597 7.55284 0.32899 0
M  V30 3673 H 326.865 7.64646 1.51447 0
M  V30 3674 N 331.094 0.475555 1.50254 0
M  V30 3675 C 332.024 -0.30611 2.31485 0
M  V30 3676 C 333.005 -0.986228 1.38591 0
M  V30 3677 O 334.19 -0.982541 1.67511 0
M  V30 3678 C 331.32 -1.38588 3.1845 0
M  V30 3679 C 330.274 -0.827115 4.19932 0
M  V30 3680 C 329.6 -2.00551 4.95665 0
M  V30 3681 C 330.9 0.16463 5.2204 0
M  V30 3682 H 332.594 0.371866 2.97082 0
M  V30 3683 H 330.14 0.180282 1.42867 0
M  V30 3684 H 332.093 -1.94023 3.74076 0
M  V30 3685 H 330.817 -2.09269 2.50747 0
M  V30 3686 H 329.476 -0.294702 3.65414 0
M  V30 3687 H 329.124 -2.6994 4.2443 0
M  V30 3688 H 328.824 -1.63784 5.64313 0
M  V30 3689 H 330.348 -2.56468 5.54127 0
M  V30 3690 H 331.762 -0.300699 5.72511 0
M  V30 3691 H 330.159 0.446813 5.98434 0
M  V30 3692 H 331.229 1.08905 4.72512 0
M  V30 3693 N 332.573 -1.56217 0.208337 0
M  V30 3694 C 333.52 -2.19699 -0.707192 0
M  V30 3695 C 334.49 -1.14836 -1.20008 0
M  V30 3696 O 335.675 -1.4314 -1.26157 0
M  V30 3697 C 332.815 -2.87061 -1.91546 0
M  V30 3698 C 331.928 -4.06483 -1.46271 0
M  V30 3699 C 331.063 -4.61665 -2.62752 0
M  V30 3700 C 330.102 -5.73417 -2.14147 0
M  V30 3701 N 329.239 -6.22948 -3.23853 0
M  V30 3702 H 334.079 -2.97575 -0.159111 0
M  V30 3703 H 331.616 -1.46948 -0.0667874 0
M  V30 3704 H 333.574 -3.24294 -2.62468 0
M  V30 3705 H 332.204 -2.11725 -2.43664 0
M  V30 3706 H 331.256 -3.74825 -0.648886 0
M  V30 3707 H 332.568 -4.87271 -1.06622 0
M  V30 3708 H 331.722 -5.01272 -3.41776 0
M  V30 3709 H 330.461 -3.80013 -3.05682 0
M  V30 3710 H 329.466 -5.33326 -1.33581 0
M  V30 3711 H 330.691 -6.56897 -1.72232 0
M  V30 3712 H 328.637 -5.44213 -3.6629 0
M  V30 3713 H 328.554 -6.98823 -2.88414 0
M  V30 3714 H 329.822 -6.6721 -4.03052 0
M  V30 3715 N 334.051 0.0651679 -1.57465 0
M  V30 3716 C 334.998 1.07675 -2.04144 0
M  V30 3717 C 335.968 1.38071 -0.923335 0
M  V30 3718 O 337.153 1.49026 -1.19146 0
M  V30 3719 C 334.293 2.38337 -2.49579 0
M  V30 3720 C 333.406 2.14413 -3.75035 0
M  V30 3721 C 332.541 3.38686 -4.09225 0
M  V30 3722 C 331.58 3.10156 -5.27702 0
M  V30 3723 N 330.717 4.26778 -5.57499 0
M  V30 3724 H 335.557 0.671716 -2.90331 0
M  V30 3725 H 333.094 0.3201 -1.43575 0
M  V30 3726 H 335.052 3.14632 -2.73975 0
M  V30 3727 H 333.682 2.7663 -1.6636 0
M  V30 3728 H 332.734 1.2878 -3.57939 0
M  V30 3729 H 334.046 1.89344 -4.61466 0
M  V30 3730 H 333.2 4.23373 -4.34558 0
M  V30 3731 H 331.939 3.66837 -3.21374 0
M  V30 3732 H 330.944 2.23866 -5.02159 0
M  V30 3733 H 332.169 2.8332 -6.17176 0
M  V30 3734 H 330.115 4.54948 -4.72608 0
M  V30 3735 H 330.032 4.05005 -6.38362 0
M  V30 3736 H 331.3 5.12443 -5.87386 0
M  V30 3737 N 335.529 1.53961 0.336706 0
M  V30 3738 C 336.754 1.75797 1.10046 0
M  V30 3739 C 337.179 0.498985 1.81361 0
M  V30 3740 O 336.537 -0.548769 1.72795 0
M  V30 3741 C 336.585 2.94257 2.08436 0
M  V30 3742 O 335.689 2.64883 3.16087 0
M  V30 3743 H 335.03 0.582936 0.317934 0
M  V30 3744 H 337.56 2.00945 0.38501 0
M  V30 3745 H 337.57 3.21237 2.51537 0
M  V30 3746 H 336.245 3.85564 1.55927 0
M  V30 3747 H 334.822 2.48812 2.77753 0
M  V30 3748 N 337.007 -0.598083 1.45811 0
M  V30 3749 C 337.955 -1.72932 1.55555 0
M  V30 3750 C 338.949 -1.63984 0.424921 0
M  V30 3751 O 340.155 -1.69663 0.601205 0
M  V30 3752 H 336.53 -0.571489 0.488779 0
M  V30 3753 H 338.501 -1.61842 2.50699 0
M  V30 3754 C 337.25 -3.11318 1.54843 0
M  V30 3755 H 336.573 -3.18867 2.41172 0
M  V30 3756 H 338.013 -3.90274 1.65717 0
M  V30 3757 C 336.472 -3.3578 0.274427 0
M  V30 3758 O 337.002 -3.9654 -0.641778 0
M  V30 3759 N 335.208 -2.90119 0.167139 0
M  V30 3760 H 334.755 -2.40855 0.913596 0
M  V30 3761 H 334.713 -3.0686 -0.684435 0
M  V30 3762 N 338.485 -1.33259 -0.841409 0
M  V30 3763 C 339.448 -1.23221 -1.9326 0
M  V30 3764 C 340.448 -0.151895 -1.60081 0
M  V30 3765 O 341.638 -0.403246 -1.69468 0
M  V30 3766 C 338.77 -0.898123 -3.28856 0
M  V30 3767 H 339.963 -2.2021 -2.03587 0
M  V30 3768 H 337.516 -1.17281 -1.03319 0
M  V30 3769 H 338.251 0.0693841 -3.24226 0
M  V30 3770 H 338.036 -1.67934 -3.54317 0
M  V30 3771 H 339.526 -0.852563 -4.08805 0
M  V30 3772 N 339.963 1.05934 -1.16686 0
M  V30 3773 C 340.913 2.11764 -0.844978 0
M  V30 3774 C 341.897 1.59922 0.177178 0
M  V30 3775 O 343.089 1.76983 -0.0241768 0
M  V30 3776 C 340.218 3.41493 -0.351812 0
M  V30 3777 C 339.304 4.00152 -1.40496 0
M  V30 3778 N 339.695 4.32874 -2.61636 0
M  V30 3779 C 337.993 4.278 -1.26106 0
M  V30 3780 C 338.694 4.79552 -3.29249 0
M  V30 3781 N 337.67 4.79211 -2.56628 0
M  V30 3782 H 341.472 2.34916 -1.76612 0
M  V30 3783 H 338.986 1.23511 -1.05446 0
M  V30 3784 H 340.983 4.16773 -0.102796 0
M  V30 3785 H 339.643 3.19778 0.56322 0
M  V30 3786 H 340.654 4.23109 -2.98663 0
M  V30 3787 H 337.331 4.15511 -0.407081 0
M  V30 3788 H 338.721 5.14045 -4.32675 0
M  V30 3789 N 341.441 0.965919 1.2453 0
M  V30 3790 C 342.671 0.643451 1.96324 0
M  V30 3791 C 343.079 -0.790927 1.71875 0
M  V30 3792 O 342.422 -1.54208 0.998273 0
M  V30 3793 C 342.484 0.836078 3.49643 0
M  V30 3794 C 342.148 2.24975 3.97788 0
M  V30 3795 C 343.145 3.22735 4.07601 0
M  V30 3796 C 340.83 2.57697 4.31158 0
M  V30 3797 C 342.824 4.51303 4.50116 0
M  V30 3798 C 340.511 3.86492 4.73357 0
M  V30 3799 C 341.509 4.83107 4.828 0
M  V30 3800 O 341.197 6.09605 5.24058 0
M  V30 3801 H 340.929 0.239223 0.632257 0
M  V30 3802 H 343.483 1.29587 1.59362 0
M  V30 3803 H 341.713 0.12649 3.86493 0
M  V30 3804 H 343.402 0.512965 4.02646 0
M  V30 3805 H 344.168 2.98783 3.82039 0
M  V30 3806 H 340.047 1.83216 4.23028 0
M  V30 3807 H 343.591 5.26716 4.57401 0
M  V30 3808 H 339.488 4.10245 4.98366 0
M  V30 3809 H 340.256 6.13146 5.42213 0
M  V30 3810 N 342.919 -1.39368 0.735821 0
M  V30 3811 C 343.867 -2.32443 0.0855131 0
M  V30 3812 C 344.861 -1.53104 -0.724954 0
M  V30 3813 O 346.067 -1.68762 -0.626047 0
M  V30 3814 H 342.442 -0.751948 0.00885257 0
M  V30 3815 H 344.413 -2.84916 0.886883 0
M  V30 3816 C 343.162 -3.38206 -0.806983 0
M  V30 3817 H 342.485 -3.99335 -0.19274 0
M  V30 3818 H 343.925 -4.05779 -1.2296 0
M  V30 3819 C 342.384 -2.75321 -1.94165 0
M  V30 3820 O 342.914 -2.63231 -3.03435 0
M  V30 3821 N 341.12 -2.33396 -1.73132 0
M  V30 3822 H 340.667 -2.4343 -0.842596 0
M  V30 3823 H 340.625 -1.91661 -2.49225 0
M  V30 3824 N 344.397 -0.483516 -1.5 0
M  V30 3825 C 345.327 0.293829 -2.31644 0
M  V30 3826 C 346.308 0.978864 -1.39112 0
M  V30 3827 O 347.493 0.973644 -1.68029 0
M  V30 3828 C 344.623 1.36897 -3.19181 0
M  V30 3829 C 343.577 0.804833 -4.20365 0
M  V30 3830 C 342.903 1.9792 -4.96721 0
M  V30 3831 C 344.203 -0.192313 -5.21946 0
M  V30 3832 H 345.897 -0.387616 -2.9688 0
M  V30 3833 H 343.443 -0.187856 -1.42769 0
M  V30 3834 H 345.396 1.92037 -3.751 0
M  V30 3835 H 344.12 2.07936 -2.51853 0
M  V30 3836 H 342.779 0.275319 -3.65565 0
M  V30 3837 H 342.427 2.67686 -4.25856 0
M  V30 3838 H 342.127 1.60789 -5.65173 0
M  V30 3839 H 343.651 2.53526 -5.55479 0
M  V30 3840 H 345.065 0.270333 -5.72662 0
M  V30 3841 H 343.462 -0.478543 -5.98189 0
M  V30 3842 H 344.532 -1.11409 -4.71928 0
M  V30 3843 N 345.875 1.56104 -0.216619 0
M  V30 3844 C 346.807 2.17339 0.72776 0
M  V30 3845 C 347.82 1.14109 1.16116 0
M  V30 3846 O 349.009 1.4111 1.09317 0
M  V30 3847 C 346.109 2.73818 1.99693 0
M  V30 3848 C 345.282 4.02168 1.71988 0
M  V30 3849 C 344.341 4.43259 2.83562 0
M  V30 3850 O 343.367 5.10257 2.52244 0
M  V30 3851 N 344.569 4.08535 4.12407 0
M  V30 3852 H 347.334 2.99005 0.203983 0
M  V30 3853 H 344.895 1.61861 -0.0354289 0
M  V30 3854 H 346.887 2.9828 2.73516 0
M  V30 3855 H 345.457 1.96483 2.43132 0
M  V30 3856 H 344.677 3.85612 0.818337 0
M  V30 3857 H 345.965 4.85907 1.50903 0
M  V30 3858 H 345.363 3.54687 4.40696 0
M  V30 3859 H 343.92 4.37901 4.8279 0
M  V30 3860 N 347.353 -0.0568162 1.57498 0
M  V30 3861 C 348.301 -1.08452 2.05769 0
M  V30 3862 C 349.295 -1.39164 0.965903 0
M  V30 3863 O 350.501 -1.38395 1.15095 0
M  V30 3864 H 346.876 -0.367148 0.656282 0
M  V30 3865 H 348.847 -0.651368 2.91204 0
M  V30 3866 C 347.596 -2.38543 2.52968 0
M  V30 3867 H 346.919 -2.15765 3.36579 0
M  V30 3868 H 348.359 -3.08863 2.90481 0
M  V30 3869 C 346.818 -3.05562 1.41893 0
M  V30 3870 O 347.348 -3.94262 0.769442 0
M  V30 3871 N 345.554 -2.6643 1.16032 0
M  V30 3872 H 345.101 -1.94387 1.6903 0
M  V30 3873 H 345.059 -3.11593 0.419219 0
M  V30 3874 N 348.832 -1.54138 -0.328536 0
M  V30 3875 C 349.795 -1.82462 -1.38709 0
M  V30 3876 C 350.795 -0.696229 -1.44946 0
M  V30 3877 O 351.985 -0.964535 -1.4506 0
M  V30 3878 C 349.117 -1.98018 -2.77492 0
M  V30 3879 H 350.31 -2.77037 -1.14851 0
M  V30 3880 H 347.863 -1.45779 -0.563751 0
M  V30 3881 H 348.598 -1.05637 -3.06613 0
M  V30 3882 H 348.383 -2.80124 -2.74359 0
M  V30 3883 H 349.873 -2.21396 -3.54081 0
M  V30 3884 N 350.31 0.590341 -1.46126 0
M  V30 3885 C 351.557 1.34882 -1.5104 0
M  V30 3886 C 351.885 1.93849 -0.159021 0
M  V30 3887 O 351.14 1.76544 0.844436 0
M  V30 3888 C 351.439 2.5032 -2.55097 0
M  V30 3889 C 351.105 2.09394 -3.99331 0
M  V30 3890 C 349.767 1.97947 -4.38601 0
M  V30 3891 C 352.119 1.77712 -4.89967 0
M  V30 3892 C 349.447 1.53065 -5.66381 0
M  V30 3893 C 351.799 1.34312 -6.18177 0
M  V30 3894 C 350.463 1.21436 -6.56361 0
M  V30 3895 H 349.733 0.493568 -0.552695 0
M  V30 3896 H 352.38 0.665539 -1.79563 0
M  V30 3897 H 350.685 3.24062 -2.20207 0
M  V30 3898 H 352.382 3.08541 -2.56132 0
M  V30 3899 H 348.972 2.19235 -3.68285 0
M  V30 3900 H 353.156 1.85445 -4.60352 0
M  V30 3901 H 348.412 1.41733 -5.94745 0
M  V30 3902 H 352.586 1.08849 -6.87841 0
M  V30 3903 H 350.213 0.864345 -7.5527 0
M  V30 3904 N 351.788 1.33704 0.83433 0
M  V30 3905 C 352.736 1.24323 1.96587 0
M  V30 3906 C 353.73 0.143659 1.6879 0
M  V30 3907 O 354.936 0.30791 1.77347 0
M  V30 3908 H 351.311 0.385925 0.645419 0
M  V30 3909 H 353.282 2.19978 2.01624 0
M  V30 3910 C 352.031 1.00394 3.32891 0
M  V30 3911 H 351.354 1.84231 3.54822 0
M  V30 3912 H 352.794 0.97862 4.12552 0
M  V30 3913 C 351.253 -0.293047 3.35623 0
M  V30 3914 O 351.783 -1.29823 3.80143 0
M  V30 3915 N 349.989 -0.322174 2.88809 0
M  V30 3916 H 349.536 0.496379 2.52772 0
M  V30 3917 H 349.494 -1.18977 2.91019 0
M  V30 3918 N 353.266 -1.05314 1.17247 0
M  V30 3919 C 354.196 -2.1498 0.911362 0
M  V30 3920 C 355.177 -1.69471 -0.146169 0
M  V30 3921 O 356.362 -1.942 0.003812 0
M  V30 3922 C 353.492 -3.4472 0.422528 0
M  V30 3923 C 352.446 -4.03789 1.4191 0
M  V30 3924 C 351.772 -5.28858 0.788274 0
M  V30 3925 C 353.072 -4.41418 2.7919 0
M  V30 3926 H 354.766 -2.3708 1.82848 0
M  V30 3927 H 352.312 -1.13938 0.880569 0
M  V30 3928 H 354.265 -4.20787 0.227289 0
M  V30 3929 H 352.989 -3.22269 -0.530123 0
M  V30 3930 H 351.648 -3.2979 1.60106 0
M  V30 3931 H 351.296 -5.02709 -0.171173 0
M  V30 3932 H 350.996 -5.69338 1.45353 0
M  V30 3933 H 352.52 -6.07612 0.603282 0
M  V30 3934 H 353.934 -5.08524 2.64719 0
M  V30 3935 H 352.331 -4.92913 3.42282 0
M  V30 3936 H 353.401 -3.51819 3.33693 0
M  V30 3937 N 354.744 -0.972509 -1.24016 0
M  V30 3938 C 355.707 -0.511403 -2.23422 0
M  V30 3939 C 356.707 0.394679 -1.55881 0
M  V30 3940 O 357.897 0.189469 -1.73167 0
M  V30 3941 C 355.029 0.258769 -3.39916 0
M  V30 3942 H 356.222 -1.39024 -2.6573 0
M  V30 3943 H 353.775 -0.757585 -1.36713 0
M  V30 3944 H 354.51 1.1545 -3.03054 0
M  V30 3945 H 354.295 -0.391522 -3.9014 0
M  V30 3946 H 355.785 0.570244 -4.13688 0
M  V30 3947 N 356.222 1.38976 -0.743202 0
M  V30 3948 C 357.132 2.3434 -0.110399 0
M  V30 3949 C 358.148 1.58741 0.712559 0
M  V30 3950 O 359.324 1.9099 0.639125 0
M  V30 3951 C 356.389 3.37812 0.780012 0
M  V30 3952 C 355.45 4.29263 -0.0561319 0
M  V30 3953 C 354.683 5.27793 0.791875 0
M  V30 3954 O 354.906 5.33043 2.03031 0
M  V30 3955 O 353.84 6.01512 0.216183 0
M  V30 3956 H 357.666 2.90129 -0.897714 0
M  V30 3957 H 355.251 1.40643 -0.503966 0
M  V30 3958 H 357.133 4.01194 1.28923 0
M  V30 3959 H 355.808 2.84395 1.546 0
M  V30 3960 H 354.715 3.69076 -0.611056 0
M  V30 3961 H 356.048 4.85907 -0.784531 0
M  V30 3962 N 357.7 0.491464 1.49741 0
M  V30 3963 C 358.632 -0.328609 2.26832 0
M  V30 3964 C 359.645 -0.939113 1.32983 0
M  V30 3965 O 360.834 -0.824067 1.58339 0
M  V30 3966 C 357.934 -1.47675 3.05033 0
M  V30 3967 C 357.107 -0.975305 4.26388 0
M  V30 3968 C 356.166 -1.99991 4.86714 0
M  V30 3969 O 355.192 -1.57229 5.47054 0
M  V30 3970 N 356.394 -3.32962 4.75517 0
M  V30 3971 H 359.159 0.332377 2.97851 0
M  V30 3972 H 356.72 0.323441 1.58636 0
M  V30 3973 H 358.712 -2.15954 3.42266 0
M  V30 3974 H 357.282 -2.04206 2.36683 0
M  V30 3975 H 356.502 -0.117723 3.94024 0
M  V30 3976 H 357.79 -0.618531 5.05026 0
M  V30 3977 H 357.188 -3.70399 4.27576 0
M  V30 3978 H 355.745 -3.96982 5.16961 0
M  V30 3979 N 359.178 -1.55987 0.224894 0
M  V30 3980 C 360.128 -2.17076 -0.697296 0
M  V30 3981 C 361.112 -1.12006 -1.15514 0
M  V30 3982 O 362.304 -1.37985 -1.10857 0
M  V30 3983 C 359.433 -2.85679 -1.90374 0
M  V30 3984 C 358.519 -3.97977 -1.46543 0
M  V30 3985 N 358.91 -5.00359 -0.739909 0
M  V30 3986 C 357.208 -4.10128 -1.75245 0
M  V30 3987 C 357.909 -5.79407 -0.515939 0
M  V30 3988 N 356.885 -5.32892 -1.07364 0
M  V30 3989 H 360.687 -2.93592 -0.134594 0
M  V30 3990 H 358.201 -1.62379 0.0262885 0
M  V30 3991 H 360.198 -3.27857 -2.57518 0
M  V30 3992 H 358.858 -2.1066 -2.47088 0
M  V30 3993 H 359.869 -5.16412 -0.392253 0
M  V30 3994 H 356.546 -3.46263 -2.33255 0
M  V30 3995 H 357.936 -6.71872 0.0617349 0
M  V30 3996 N 360.656 0.0484629 -1.57525 0
M  V30 3997 C 361.586 1.0549 -2.08313 0
M  V30 3998 C 362.567 1.38929 -0.981463 0
M  V30 3999 O 363.752 1.48151 -1.25558 0
M  V30 4000 C 360.882 2.36162 -2.54646 0
M  V30 4001 C 359.836 2.17016 -3.68901 0
M  V30 4002 C 359.162 3.53278 -4.01371 0
M  V30 4003 C 360.462 1.57219 -4.98076 0
M  V30 4004 H 362.156 0.632195 -2.92649 0
M  V30 4005 H 359.702 0.302654 -1.40784 0
M  V30 4006 H 361.655 3.06882 -2.88793 0
M  V30 4007 H 360.379 2.80456 -1.67368 0
M  V30 4008 H 359.038 1.48733 -3.35073 0
M  V30 4009 H 358.686 3.95185 -3.11188 0
M  V30 4010 H 358.386 3.41299 -4.78318 0
M  V30 4011 H 359.91 4.25391 -4.38035 0
M  V30 4012 H 361.324 2.17832 -5.30304 0
M  V30 4013 H 359.721 1.55871 -5.79503 0
M  V30 4014 H 360.791 0.535956 -4.81929 0
M  V30 4015 N 362.134 1.5431 0.320358 0
M  V30 4016 C 363.382 1.72327 1.05583 0
M  V30 4017 C 363.703 0.50149 1.88441 0
M  V30 4018 O 362.973 -0.48448 1.89815 0
M  V30 4019 H 361.553 0.635387 0.3928 0
M  V30 4020 H 364.215 1.91621 0.356019 0
M  V30 4021 H 363.311 2.60426 1.72003 0
M  V30 4022 N 363.613 -0.582584 1.46437 0
M  V30 4023 C 364.543 -1.70187 1.59871 0
M  V30 4024 C 365.524 -1.64066 0.449042 0
M  V30 4025 O 366.709 -1.82081 0.6753 0
M  V30 4026 C 363.839 -3.08827 1.58881 0
M  V30 4027 C 362.793 -3.29779 2.72819 0
M  V30 4028 C 362.119 -4.68947 2.5689 0
M  V30 4029 C 363.419 -3.17601 4.1464 0
M  V30 4030 H 365.113 -1.592 2.53566 0
M  V30 4031 H 362.659 -0.764472 1.22032 0
M  V30 4032 H 364.612 -3.86951 1.66873 0
M  V30 4033 H 363.336 -3.20713 0.617306 0
M  V30 4034 H 361.995 -2.54054 2.64296 0
M  V30 4035 H 361.643 -4.77599 1.57823 0
M  V30 4036 H 361.343 -4.83919 3.33312 0
M  V30 4037 H 362.867 -5.4924 2.66773 0
M  V30 4038 H 364.281 -3.8557 4.24274 0
M  V30 4039 H 362.678 -3.44094 4.9165 0
M  V30 4040 H 363.748 -2.14681 4.34788 0
M  V30 4041 N 365.091 -1.34144 -0.827227 0
M  V30 4042 C 366.319 -1.29325 -1.61501 0
M  V30 4043 C 366.734 0.13354 -1.88327 0
M  V30 4044 O 366.091 1.0793 -1.47164 0
M  V30 4045 C 366.142 -2.07746 -2.95844 0
M  V30 4046 O 365.863 -3.4486 -2.70191 0
M  V30 4047 C 367.364 -2.10273 -3.90256 0
M  V30 4048 H 364.584 -0.445069 -0.50215 0
M  V30 4049 H 367.128 -1.76693 -1.02955 0
M  V30 4050 H 365.283 -1.6403 -3.5096 0
M  V30 4051 H 365.697 -3.85345 -3.55822 0
M  V30 4052 H 367.171 -2.69575 -4.81698 0
M  V30 4053 H 367.648 -1.096 -4.25305 0
M  V30 4054 H 368.254 -2.54059 -3.41078 0
M  V30 4055 N 366.569 1.04691 -1.17803 0
M  V30 4056 C 367.516 2.12557 -0.899343 0
M  V30 4057 C 368.486 1.65339 0.158771 0
M  V30 4058 O 369.671 1.90789 0.0204797 0
M  V30 4059 C 366.811 3.42481 -0.424315 0
M  V30 4060 C 365.924 4.03346 -1.54713 0
M  V30 4061 C 365.059 5.21208 -1.02546 0
M  V30 4062 C 364.098 5.74089 -2.12339 0
M  V30 4063 N 363.235 6.83247 -1.61612 0
M  V30 4064 H 368.075 2.35734 -1.823 0
M  V30 4065 H 365.612 1.1564 -0.909159 0
M  V30 4066 H 367.57 4.16996 -0.130421 0
M  V30 4067 H 366.2 3.19471 0.462377 0
M  V30 4068 H 365.252 3.2622 -1.95664 0
M  V30 4069 H 366.564 4.38628 -2.37501 0
M  V30 4070 H 365.718 6.02812 -0.685718 0
M  V30 4071 H 364.457 4.87414 -0.167084 0
M  V30 4072 H 363.462 4.91111 -2.47165 0
M  V30 4073 H 364.687 6.0993 -2.98601 0
M  V30 4074 H 362.633 6.5134 -0.780533 0
M  V30 4075 H 362.55 7.17559 -2.38003 0
M  V30 4076 H 363.818 7.68491 -1.30545 0
M  V30 4077 N 368.047 0.979072 1.23499 0
M  V30 4078 C 368.977 0.537606 2.27227 0
M  V30 4079 C 369.958 -0.428539 1.64613 0
M  V30 4080 O 371.143 -0.322191 1.91509 0
M  V30 4081 C 368.273 -0.162052 3.46922 0
M  V30 4082 C 367.227 0.721242 4.21879 0
M  V30 4083 C 366.553 -0.110555 5.34586 0
M  V30 4084 C 367.853 2.01141 4.82016 0
M  V30 4085 H 369.547 1.40462 2.64406 0
M  V30 4086 H 367.093 0.67684 1.27102 0
M  V30 4087 H 369.046 -0.482192 4.18632 0
M  V30 4088 H 367.77 -1.06351 3.08799 0
M  V30 4089 H 366.429 1.02482 3.51984 0
M  V30 4090 H 366.077 -1.0125 4.92704 0
M  V30 4091 H 365.777 0.477325 5.85658 0
M  V30 4092 H 367.301 -0.425107 6.09118 0
M  V30 4093 H 368.715 1.75612 5.45741 0
M  V30 4094 H 367.112 2.54695 5.43369 0
M  V30 4095 H 368.182 2.69909 4.02836 0
M  V30 4096 N 369.525 -1.3858 0.750561 0
M  V30 4097 C 370.455 -2.33102 0.136237 0
M  V30 4098 C 371.436 -1.54713 -0.706965 0
M  V30 4099 O 372.621 -1.83043 -0.648769 0
M  V30 4100 C 369.751 -3.38882 -0.760017 0
M  V30 4101 C 368.705 -4.27995 -0.0197785 0
M  V30 4102 C 368.031 -5.24605 -1.03408 0
M  V30 4103 C 369.331 -5.09554 1.14684 0
M  V30 4104 H 371.025 -2.84726 0.925822 0
M  V30 4105 H 368.571 -1.36898 0.446654 0
M  V30 4106 H 370.524 -4.0397 -1.19943 0
M  V30 4107 H 369.248 -2.85734 -1.58189 0
M  V30 4108 H 367.907 -3.64409 0.400184 0
M  V30 4109 H 367.555 -4.67746 -1.84994 0
M  V30 4110 H 367.255 -5.85081 -0.543464 0
M  V30 4111 H 368.779 -5.9257 -1.47288 0
M  V30 4112 H 370.193 -5.67899 0.785118 0
M  V30 4113 H 368.59 -5.7925 1.56812 0
M  V30 4114 H 369.66 -4.4347 1.96118 0
M  V30 4115 N 371.003 -0.499398 -1.49478 0
M  V30 4116 C 372.28 0.108629 -1.95298 0
M  V30 4117 C 372.66 1.54282 -1.44084 0
M  V30 4118 O 372.008 2.18944 -0.653908 0
M  V30 4119 C 372.218 0.0229111 -3.48992 0
M  V30 4120 C 373.566 0.197643 -4.2414 0
M  V30 4121 O 374.59 0.0981735 -3.56065 0
M  V30 4122 O 373.449 0.401669 -5.45022 0
M  V30 4123 H 370.543 0.096181 -0.821388 0
M  V30 4124 H 373.089 -0.561822 -1.6013 0
M  V30 4125 H 371.861 -0.977321 -3.78899 0
M  V30 4126 H 371.484 0.733579 -3.90774 0
M  V30 4127 N 372.481 1.55866 -0.233164 0
M  V30 4128 C 373.892 1.847 0.272554 0
M  V30 4129 C 374.243 1.15477 1.58617 0
M  V30 4130 O 373.368 0.42841 2.12117 0
M  V30 4131 C 373.963 3.35071 0.501299 0
M  V30 4132 C 372.522 3.6418 0.951304 0
M  V30 4133 C 371.669 2.77292 0.0208209 0
M  V30 4134 H 374.62 1.52005 -0.456074 0
M  V30 4135 H 374.641 3.55906 1.34577 0
M  V30 4136 H 374.153 3.85424 -0.454936 0
M  V30 4137 H 372.254 3.19293 1.92049 0
M  V30 4138 H 372.367 4.72071 0.817675 0
M  V30 4139 H 370.731 2.49131 0.529723 0
M  V30 4140 H 371.514 3.30448 -0.93054 0
M  V30 4141 N 373.959 -0.0401083 1.57549 0
M  V30 4142 C 374.869 -1.06133 2.0922 0
M  V30 4143 C 375.885 -1.40356 1.0284 0
M  V30 4144 O 377.061 -1.49897 1.34509 0
M  V30 4145 C 374.126 -2.34658 2.55218 0
M  V30 4146 C 373.187 -2.07117 3.76033 0
M  V30 4147 C 372.42 -3.29514 4.19829 0
M  V30 4148 O 372.643 -4.39794 3.63232 0
M  V30 4149 O 371.577 -3.15863 5.12362 0
M  V30 4150 H 375.403 -0.652244 2.96613 0
M  V30 4151 H 372.988 -0.256368 1.47184 0
M  V30 4152 H 374.87 -3.10239 2.85184 0
M  V30 4153 H 373.545 -2.74883 1.70941 0
M  V30 4154 H 372.452 -1.29139 3.51104 0
M  V30 4155 H 373.785 -1.71754 4.61261 0
M  V30 4156 N 375.437 -1.54477 -0.31217 0
M  V30 4157 C 376.714 -1.63891 -1.06767 0
M  V30 4158 C 377.094 -0.480028 -2.0557 0
M  V30 4159 O 376.442 0.524487 -2.22399 0
M  V30 4160 C 376.652 -3.01402 -1.75948 0
M  V30 4161 C 378 -3.57838 -2.28554 0
M  V30 4162 O 379.024 -3.03782 -1.85998 0
M  V30 4163 O 377.883 -4.52462 -3.06497 0
M  V30 4164 H 374.977 -0.664125 -0.492816 0
M  V30 4165 H 377.523 -1.66823 -0.311149 0
M  V30 4166 H 376.295 -3.77187 -1.04144 0
M  V30 4167 H 375.918 -3.02199 -2.58383 0
M  V30 4168 N 376.915 0.57481 -1.46744 0
M  V30 4169 C 378.164 1.32898 -1.51727 0
M  V30 4170 C 378.477 1.948 -0.176692 0
M  V30 4171 O 379.683 2.71299 -0.104385 0
M  V30 4172 C 378.139 2.40901 -2.67385 0
M  V30 4173 C 377.747 1.85266 -4.07898 0
M  V30 4174 C 379.491 3.17609 -2.81646 0
M  V30 4175 C 377.398 2.90945 -5.14883 0
M  V30 4176 H 376.328 0.499631 -0.564699 0
M  V30 4177 H 378.979 0.612536 -1.72975 0
M  V30 4178 H 377.361 3.15379 -2.39483 0
M  V30 4179 H 378.535 1.17278 -4.45626 0
M  V30 4180 H 376.85 1.21199 -3.98371 0
M  V30 4181 H 379.447 3.96493 -3.58744 0
M  V30 4182 H 379.79 3.70696 -1.89448 0
M  V30 4183 H 380.323 2.50239 -3.09233 0
M  V30 4184 H 377.062 2.42736 -6.089 0
M  V30 4185 H 376.582 3.57398 -4.81691 0
M  V30 4186 H 378.261 3.54755 -5.41071 0
M  V30 4187 N 378.394 1.34581 0.820102 0
M  V30 4188 C 379.619 1.30333 1.61332 0
M  V30 4189 C 380.044 -0.119339 1.87721 0
M  V30 4190 O 379.402 -1.08197 1.45475 0
M  V30 4191 C 379.45 2.10258 2.92957 0
M  V30 4192 O 378.554 1.47404 3.85157 0
M  V30 4193 H 377.895 0.447488 0.490561 0
M  V30 4194 H 380.425 1.77425 1.01889 0
M  V30 4195 H 380.435 2.21718 3.42498 0
M  V30 4196 H 379.11 3.13693 2.73074 0
M  V30 4197 H 377.687 1.44703 3.43679 0
M  V30 4198 N 379.872 -1.04064 1.18357 0
M  V30 4199 C 381.118 -1.77528 0.980397 0
M  V30 4200 C 381.451 -1.87948 -0.48879 0
M  V30 4201 O 380.726 -1.3876 -1.36293 0
M  V30 4202 C 381.009 -3.20797 1.63588 0
M  V30 4203 C 380.862 -3.1832 3.17793 0
M  V30 4204 C 382.181 -4.18911 1.34914 0
M  V30 4205 H 379.3 -0.644443 0.357578 0
M  V30 4206 H 381.942 -1.2156 1.46024 0
M  V30 4207 H 380.092 -3.68586 1.22788 0
M  V30 4208 H 381.764 -2.78521 3.67728 0
M  V30 4209 H 380.007 -2.56351 3.49952 0
M  V30 4210 H 380.678 -4.19489 3.58794 0
M  V30 4211 H 383.154 -3.7967 1.70265 0
M  V30 4212 H 382.03 -5.17374 1.83346 0
M  V30 4213 H 382.291 -4.41262 0.272027 0
M  V30 4214 N 381.35 -0.985608 -1.22978 0
M  V30 4215 C 382.627 -0.573599 -1.87001 0
M  V30 4216 C 383.007 0.949213 -1.88555 0
M  V30 4217 O 382.355 1.82811 -1.37086 0
M  V30 4218 C 382.565 -1.18564 -3.28243 0
M  V30 4219 C 383.913 -1.28163 -4.04796 0
M  V30 4220 O 384.937 -1.13949 -3.37482 0
M  V30 4221 O 383.796 -1.50832 -5.25273 0
M  V30 4222 H 380.89 -0.193868 -0.803955 0
M  V30 4223 H 383.436 -1.08102 -1.30813 0
M  V30 4224 H 382.208 -2.22758 -3.21706 0
M  V30 4225 H 381.831 -0.663363 -3.92027 0
M  V30 4226 N 382.828 1.3818 -0.7579 0
M  V30 4227 C 383.778 2.27741 -0.108674 0
M  V30 4228 C 384.762 1.45415 0.688709 0
M  V30 4229 O 385.954 1.68108 0.553956 0
M  V30 4230 C 383.083 3.34313 0.780367 0
M  V30 4231 C 382.169 4.24093 -0.0240977 0
M  V30 4232 N 382.56 4.9451 -1.06271 0
M  V30 4233 C 380.858 4.45542 0.202049 0
M  V30 4234 C 381.559 5.60675 -1.54979 0
M  V30 4235 N 380.535 5.36684 -0.864348 0
M  V30 4236 H 384.337 2.79649 -0.904071 0
M  V30 4237 H 381.851 1.51133 -0.594346 0
M  V30 4238 H 383.848 3.97368 1.26114 0
M  V30 4239 H 382.508 2.83962 1.57467 0
M  V30 4240 H 383.519 4.97345 -1.44459 0
M  V30 4241 H 380.196 4.06091 0.96935 0
M  V30 4242 H 381.586 6.26992 -2.41517 0
M  V30 4243 N 384.306 0.507319 1.49211 0
M  V30 4244 C 385.717 0.0611118 1.866 0
M  V30 4245 C 386.068 -1.35488 1.41907 0
M  V30 4246 O 385.193 -2.0108 0.799726 0
M  V30 4247 C 385.788 0.104125 3.3864 0
M  V30 4248 C 384.347 -0.28677 3.75306 0
M  V30 4249 C 383.494 0.473893 2.73221 0
M  V30 4250 H 386.445 0.719775 1.41439 0
M  V30 4251 H 386.466 -0.689672 3.74198 0
M  V30 4252 H 385.978 1.13482 3.71138 0
M  V30 4253 H 384.079 -1.32046 3.48417 0
M  V30 4254 H 384.192 0.0370745 4.79086 0
M  V30 4255 H 382.556 -0.0770644 2.54583 0
M  V30 4256 H 383.339 1.50478 3.08563 0
M  V30 4257 N 385.784 -1.5574 0.241426 0
M  V30 4258 C 387.061 -1.90704 -0.434881 0
M  V30 4259 C 387.441 -1.16145 -1.76277 0
M  V30 4260 O 386.789 -0.277152 -2.26813 0
M  V30 4261 C 386.999 -3.43657 -0.608343 0
M  V30 4262 C 388.347 -4.14806 -0.906725 0
M  V30 4263 O 389.371 -3.49366 -0.694408 0
M  V30 4264 O 388.23 -5.30548 -1.31075 0
M  V30 4265 H 385.324 -0.793592 -0.23268 0
M  V30 4266 H 387.87 -1.67288 0.285086 0
M  V30 4267 H 386.642 -3.89927 0.327505 0
M  V30 4268 H 386.265 -3.72918 -1.37906 0
M  V30 4269 N 387.262 0.0317525 -1.57568 0
M  V30 4270 C 388.172 1.05021 -2.0978 0
M  V30 4271 C 389.188 1.39809 -1.03583 0
M  V30 4272 O 390.364 1.49182 -1.35302 0
M  V30 4273 C 387.429 2.33301 -2.56459 0
M  V30 4274 C 386.49 2.0512 -3.77127 0
M  V30 4275 C 385.723 3.27283 -4.2157 0
M  V30 4276 O 385.946 4.37861 -3.65559 0
M  V30 4277 O 384.88 3.13141 -5.14029 0
M  V30 4278 H 388.706 0.636505 -2.96955 0
M  V30 4279 H 386.291 0.248559 -1.47318 0
M  V30 4280 H 388.173 3.08722 -2.86825 0
M  V30 4281 H 386.848 2.73973 -1.72397 0
M  V30 4282 H 385.755 1.27276 -3.51784 0
M  V30 4283 H 387.088 1.69305 -4.62165 0
M  V30 4284 N 388.74 1.54641 0.303973 0
M  V30 4285 C 389.687 1.85386 1.37479 0
M  V30 4286 C 390.657 0.702528 1.50512 0
M  V30 4287 O 391.842 0.950867 1.65418 0
M  V30 4288 C 388.982 2.10413 2.73533 0
M  V30 4289 C 388.095 3.38049 2.68974 0
M  V30 4290 C 387.23 3.52934 3.97002 0
M  V30 4291 C 386.269 4.74373 3.86829 0
M  V30 4292 N 385.406 4.8608 5.06627 0
M  V30 4293 H 390.246 2.76732 1.1056 0
M  V30 4294 H 387.783 1.37034 0.534805 0
M  V30 4295 H 389.741 2.22919 3.52652 0
M  V30 4296 H 388.371 1.22338 2.98719 0
M  V30 4297 H 387.423 3.3418 1.81736 0
M  V30 4298 H 388.735 4.27288 2.57346 0
M  V30 4299 H 387.889 3.65088 4.84557 0
M  V30 4300 H 386.628 2.61824 4.1146 0
M  V30 4301 H 385.633 4.62255 2.97658 0
M  V30 4302 H 386.858 5.66888 3.73918 0
M  V30 4303 H 384.804 3.97891 5.21554 0
M  V30 4304 H 384.721 5.69315 4.9741 0
M  V30 4305 H 385.989 5.02587 5.95841 0
M  V30 4306 N 390.218 -0.567019 1.47046 0
M  V30 4307 C 391.443 -1.3551 1.57009 0
M  V30 4308 C 391.868 -1.86841 0.217259 0
M  V30 4309 O 391.226 -1.62435 -0.805268 0
M  V30 4310 C 391.274 -2.50777 2.5912 0
M  V30 4311 O 390.378 -3.52706 2.13711 0
M  V30 4312 H 389.719 -0.402919 0.52778 0
M  V30 4313 H 392.249 -0.686241 1.92748 0
M  V30 4314 H 392.259 -2.97481 2.79229 0
M  V30 4315 H 390.934 -2.12771 3.57353 0
M  V30 4316 H 389.511 -3.12374 2.03659 0
M  V30 4317 N 391.696 -1.35014 -0.812953 0
M  V30 4318 C 392.945 -1.27269 -1.56479 0
M  V30 4319 C 393.258 0.152771 -1.95002 0
M  V30 4320 O 394.464 0.352451 -2.69203 0
M  V30 4321 C 392.92 -2.23159 -2.82362 0
M  V30 4322 C 392.528 -3.71016 -2.511 0
M  V30 4323 C 394.272 -2.24342 -3.60376 0
M  V30 4324 C 392.179 -4.58746 -3.73237 0
M  V30 4325 H 391.109 -0.472829 -0.587324 0
M  V30 4326 H 393.76 -1.6024 -0.894171 0
M  V30 4327 H 392.142 -1.83151 -3.51101 0
M  V30 4328 H 393.316 -4.1962 -1.90409 0
M  V30 4329 H 391.631 -3.72378 -1.86343 0
M  V30 4330 H 394.228 -2.87107 -4.51081 0
M  V30 4331 H 394.571 -1.24542 -3.97234 0
M  V30 4332 H 395.104 -2.62846 -2.98591 0
M  V30 4333 H 391.843 -5.59521 -3.41492 0
M  V30 4334 H 391.363 -4.14871 -4.33176 0
M  V30 4335 H 393.042 -4.73852 -4.40537 0
M  V30 4336 N 393.175 1.03435 -1.18907 0
M  V30 4337 C 394.424 1.76143 -0.982669 0
M  V30 4338 C 394.737 1.89416 0.487953 0
M  V30 4339 O 395.943 2.59041 0.813036 0
M  V30 4340 C 394.399 3.16722 -1.70924 0
M  V30 4341 C 394.007 3.11522 -3.21959 0
M  V30 4342 C 395.751 3.93764 -1.58588 0
M  V30 4343 C 393.658 4.46999 -3.87228 0
M  V30 4344 H 392.588 0.660292 -0.364047 0
M  V30 4345 H 395.239 1.158 -1.42347 0
M  V30 4346 H 393.621 3.775 -1.19623 0
M  V30 4347 H 394.795 2.60158 -3.80335 0
M  V30 4348 H 393.11 2.47978 -3.34508 0
M  V30 4349 H 395.707 4.93963 -2.04707 0
M  V30 4350 H 396.05 4.12794 -0.539142 0
M  V30 4351 H 396.583 3.39576 -2.07203 0
M  V30 4352 H 393.322 4.33174 -4.91976 0
M  V30 4353 H 392.842 4.98441 -3.33642 0
M  V30 4354 H 394.521 5.15898 -3.90459 0
M  V30 4355 N 394.653 0.992116 1.22453 0
M  V30 4356 C 395.881 0.685944 1.95198 0
M  V30 4357 C 396.296 -0.749233 1.73297 0
M  V30 4358 O 395.653 -1.50549 1.03156 0
M  V30 4359 C 395.704 0.981395 3.47924 0
M  V30 4360 O 395.425 2.36018 3.6909 0
M  V30 4361 C 396.926 0.692815 4.37853 0
M  V30 4362 H 394.146 0.253821 0.621141 0
M  V30 4363 H 396.69 1.32668 1.55626 0
M  V30 4364 H 394.845 0.386481 3.85467 0
M  V30 4365 H 395.259 2.45884 4.63294 0
M  V30 4366 H 396.733 0.949818 5.43767 0
M  V30 4367 H 397.21 -0.373181 4.37612 0
M  V30 4368 H 397.816 1.26874 4.05935 0
M  V30 4369 N 396.131 -1.37776 0.765217 0
M  V30 4370 C 397.361 -2.03828 0.337277 0
M  V30 4371 C 397.769 -1.57841 -1.04321 0
M  V30 4372 O 397.112 -0.752043 -1.67601 0
M  V30 4373 C 397.174 -3.58292 0.294407 0
M  V30 4374 C 396.838 -4.27384 1.61838 0
M  V30 4375 C 397.835 -4.51956 2.56967 0
M  V30 4376 C 395.52 -4.65345 1.89102 0
M  V30 4377 C 397.514 -5.13536 3.77571 0
M  V30 4378 C 395.201 -5.26647 3.09978 0
M  V30 4379 C 396.199 -5.50679 4.04032 0
M  V30 4380 O 395.887 -6.10702 5.2278 0
M  V30 4381 H 395.619 -0.661292 0.140248 0
M  V30 4382 H 398.173 -1.77222 1.03834 0
M  V30 4383 H 396.403 -3.83918 -0.462983 0
M  V30 4384 H 398.092 -4.05763 -0.105581 0
M  V30 4385 H 398.858 -4.23048 2.37183 0
M  V30 4386 H 394.737 -4.45978 1.16725 0
M  V30 4387 H 398.281 -5.3221 4.50997 0
M  V30 4388 H 394.178 -5.54979 3.29649 0
M  V30 4389 H 394.946 -6.29183 5.23517 0
M  V30 4390 N 397.609 -0.515225 -1.4894 0
M  V30 4391 C 398.855 0.0242508 -2.02785 0
M  V30 4392 C 399.188 1.35323 -1.39289 0
M  V30 4393 O 398.463 1.87041 -0.533469 0
M  V30 4394 C 398.746 0.16184 -3.59736 0
M  V30 4395 C 398.599 -1.19127 -4.33738 0
M  V30 4396 C 399.918 0.895719 -4.30888 0
M  V30 4397 H 397.037 0.00733914 -0.736963 0
M  V30 4398 H 399.679 -0.669395 -1.77818 0
M  V30 4399 H 397.829 0.752624 -3.8114 0
M  V30 4400 H 399.501 -1.82202 -4.23792 0
M  V30 4401 H 397.744 -1.77695 -3.95736 0
M  V30 4402 H 398.415 -1.04815 -5.41957 0
M  V30 4403 H 400.891 0.394528 -4.14225 0
M  V30 4404 H 399.767 0.960859 -5.40425 0
M  V30 4405 H 400.028 1.9427 -3.97129 0
M  V30 4406 N 399.087 1.5561 -0.249682 0
M  V30 4407 C 400.333 1.99306 0.374841 0
M  V30 4408 C 400.666 1.13767 1.57387 0
M  V30 4409 O 399.941 0.201711 1.93451 0
M  V30 4410 C 400.224 3.51507 0.781986 0
M  V30 4411 C 400.077 4.4781 -0.422629 0
M  V30 4412 C 401.396 4.08884 1.62793 0
M  V30 4413 H 398.515 0.724572 0.134773 0
M  V30 4414 H 401.157 1.86719 -0.351549 0
M  V30 4415 H 399.307 3.62363 1.4009 0
M  V30 4416 H 400.979 4.48931 -1.06108 0
M  V30 4417 H 399.222 4.20518 -1.06524 0
M  V30 4418 H 399.893 5.51919 -0.0943766 0
M  V30 4419 H 402.369 4.01147 1.10547 0
M  V30 4420 H 401.245 5.1564 1.88166 0
M  V30 4421 H 401.506 3.57515 2.60068 0
M  V30 4422 N 400.565 -0.0233959 1.57583 0
M  V30 4423 C 401.793 -0.724682 1.93794 0
M  V30 4424 C 402.208 -1.68588 0.849912 0
M  V30 4425 O 401.565 -1.81676 -0.173204 0
M  V30 4426 C 401.616 -1.47684 3.29957 0
M  V30 4427 O 401.337 -0.554222 4.3458 0
M  V30 4428 C 402.838 -2.27477 3.80485 0
M  V30 4429 H 400.058 -0.203317 0.639455 0
M  V30 4430 H 402.602 0.0207653 2.04489 0
M  V30 4431 H 400.757 -2.17412 3.20641 0
M  V30 4432 H 401.171 -1.08232 5.13212 0
M  V30 4433 H 402.645 -2.7564 4.78254 0
M  V30 4434 H 403.122 -3.09144 3.11972 0
M  V30 4435 H 403.728 -1.62813 3.92902 0
M  V30 4436 N 402.043 -1.548 -0.295768 0
M  V30 4437 C 403.273 -1.78069 -1.04762 0
M  V30 4438 C 403.681 -0.542847 -1.81245 0
M  V30 4439 O 403.024 0.497051 -1.76848 0
M  V30 4440 C 403.086 -2.93881 -2.07061 0
M  V30 4441 C 402.75 -4.31777 -1.49725 0
M  V30 4442 C 403.747 -5.11613 -0.924581 0
M  V30 4443 C 401.432 -4.78389 -1.5313 0
M  V30 4444 C 403.426 -6.36184 -0.393594 0
M  V30 4445 C 401.113 -6.02921 -0.996447 0
M  V30 4446 C 402.111 -6.81654 -0.428569 0
M  V30 4447 O 401.799 -8.0384 0.0981593 0
M  V30 4448 H 401.531 -0.597475 -0.316226 0
M  V30 4449 H 404.085 -2.02584 -0.338973 0
M  V30 4450 H 402.315 -2.65003 -2.81621 0
M  V30 4451 H 404.004 -3.04679 -2.6819 0
M  V30 4452 H 404.77 -4.76743 -0.891136 0
M  V30 4453 H 400.649 -4.17132 -1.9627 0
M  V30 4454 H 404.193 -6.97582 0.0503014 0
M  V30 4455 H 400.09 -6.37277 -1.02706 0
M  V30 4456 H 400.858 -8.18499 -0.0146455 0
M  V30 4457 N 403.521 0.559213 -1.47345 0
M  V30 4458 C 404.751 1.33999 -1.57251 0
M  V30 4459 C 405.159 1.87905 -0.220978 0
M  V30 4460 O 404.502 1.65577 0.795617 0
M  V30 4461 C 404.564 2.54798 -2.53611 0
M  V30 4462 C 404.228 2.22192 -3.99349 0
M  V30 4463 C 405.225 1.79607 -4.87891 0
M  V30 4464 C 402.91 2.33613 -4.44669 0
M  V30 4465 C 404.904 1.48868 -6.19772 0
M  V30 4466 C 402.591 2.02487 -5.76578 0
M  V30 4467 C 403.589 1.60183 -6.63951 0
M  V30 4468 O 403.277 1.29451 -7.93409 0
M  V30 4469 H 403.009 0.414858 -0.533731 0
M  V30 4470 H 405.563 0.684465 -1.9366 0
M  V30 4471 H 403.793 3.23235 -2.12265 0
M  V30 4472 H 405.482 3.16873 -2.53666 0
M  V30 4473 H 406.248 1.70278 -4.54126 0
M  V30 4474 H 402.127 2.65501 -3.76869 0
M  V30 4475 H 405.671 1.15775 -6.87926 0
M  V30 4476 H 401.568 2.11448 -6.09885 0
M  V30 4477 H 402.336 1.43098 -8.05894 0
M  V30 4478 N 404.999 1.35443 0.805782 0
M  V30 4479 C 405.949 1.24972 1.90699 0
M  V30 4480 C 406.933 0.144806 1.60247 0
M  V30 4481 O 408.125 0.376102 1.72958 0
M  V30 4482 C 405.254 1.02475 3.27649 0
M  V30 4483 C 404.34 2.17361 3.64164 0
M  V30 4484 N 404.731 3.42591 3.72109 0
M  V30 4485 C 403.029 2.08765 3.94123 0
M  V30 4486 C 403.73 4.18144 4.04389 0
M  V30 4487 N 402.706 3.4691 4.18515 0
M  V30 4488 H 406.508 2.19852 1.95044 0
M  V30 4489 H 404.022 1.27928 1.00041 0
M  V30 4490 H 406.019 0.930617 4.06381 0
M  V30 4491 H 404.679 0.0848009 3.24589 0
M  V30 4492 H 405.69 3.76932 3.55166 0
M  V30 4493 H 402.367 1.22629 3.99084 0
M  V30 4494 H 403.757 5.26367 4.17597 0
M  V30 4495 N 406.477 -1.02803 1.19454 0
M  V30 4496 C 407.707 -1.79581 1.02149 0
M  V30 4497 C 408.115 -1.84182 -0.432851 0
M  V30 4498 O 407.458 -1.28534 -1.31243 0
M  V30 4499 C 407.52 -3.25993 1.51554 0
M  V30 4500 C 407.184 -3.45025 2.99678 0
M  V30 4501 C 408.181 -3.35175 3.97434 0
M  V30 4502 C 405.866 -3.71212 3.38389 0
M  V30 4503 C 407.86 -3.51238 5.31893 0
M  V30 4504 C 405.547 -3.8692 4.73008 0
M  V30 4505 C 406.545 -3.76936 5.69569 0
M  V30 4506 O 406.233 -3.92179 7.01748 0
M  V30 4507 H 405.965 -0.571962 0.360327 0
M  V30 4508 H 408.519 -1.30367 1.58725 0
M  V30 4509 H 406.749 -3.76235 0.893543 0
M  V30 4510 H 408.438 -3.84368 1.30444 0
M  V30 4511 H 409.204 -3.14895 3.68872 0
M  V30 4512 H 405.083 -3.78075 2.6378 0
M  V30 4513 H 408.627 -3.43362 6.07247 0
M  V30 4514 H 404.524 -4.06699 5.01265 0
M  V30 4515 H 405.292 -4.09265 7.08833 0
M  V30 4516 N 407.956 -0.998596 -1.21925 0
M  V30 4517 C 409.203 -0.677663 -1.90824 0
M  V30 4518 C 409.531 0.790905 -1.77693 0
M  V30 4519 O 408.786 1.58817 -1.14349 0
M  V30 4520 C 409.085 -1.03648 -3.42041 0
M  V30 4521 C 408.751 -2.49825 -3.75364 0
M  V30 4522 C 407.413 -2.8977 -3.8417 0
M  V30 4523 C 409.765 -3.44545 -3.91073 0
M  V30 4524 C 407.093 -4.23412 -4.06127 0
M  V30 4525 C 409.445 -4.77853 -4.14535 0
M  V30 4526 C 408.109 -5.17531 -4.21566 0
M  V30 4527 H 407.379 -0.247975 -0.698276 0
M  V30 4528 H 410.026 -1.25584 -1.44571 0
M  V30 4529 H 408.331 -0.376457 -3.89987 0
M  V30 4530 H 410.028 -0.766113 -3.93614 0
M  V30 4531 H 406.618 -2.17866 -3.69097 0
M  V30 4532 H 410.802 -3.14853 -3.83642 0
M  V30 4533 H 406.058 -4.53734 -4.09799 0
M  V30 4534 H 410.232 -5.51189 -4.25633 0
M  V30 4535 H 407.859 -6.21102 -4.38333 0
M  V30 4536 N 409.434 1.37368 -0.772513 0
M  V30 4537 C 410.659 2.0447 -0.347386 0
M  V30 4538 C 411.084 1.57882 1.0225 0
M  V30 4539 O 410.442 0.73941 1.65537 0
M  V30 4540 C 410.49 3.58369 -0.400479 0
M  V30 4541 O 409.594 4.0803 0.598789 0
M  V30 4542 H 408.935 0.646773 -0.15027 0
M  V30 4543 H 411.465 1.75667 -1.04892 0
M  V30 4544 H 411.475 4.07183 -0.258045 0
M  V30 4545 H 410.15 3.91633 -1.39986 0
M  V30 4546 H 408.727 3.70534 0.419411 0
M  V30 4547 N 410.912 0.523116 1.48665 0
M  V30 4548 C 411.859 -0.243398 2.29513 0
M  V30 4549 C 412.829 -0.940139 1.36933 0
M  V30 4550 O 414.014 -0.942503 1.65896 0
M  V30 4551 C 411.154 -1.28855 3.20141 0
M  V30 4552 C 410.267 -0.60135 4.27794 0
M  V30 4553 C 409.402 -1.62884 5.05611 0
M  V30 4554 C 408.441 -0.924726 6.05075 0
M  V30 4555 N 407.578 -1.89744 6.75975 0
M  V30 4556 H 412.418 0.452234 2.94549 0
M  V30 4557 H 409.955 0.234858 1.45213 0
M  V30 4558 H 411.913 -1.90674 3.71079 0
M  V30 4559 H 410.543 -1.95266 2.57043 0
M  V30 4560 H 409.595 0.130623 3.80176 0
M  V30 4561 H 410.907 -0.0481585 4.98777 0
M  V30 4562 H 410.061 -2.32149 5.60528 0
M  V30 4563 H 408.8 -2.21592 4.34452 0
M  V30 4564 H 407.805 -0.217966 5.49368 0
M  V30 4565 H 409.03 -0.343851 6.78229 0
M  V30 4566 H 406.976 -2.47373 6.07571 0
M  V30 4567 H 406.893 -1.3955 7.43009 0
M  V30 4568 H 408.161 -2.58229 7.35485 0
M  V30 4569 N 412.39 -1.55475 0.257931 0
M  V30 4570 C 413.323 -2.179 -0.677862 0
M  V30 4571 C 414.301 -1.13448 -1.16483 0
M  V30 4572 O 415.485 -1.41889 -1.24095 0
M  V30 4573 C 412.612 -2.78851 -1.92249 0
M  V30 4574 C 411.658 -3.96454 -1.57246 0
M  V30 4575 S 412.491 -5.31349 -0.665501 0
M  V30 4576 C 413.647 -5.9576 -1.91889 0
M  V30 4577 H 413.88 -2.96934 -0.147396 0
M  V30 4578 H 411.413 -1.54342 0.0423023 0
M  V30 4579 H 413.371 -3.14602 -2.63697 0
M  V30 4580 H 412.032 -1.99742 -2.42409 0
M  V30 4581 H 411.225 -4.37731 -2.49814 0
M  V30 4582 H 410.827 -3.62038 -0.938325 0
M  V30 4583 H 413.119 -6.13947 -2.86487 0
M  V30 4584 H 414.062 -6.9094 -1.54942 0
M  V30 4585 H 414.47 -5.2494 -2.076 0
M  V30 4586 N 413.868 0.0150385 -1.57593 0
M  V30 4587 C 414.815 1.01126 -2.07466 0
M  V30 4588 C 415.785 1.35064 -0.966794 0
M  V30 4589 O 416.97 1.4516 -1.23827 0
M  V30 4590 C 414.11 2.30276 -2.57035 0
M  V30 4591 C 413.223 2.02373 -3.81666 0
M  V30 4592 C 412.358 3.25496 -4.19793 0
M  V30 4593 C 411.397 2.93211 -5.37303 0
M  V30 4594 N 410.534 4.08826 -5.70794 0
M  V30 4595 H 415.374 0.57901 -2.92321 0
M  V30 4596 H 412.911 0.27426 -1.44521 0
M  V30 4597 H 414.869 3.05757 -2.83846 0
M  V30 4598 H 413.499 2.71197 -1.75077 0
M  V30 4599 H 412.551 1.17327 -3.61854 0
M  V30 4600 H 413.863 1.74567 -4.67256 0
M  V30 4601 H 413.017 4.09333 -4.47807 0
M  V30 4602 H 411.756 3.56428 -3.32882 0
M  V30 4603 H 410.761 2.07777 -5.09027 0
M  V30 4604 H 411.986 2.63542 -6.25877 0
M  V30 4605 H 409.932 4.39682 -4.86842 0
M  V30 4606 H 409.849 3.84491 -6.50924 0
M  V30 4607 H 411.117 4.93496 -6.03392 0
M  V30 4608 N 415.346 1.54954 0.287554 0
M  V30 4609 C 416.309 1.86076 1.33823 0
M  V30 4610 C 417.309 0.734414 1.43049 0
M  V30 4611 O 418.499 1.00266 1.42452 0
M  V30 4612 C 415.631 2.05305 2.72144 0
M  V30 4613 H 416.824 2.79984 1.07465 0
M  V30 4614 H 414.377 1.47223 0.524902 0
M  V30 4615 H 415.112 1.1373 3.03704 0
M  V30 4616 H 414.897 2.873 2.66836 0
M  V30 4617 H 416.387 2.30706 3.48087 0
M  V30 4618 N 416.824 -0.551391 1.4764 0
M  V30 4619 C 417.754 -1.66757 1.63445 0
M  V30 4620 C 418.735 -1.63077 0.483742 0
M  V30 4621 O 419.92 -1.80607 0.71377 0
M  V30 4622 C 417.05 -3.05387 1.65396 0
M  V30 4623 C 416.004 -3.23918 2.79752 0
M  V30 4624 C 415.33 -4.63393 2.66779 0
M  V30 4625 C 416.63 -3.08735 4.21284 0
M  V30 4626 H 418.324 -1.53786 2.56886 0
M  V30 4627 H 415.87 -0.738415 1.23626 0
M  V30 4628 H 417.823 -3.83325 1.75043 0
M  V30 4629 H 416.547 -3.19332 0.685195 0
M  V30 4630 H 415.206 -2.48391 2.69625 0
M  V30 4631 H 414.854 -4.74144 1.67918 0
M  V30 4632 H 414.554 -4.7674 3.43501 0
M  V30 4633 H 416.078 -5.43458 2.78364 0
M  V30 4634 H 417.492 -3.76484 4.32357 0
M  V30 4635 H 415.889 -3.33588 4.98838 0
M  V30 4636 H 416.959 -2.0541 4.39243 0
M  V30 4637 N 418.302 -1.35869 -0.798587 0
M  V30 4638 C 419.265 -1.29307 -1.89242 0
M  V30 4639 C 420.265 -0.202747 -1.59517 0
M  V30 4640 O 421.455 -0.456957 -1.681 0
M  V30 4641 C 418.587 -1.00229 -3.25833 0
M  V30 4642 H 419.78 -2.26576 -1.96478 0
M  V30 4643 H 417.333 -1.20509 -0.995358 0
M  V30 4644 H 418.068 -0.033801 -3.24282 0
M  V30 4645 H 417.853 -1.79121 -3.48795 0
M  V30 4646 H 419.343 -0.98219 -4.05885 0
M  V30 4647 N 419.78 1.02168 -1.19998 0
M  V30 4648 C 421.026 1.75945 -1.00852 0
M  V30 4649 C 421.359 1.88702 0.458828 0
M  V30 4650 O 420.634 1.40911 1.34069 0
M  V30 4651 C 420.917 3.18154 -1.68671 0
M  V30 4652 C 420.77 3.13224 -3.22817 0
M  V30 4653 C 422.089 4.16711 -1.41561 0
M  V30 4654 H 419.208 0.638673 -0.367785 0
M  V30 4655 H 421.85 1.19222 -1.4794 0
M  V30 4656 H 420 3.66586 -1.28636 0
M  V30 4657 H 421.672 2.72635 -3.72112 0
M  V30 4658 H 419.915 2.50751 -3.53986 0
M  V30 4659 H 420.586 4.13728 -3.65422 0
M  V30 4660 H 423.062 3.76913 -1.76284 0
M  V30 4661 H 421.938 5.14391 -1.91553 0
M  V30 4662 H 422.199 4.40774 -0.342193 0
M  V30 4663 N 421.258 1.00505 1.21394 0
M  V30 4664 C 422.168 0.574806 2.27449 0
M  V30 4665 C 423.184 -0.382206 1.6975 0
M  V30 4666 O 424.36 -0.246027 1.99892 0
M  V30 4667 C 421.425 -0.0917414 3.46579 0
M  V30 4668 C 420.486 0.909758 4.1955 0
M  V30 4669 C 419.719 0.274924 5.32991 0
M  V30 4670 O 419.942 -0.928254 5.62796 0
M  V30 4671 O 418.876 0.985877 5.93771 0
M  V30 4672 H 422.702 1.45744 2.66444 0
M  V30 4673 H 420.287 0.773923 1.27792 0
M  V30 4674 H 422.169 -0.464551 4.18832 0
M  V30 4675 H 420.844 -0.948755 3.09484 0
M  V30 4676 H 419.751 1.33372 3.49518 0
M  V30 4677 H 421.084 1.73636 4.60555 0
M  V30 4678 N 422.737 -1.36956 0.779787 0
M  V30 4679 C 423.985 -1.99097 0.347079 0
M  V30 4680 C 424.306 -1.62206 -1.08232 0
M  V30 4681 O 423.576 -0.891373 -1.74446 0
M  V30 4682 H 422.156 -0.736409 0.125342 0
M  V30 4683 H 424.818 -1.67308 0.999696 0
M  V30 4684 H 423.914 -3.09107 0.431162 0
M  V30 4685 N 424.215 -0.530993 -1.48385 0
M  V30 4686 C 425.162 0.231223 -2.29639 0
M  V30 4687 C 426.132 0.932864 -1.37429 0
M  V30 4688 O 427.317 0.933692 -1.66394 0
M  V30 4689 C 424.457 1.27155 -3.2082 0
M  V30 4690 C 423.57 0.578655 -4.28107 0
M  V30 4691 C 422.705 1.602 -5.06467 0
M  V30 4692 C 421.744 0.892625 -6.05556 0
M  V30 4693 N 420.881 1.86157 -6.76971 0
M  V30 4694 H 425.721 -0.467848 -2.94305 0
M  V30 4695 H 423.258 -0.242556 -1.45086 0
M  V30 4696 H 425.216 1.88703 -3.72085 0
M  V30 4697 H 423.846 1.939 -2.58075 0
M  V30 4698 H 422.898 -0.150782 -3.80101 0
M  V30 4699 H 424.21 0.0217065 -4.98795 0
M  V30 4700 H 423.364 2.29173 -5.61751 0
M  V30 4701 H 422.103 2.19285 -4.35621 0
M  V30 4702 H 421.108 0.188829 -5.49476 0
M  V30 4703 H 422.333 0.307878 -6.78402 0
M  V30 4704 H 420.279 2.44147 -6.08875 0
M  V30 4705 H 420.196 1.35608 -7.43738 0
M  V30 4706 H 421.464 2.54325 -7.36844 0
M  V30 4707 N 425.693 1.55336 -0.266172 0
M  V30 4708 C 427.109 1.59356 0.0882065 0
M  V30 4709 C 427.309 1.2834 1.55342 0
M  V30 4710 O 426.365 1.03996 2.30089 0
M  V30 4711 C 427.678 2.99409 -0.278364 0
M  V30 4712 C 429.226 3.12196 -0.224243 0
M  V30 4713 C 429.701 4.545 -0.565123 0
M  V30 4714 N 431.192 4.60313 -0.51634 0
M  V30 4715 C 431.927 5.68434 -0.753013 0
M  V30 4716 N 431.423 6.84738 -1.05383 0
M  V30 4717 N 433.216 5.57942 -0.682414 0
M  V30 4718 H 425.367 1.73764 -1.22147 0
M  V30 4719 H 427.63 0.809822 -0.492841 0
M  V30 4720 H 427.336 3.2691 -1.29703 0
M  V30 4721 H 427.21 3.75228 0.385186 0
M  V30 4722 H 429.597 2.84464 0.78512 0
M  V30 4723 H 429.678 2.38609 -0.921922 0
M  V30 4724 H 429.322 4.82956 -1.57213 0
M  V30 4725 H 429.252 5.26374 0.154248 0
M  V30 4726 H 431.743 3.7676 -0.29335 0
M  V30 4727 H 432.056 7.63088 -1.22133 0
M  V30 4728 H 430.401 6.86375 -1.09151 0
M  V30 4729 H 433.592 4.65958 -0.44731 0
M  V30 4730 H 433.765 6.4213 -0.870248 0
M  V30 4731 N 427.171 -0.0066808 1.57599 0
M  V30 4732 C 428.42 -0.692078 1.89455 0
M  V30 4733 C 428.733 -1.75306 0.867586 0
M  V30 4734 O 429.939 -2.49262 1.07614 0
M  V30 4735 C 428.395 -1.2821 3.36289 0
M  V30 4736 C 428.003 -0.256291 4.47266 0
M  V30 4737 C 429.747 -1.94608 3.77264 0
M  V30 4738 C 427.654 -0.855927 5.85173 0
M  V30 4739 H 426.584 -0.262252 0.706923 0
M  V30 4740 H 429.235 0.052769 1.83424 0
M  V30 4741 H 427.617 -2.0774 3.37135 0
M  V30 4742 H 428.791 0.513923 4.57925 0
M  V30 4743 H 427.106 0.306862 4.15268 0
M  V30 4744 H 429.703 -2.40364 4.77629 0
M  V30 4745 H 430.046 -2.77382 3.10427 0
M  V30 4746 H 430.579 -1.21822 3.78688 0
M  V30 4747 H 427.318 -0.0671161 6.55466 0
M  V30 4748 H 426.838 -1.59546 5.78191 0
M  V30 4749 H 428.517 -1.35658 6.32618 0
M  V30 4750 N 428.649 -1.55105 -0.279332 0
M  V30 4751 C 429.897 -1.75066 -1.00977 0
M  V30 4752 C 430.218 -0.551276 -1.87045 0
M  V30 4753 O 429.488 0.433984 -1.91032 0
M  V30 4754 H 428.068 -0.645578 -0.375816 0
M  V30 4755 H 430.73 -1.92497 -0.305089 0
M  V30 4756 H 429.826 -2.64894 -1.65038 0
M  V30 4757 N 430.127 0.543554 -1.4793 0
M  V30 4758 C 431.074 1.64942 -1.6144 0
M  V30 4759 C 432.044 1.59692 -0.456903 0
M  V30 4760 O 433.229 1.78321 -0.678688 0
M  V30 4761 C 430.369 3.03238 -1.64744 0
M  V30 4762 C 429.482 3.18823 -2.91506 0
M  V30 4763 C 428.617 4.47599 -2.86057 0
M  V30 4764 C 427.656 4.56664 -4.07584 0
M  V30 4765 N 426.793 5.76811 -4.00292 0
M  V30 4766 H 431.633 1.52733 -2.55884 0
M  V30 4767 H 429.17 0.7438 -1.2691 0
M  V30 4768 H 431.128 3.83339 -1.64641 0
M  V30 4769 H 429.758 3.1425 -0.738017 0
M  V30 4770 H 428.81 2.32064 -3.01414 0
M  V30 4771 H 430.122 3.21384 -3.81463 0
M  V30 4772 H 429.276 5.35975 -2.84281 0
M  V30 4773 H 428.015 4.47538 -1.93807 0
M  V30 4774 H 427.02 3.66697 -4.09651 0
M  V30 4775 H 428.245 4.58474 -5.00978 0
M  V30 4776 H 426.191 5.77673 -3.10853 0
M  V30 4777 H 426.108 5.80808 -4.8394 0
M  V30 4778 H 427.376 6.67512 -4.02553 0
M  V30 4779 N 431.605 1.3629 0.791371 0
M  V30 4780 C 432.851 1.30605 1.55146 0
M  V30 4781 C 433.184 -0.115042 1.93859 0
M  V30 4782 O 432.459 -1.06798 1.62556 0
M  V30 4783 C 432.742 2.22692 2.82985 0
M  V30 4784 C 432.595 3.73489 2.50651 0
M  V30 4785 C 433.914 2.13588 3.84796 0
M  V30 4786 H 431.033 0.475761 0.562868 0
M  V30 4787 H 433.675 1.66825 0.909358 0
M  V30 4788 H 431.825 1.91933 3.37778 0
M  V30 4789 H 433.497 4.14758 2.01924 0
M  V30 4790 H 431.74 3.93021 1.83622 0
M  V30 4791 H 432.411 4.3333 3.41949 0
M  V30 4792 H 434.887 2.40659 3.39445 0
M  V30 4793 H 433.763 2.80195 4.71998 0
M  V30 4794 H 434.024 1.12256 4.27611 0
M  V30 4795 N 433.083 -1.0153 1.20538 0
M  V30 4796 C 434.013 -2.11972 0.979295 0
M  V30 4797 C 434.994 -1.6985 -0.0921787 0
M  V30 4798 O 436.179 -1.94089 0.0655932 0
M  V30 4799 C 433.309 -3.43201 0.531984 0
M  V30 4800 C 432.263 -3.9907 1.54685 0
M  V30 4801 C 431.589 -5.26082 0.956127 0
M  V30 4802 C 432.889 -4.32313 2.93092 0
M  V30 4803 H 434.583 -2.31143 1.90298 0
M  V30 4804 H 432.129 -1.11079 0.916372 0
M  V30 4805 H 434.082 -4.1985 0.361044 0
M  V30 4806 H 432.806 -3.23792 -0.427327 0
M  V30 4807 H 431.465 -3.2453 1.70517 0
M  V30 4808 H 431.113 -5.02999 -0.0111538 0
M  V30 4809 H 430.813 -5.64426 1.63393 0
M  V30 4810 H 432.337 -6.05386 0.796284 0
M  V30 4811 H 433.751 -4.99845 2.80763 0
M  V30 4812 H 432.148 -4.81774 3.57791 0
M  V30 4813 H 433.218 -3.41025 3.44717 0
M  V30 4814 N 434.561 -1.01147 -1.20859 0
M  V30 4815 C 435.838 -0.613136 -1.85742 0
M  V30 4816 C 436.218 0.909004 -1.90526 0
M  V30 4817 O 435.566 1.79862 -1.40932 0
M  V30 4818 C 435.776 -1.255 -3.25654 0
M  V30 4819 C 437.124 -1.3672 -4.01986 0
M  V30 4820 O 438.148 -1.21082 -3.34989 0
M  V30 4821 O 437.007 -1.6194 -5.21956 0
M  V30 4822 H 434.101 -0.210878 -0.799662 0
M  V30 4823 H 436.647 -1.10853 -1.2849 0
M  V30 4824 H 435.419 -2.29532 -3.16908 0
M  V30 4825 H 435.042 -0.746369 -3.90532 0
M  V30 4826 N 436.039 1.36541 -0.78704 0
M  V30 4827 C 436.987 2.31965 -0.171724 0
M  V30 4828 C 437.981 1.55689 0.667631 0
M  V30 4829 O 439.187 1.70969 0.562981 0
M  V30 4830 H 435.562 0.751101 -0.0367545 0
M  V30 4831 H 437.533 2.81428 -0.992017 0
M  V30 4832 C 436.282 3.40968 0.680904 0
M  V30 4833 H 435.605 3.99775 0.0443961 0
M  V30 4834 H 437.045 4.10063 1.07815 0
M  V30 4835 C 435.504 2.82338 1.83813 0
M  V30 4836 O 436.034 2.74311 2.93456 0
M  V30 4837 N 434.24 2.39661 1.6435 0
M  V30 4838 H 433.787 2.46389 0.751668 0
M  V30 4839 H 433.745 2.00779 2.4194 0
M  V30 4840 N 437.518 0.538854 1.48102 0
M  V30 4841 C 438.481 -0.208395 2.28251 0
M  V30 4842 C 439.481 -0.859656 1.35892 0
M  V30 4843 O 440.671 -0.71834 1.58699 0
M  V30 4844 C 437.803 -1.30252 3.15035 0
M  V30 4845 H 438.996 0.495407 2.9578 0
M  V30 4846 H 436.549 0.295112 1.53489 0
M  V30 4847 H 437.284 -2.0393 2.52157 0
M  V30 4848 H 437.069 -0.840551 3.82985 0
M  V30 4849 H 438.559 -1.82787 3.75471 0
M  V30 4850 N 438.996 -1.55193 0.274407 0
M  V30 4851 C 440.245 -1.98758 -0.343213 0
M  V30 4852 C 440.558 -1.16624 -1.5703 0
M  V30 4853 O 441.764 -1.5033 -2.26082 0
M  V30 4854 C 440.22 -3.53759 -0.661996 0
M  V30 4855 C 439.828 -4.4467 0.54524 0
M  V30 4856 C 441.572 -4.05916 -1.24228 0
M  V30 4857 C 439.479 -5.91058 0.201084 0
M  V30 4858 H 438.409 -0.742353 -0.132014 0
M  V30 4859 H 441.06 -1.79545 0.378948 0
M  V30 4860 H 439.442 -3.68772 -1.44304 0
M  V30 4861 H 440.616 -4.41426 1.32212 0
M  V30 4862 H 438.931 -4.03143 1.04232 0
M  V30 4863 H 441.528 -5.12831 -1.51357 0
M  V30 4864 H 441.871 -3.54908 -2.17592 0
M  V30 4865 H 442.404 -3.9434 -0.523542 0
M  V30 4866 H 439.143 -6.46161 1.10258 0
M  V30 4867 H 438.663 -5.97373 -0.539045 0
M  V30 4868 H 440.342 -6.46669 -0.206954 0
M  V30 4869 N 440.474 -0.00167713 -1.576 0
M  V30 4870 C 441.384 1.00548 -2.1196 0
M  V30 4871 C 442.4 1.3758 -1.06526 0
M  V30 4872 O 443.576 1.46278 -1.38436 0
M  V30 4873 C 440.641 2.27809 -2.6135 0
M  V30 4874 C 439.702 1.97074 -3.81393 0
M  V30 4875 C 438.935 3.18267 -4.28417 0
M  V30 4876 O 439.158 4.30009 -3.74765 0
M  V30 4877 O 438.092 3.02167 -5.20556 0
M  V30 4878 H 441.918 0.573373 -2.98238 0
M  V30 4879 H 439.503 0.217255 -1.47812 0
M  V30 4880 H 441.385 3.02568 -2.93309 0
M  V30 4881 H 440.06 2.70254 -1.78169 0
M  V30 4882 H 438.967 1.19785 -3.54404 0
M  V30 4883 H 440.3 1.59464 -4.65652 0
M  V30 4884 N 441.952 1.55251 0.271103 0
M  V30 4885 C 443.18 1.79974 1.02064 0
M  V30 4886 C 443.595 0.574003 1.79863 0
M  V30 4887 O 442.952 -0.456962 1.76686 0
M  V30 4888 C 443.003 3.02603 1.97772 0
M  V30 4889 O 442.724 4.20443 1.23124 0
M  V30 4890 C 444.225 3.39944 2.84522 0
M  V30 4891 H 441.445 0.599489 0.301419 0
M  V30 4892 H 443.989 2.02268 0.301313 0
M  V30 4893 H 442.144 2.8243 2.65165 0
M  V30 4894 H 442.558 4.89783 1.87651 0
M  V30 4895 H 444.032 4.28915 3.47471 0
M  V30 4896 H 444.509 2.59432 3.54389 0
M  V30 4897 H 445.115 3.62383 2.22618 0
M  V30 4898 N 443.43 -0.535701 1.48216 0
M  V30 4899 C 444.34 -1.66785 1.64985 0
M  V30 4900 C 445.356 -1.65654 0.532414 0
M  V30 4901 O 446.532 -1.8471 0.80275 0
M  V30 4902 C 443.597 -3.0326 1.68031 0
M  V30 4903 C 442.658 -3.1529 2.9136 0
M  V30 4904 C 441.891 -4.45255 2.94252 0
M  V30 4905 O 442.114 -5.32011 2.05719 0
M  V30 4906 O 441.048 -4.6153 3.86359 0
M  V30 4907 H 444.874 -1.55576 2.60825 0
M  V30 4908 H 442.459 -0.70815 1.31551 0
M  V30 4909 H 444.341 -3.84436 1.72589 0
M  V30 4910 H 443.016 -3.14805 0.753628 0
M  V30 4911 H 441.923 -2.3343 2.92337 0
M  V30 4912 H 443.256 -3.08658 3.83394 0
M  V30 4913 N 444.908 -1.36708 -0.784132 0
M  V30 4914 C 445.855 -1.31466 -1.89698 0
M  V30 4915 C 446.825 -0.18239 -1.65096 0
M  V30 4916 O 448.01 -0.369762 -1.87183 0
M  V30 4917 C 445.15 -1.1151 -3.26588 0
M  V30 4918 C 444.263 -2.33859 -3.63227 0
M  V30 4919 C 443.398 -2.06873 -4.89262 0
M  V30 4920 C 442.437 -3.25154 -5.18595 0
M  V30 4921 N 441.574 -2.978 -6.35814 0
M  V30 4922 H 446.414 -2.26619 -1.93515 0
M  V30 4923 H 443.951 -1.12625 -0.946256 0
M  V30 4924 H 445.909 -0.979653 -4.05535 0
M  V30 4925 H 444.539 -0.200103 -3.22179 0
M  V30 4926 H 443.591 -2.58188 -2.79362 0
M  V30 4927 H 444.903 -3.22109 -3.8085 0
M  V30 4928 H 444.057 -1.90289 -5.76086 0
M  V30 4929 H 442.796 -1.15942 -4.73718 0
M  V30 4930 H 441.801 -3.42292 -4.30251 0
M  V30 4931 H 443.026 -4.1692 -5.36055 0
M  V30 4932 H 440.972 -2.09485 -6.21653 0
M  V30 4933 H 440.889 -3.7959 -6.53794 0
M  V30 4934 H 442.157 -2.84805 -7.25607 0
M  V30 4935 N 446.386 1.0089 -1.21074 0
M  V30 4936 C 447.319 2.09279 -0.909806 0
M  V30 4937 C 448.297 1.61986 0.141145 0
M  V30 4938 O 449.481 1.88495 0.0130332 0
M  V30 4939 C 446.608 3.36723 -0.365374 0
M  V30 4940 C 445.654 4.02919 -1.39852 0
M  V30 4941 S 446.487 4.45835 -2.96633 0
M  V30 4942 C 447.643 5.76471 -2.43786 0
M  V30 4943 H 447.876 2.34484 -1.82769 0
M  V30 4944 H 445.409 1.14115 -1.04006 0
M  V30 4945 H 447.367 4.10459 -0.0578203 0
M  V30 4946 H 446.028 3.09577 0.531136 0
M  V30 4947 H 445.221 4.94634 -0.967117 0
M  V30 4948 H 444.823 3.35441 -1.65395 0
M  V30 4949 H 447.115 6.52027 -1.84029 0
M  V30 4950 H 448.058 6.24418 -3.33928 0
M  V30 4951 H 448.466 5.33104 -1.85636 0
M  V30 4952 N 447.864 1.01787 1.20321 0
M  V30 4953 C 449.113 0.703249 1.89043 0
M  V30 4954 C 449.426 -0.770445 1.79787 0
M  V30 4955 O 450.632 -1.19767 2.43656 0
M  V30 4956 C 449.088 1.20749 3.3904 0
M  V30 4957 C 448.696 2.70817 3.56878 0
M  V30 4958 C 450.44 0.968352 4.13308 0
M  V30 4959 C 448.347 3.14716 5.00708 0
M  V30 4960 H 447.277 0.259354 0.707991 0
M  V30 4961 H 449.928 1.23072 1.36108 0
M  V30 4962 H 448.31 0.607989 3.91305 0
M  V30 4963 H 449.484 3.36327 3.14993 0
M  V30 4964 H 447.799 2.92888 2.95983 0
M  V30 4965 H 450.396 1.27173 5.19356 0
M  V30 4966 H 450.739 -0.095149 4.16191 0
M  V30 4967 H 451.272 1.53129 3.67146 0
M  V30 4968 H 448.011 4.20347 5.02979 0
M  V30 4969 H 447.531 2.53927 5.43398 0
M  V30 4970 H 449.21 3.07426 5.69296 0
M  V30 4971 N 449.342 -1.36122 0.79427 0
M  V30 4972 C 450.252 -2.33769 0.197296 0
M  V30 4973 C 451.268 -1.61276 -0.653153 0
M  V30 4974 O 452.444 -1.9323 -0.5678 0
M  V30 4975 C 449.509 -3.40474 -0.654098 0
M  V30 4976 C 448.57 -4.28759 0.215411 0
M  V30 4977 C 447.803 -5.30368 -0.595443 0
M  V30 4978 O 448.026 -5.40211 -1.83107 0
M  V30 4979 O 446.96 -6.019 0.00721351 0
M  V30 4980 H 450.786 -2.86597 1.00478 0
M  V30 4981 H 448.371 -1.38676 0.555818 0
M  V30 4982 H 450.253 -4.05703 -1.13944 0
M  V30 4983 H 448.928 -2.89937 -1.43938 0
M  V30 4984 H 447.835 -3.66554 0.747615 0
M  V30 4985 H 449.168 -4.82661 0.964332 0
M  V30 4986 N 450.82 -0.546701 -1.47814 0
M  V30 4987 C 451.767 0.206854 -2.29871 0
M  V30 4988 C 452.737 0.918235 -1.38411 0
M  V30 4989 O 453.922 0.915991 -1.67375 0
M  V30 4990 C 451.062 1.23746 -3.22151 0
M  V30 4991 C 450.175 0.533216 -4.28697 0
M  V30 4992 C 449.31 1.5482 -5.08138 0
M  V30 4993 C 448.349 0.828347 -6.06469 0
M  V30 4994 N 447.486 1.78966 -6.78908 0
M  V30 4995 H 452.326 -0.499037 -2.93792 0
M  V30 4996 H 449.863 -0.25793 -1.44821 0
M  V30 4997 H 451.821 1.84746 -3.74065 0
M  V30 4998 H 450.451 1.91151 -2.60117 0
M  V30 4999 H 449.503 -0.191089 -3.7992 0
M  V30 5000 H 450.815 -0.0311987 -4.9879 0
M  V30 5001 H 449.969 2.23202 -5.6415 0
M  V30 5002 H 448.708 2.14652 -4.37922 0
M  V30 5003 H 447.713 0.130539 -5.49645 0
M  V30 5004 H 448.938 0.235907 -6.7869 0
M  V30 5005 H 446.884 2.37675 -6.1143 0
M  V30 5006 H 446.801 1.27712 -7.45135 0
M  V30 5007 H 448.069 2.46496 -7.395 0
M  V30 5008 N 452.299 1.55045 -0.282633 0
M  V30 5009 C 453.529 2.03872 0.334635 0
M  V30 5010 C 453.937 1.16018 1.49454 0
M  V30 5011 O 453.28 0.174449 1.8287 0
M  V30 5012 C 453.342 3.48791 0.870905 0
M  V30 5013 C 453.006 4.56715 -0.161338 0
M  V30 5014 C 454.003 5.10513 -0.983466 0
M  V30 5015 C 451.688 5.01417 -0.297745 0
M  V30 5016 C 453.682 6.07538 -1.92811 0
M  V30 5017 C 451.369 5.98265 -1.24586 0
M  V30 5018 C 452.367 6.51208 -2.05954 0
M  V30 5019 O 452.055 7.46162 -2.99162 0
M  V30 5020 H 451.787 0.671324 0.0793742 0
M  V30 5021 H 454.341 2.01169 -0.41473 0
M  V30 5022 H 452.571 3.48758 1.67047 0
M  V30 5023 H 454.26 3.80916 1.40207 0
M  V30 5024 H 455.026 4.76785 -0.888856 0
M  V30 5025 H 450.905 4.59849 0.325604 0
M  V30 5026 H 454.449 6.48787 -2.56363 0
M  V30 5027 H 450.346 6.31412 -1.34126 0
M  V30 5028 H 451.114 7.63903 -2.93929 0
M  V30 5029 N 453.777 0.010035 1.57597 0
M  V30 5030 C 454.687 -0.994226 2.12491 0
M  V30 5031 C 455.703 -1.37013 1.07254 0
M  V30 5032 O 456.879 -1.45542 1.3921 0
M  V30 5033 C 453.944 -2.2642 2.62555 0
M  V30 5034 C 453.005 -1.95049 3.82432 0
M  V30 5035 C 452.238 -3.15991 4.30099 0
M  V30 5036 O 452.461 -4.28015 3.7704 0
M  V30 5037 O 451.395 -2.99403 5.22151 0
M  V30 5038 H 455.221 -0.557549 2.98538 0
M  V30 5039 H 452.806 -0.209413 1.47925 0
M  V30 5040 H 454.688 -3.01009 2.9491 0
M  V30 5041 H 453.363 -2.69306 1.796 0
M  V30 5042 H 452.27 -1.17904 3.55034 0
M  V30 5043 H 453.603 -1.56992 4.66491 0
M  V30 5044 N 455.255 -1.55392 -0.262866 0
M  V30 5045 C 456.48 -1.80847 -1.01533 0
M  V30 5046 C 456.905 -0.584946 -1.78774 0
M  V30 5047 O 456.263 0.465701 -1.75217 0
M  V30 5048 C 456.311 -3.03866 -1.94159 0
M  V30 5049 O 455.415 -2.79662 -3.03089 0
M  V30 5050 H 454.756 -0.597441 -0.289759 0
M  V30 5051 H 457.286 -2.02553 -0.288698 0
M  V30 5052 H 457.296 -3.32872 -2.35924 0
M  V30 5053 H 455.971 -3.92564 -1.37354 0
M  V30 5054 H 454.548 -2.61781 -2.65566 0
M  V30 5055 N 456.733 0.527833 -1.48498 0
M  V30 5056 C 457.663 1.64136 -1.66077 0
M  V30 5057 C 458.644 1.62286 -0.509625 0
M  V30 5058 O 459.829 1.79449 -0.742413 0
M  V30 5059 C 456.959 3.02717 -1.70234 0
M  V30 5060 C 455.913 3.19426 -2.8487 0
M  V30 5061 C 455.239 4.5909 -2.74118 0
M  V30 5062 C 456.539 3.01993 -4.26142 0
M  V30 5063 H 458.233 1.4968 -2.593 0
M  V30 5064 H 455.779 0.718654 -1.24785 0
M  V30 5065 H 457.732 3.80491 -1.8112 0
M  V30 5066 H 456.456 3.18201 -0.735911 0
M  V30 5067 H 455.115 2.4407 -2.73542 0
M  V30 5068 H 454.763 4.71413 -1.7544 0
M  V30 5069 H 454.463 4.71214 -3.51042 0
M  V30 5070 H 455.987 5.3896 -2.86974 0
M  V30 5071 H 457.401 3.69558 -4.38292 0
M  V30 5072 H 455.798 3.2561 -5.04082 0
M  V30 5073 H 456.868 1.98396 -4.42456 0
M  V30 5074 N 458.211 1.37122 0.776871 0
M  V30 5075 C 459.174 1.32301 1.8716 0
M  V30 5076 C 460.174 0.228099 1.59174 0
M  V30 5077 O 461.364 0.483642 1.67352 0
M  V30 5078 C 458.496 1.054 3.24197 0
M  V30 5079 H 459.689 2.29673 1.92848 0
M  V30 5080 H 457.242 1.22077 0.97606 0
M  V30 5081 H 457.977 0.0853872 3.24188 0
M  V30 5082 H 457.762 1.84648 3.45901 0
M  V30 5083 H 459.252 1.04664 4.04271 0
M  V30 5084 N 459.689 -1.00246 1.21608 0
M  V30 5085 C 460.914 -1.78167 1.06167 0
M  V30 5086 C 461.339 -1.84138 -0.384035 0
M  V30 5087 O 460.697 -1.28683 -1.27712 0
M  V30 5088 C 460.745 -3.19786 1.66642 0
M  V30 5089 O 459.849 -4.02153 0.913613 0
M  V30 5090 H 459.19 -0.549 0.37349 0
M  V30 5091 H 461.72 -1.25994 1.61204 0
M  V30 5092 H 461.73 -3.70451 1.70969 0
M  V30 5093 H 460.405 -3.14754 2.7185 0
M  V30 5094 H 458.982 -3.60711 0.945635 0
M  V30 5095 N 461.167 -1.02423 -1.1978 0
M  V30 5096 C 462.444 -0.632802 -1.85081 0
M  V30 5097 C 462.824 0.888745 -1.9148 0
M  V30 5098 O 462.172 1.78357 -1.42832 0
M  V30 5099 C 462.382 -1.28947 -3.24305 0
M  V30 5100 C 463.73 -1.40976 -4.00513 0
M  V30 5101 O 464.754 -1.24628 -3.33686 0
M  V30 5102 O 463.613 -1.67467 -5.20209 0
M  V30 5103 H 460.707 -0.219348 -0.79738 0
M  V30 5104 H 463.253 -1.12209 -1.27307 0
M  V30 5105 H 462.025 -2.3288 -3.14456 0
M  V30 5106 H 461.648 -0.787748 -3.89718 0
M  V30 5107 N 462.645 1.35699 -0.801477 0
M  V30 5108 C 463.575 2.32436 -0.222658 0
M  V30 5109 C 464.556 1.5723 0.649057 0
M  V30 5110 O 465.741 1.85324 0.580387 0
M  V30 5111 C 462.871 3.41469 0.633719 0
M  V30 5112 C 461.825 4.27774 -0.139083 0
M  V30 5113 C 461.151 5.28082 0.838666 0
M  V30 5114 C 462.451 5.04946 -1.33517 0
M  V30 5115 H 464.145 2.81094 -1.03086 0
M  V30 5116 H 461.691 1.35146 -0.497155 0
M  V30 5117 H 463.644 4.08143 1.04868 0
M  V30 5118 H 462.368 2.91408 1.47475 0
M  V30 5119 H 461.027 3.62673 -0.535156 0
M  V30 5120 H 460.675 4.7429 1.67506 0
M  V30 5121 H 460.375 5.86695 0.32594 0
M  V30 5122 H 461.899 5.97628 1.25194 0
M  V30 5123 H 463.313 5.64593 -0.995349 0
M  V30 5124 H 461.71 5.7303 -1.78202 0
M  V30 5125 H 462.78 4.35886 -2.12442 0
M  V30 5126 N 464.123 0.554532 1.47522 0
M  V30 5127 C 465.053 -0.182974 2.32782 0
M  V30 5128 C 466.034 -0.911377 1.43624 0
M  V30 5129 O 467.219 -0.892366 1.72483 0
M  V30 5130 C 464.349 -1.21513 3.25349 0
M  V30 5131 C 463.303 -0.603355 4.23726 0
M  V30 5132 C 462.629 -1.73995 5.05598 0
M  V30 5133 C 463.929 0.441121 5.20434 0
M  V30 5134 H 465.623 0.52882 2.94693 0
M  V30 5135 H 463.169 0.255759 1.41711 0
M  V30 5136 H 465.122 -1.73922 3.83835 0
M  V30 5137 H 463.846 -1.95683 2.61487 0
M  V30 5138 H 462.505 -0.10059 3.66462 0
M  V30 5139 H 462.153 -2.47063 4.38143 0
M  V30 5140 H 461.853 -1.3364 5.72201 0
M  V30 5141 H 463.377 -2.26735 5.66942 0
M  V30 5142 H 464.791 0.00319931 5.733 0
M  V30 5143 H 463.188 0.763402 5.95224 0
M  V30 5144 H 464.258 1.33799 4.66075 0
M  V30 5145 N 465.601 -1.54893 0.290851 0
M  V30 5146 C 466.511 -2.26812 -0.59945 0
M  V30 5147 C 467.527 -1.29963 -1.15696 0
M  V30 5148 O 468.703 -1.62928 -1.18391 0
M  V30 5149 C 465.768 -2.98716 -1.75982 0
M  V30 5150 C 464.829 -4.1108 -1.2374 0
M  V30 5151 C 464.062 -4.79546 -2.34246 0
M  V30 5152 O 464.285 -4.47309 -3.53936 0
M  V30 5153 O 463.219 -5.67165 -2.01512 0
M  V30 5154 H 467.045 -3.03696 -0.0163561 0
M  V30 5155 H 464.63 -1.49289 0.0576755 0
M  V30 5156 H 466.512 -3.43851 -2.43607 0
M  V30 5157 H 465.187 -2.24737 -2.3297 0
M  V30 5158 H 464.094 -3.70367 -0.527163 0
M  V30 5159 H 465.427 -4.87007 -0.71307 0
M  V30 5160 N 467.08 -0.0183926 -1.57589 0
M  V30 5161 C 468.326 0.657813 -1.92469 0
M  V30 5162 C 468.681 1.70349 -0.894375 0
M  V30 5163 O 467.974 1.91384 0.0910389 0
M  V30 5164 C 468.168 1.32676 -3.31861 0
M  V30 5165 C 467.997 0.347403 -4.48356 0
M  V30 5166 C 466.767 -0.0488653 -5.05276 0
M  V30 5167 C 468.965 -0.393931 -5.12789 0
M  V30 5168 N 466.947 -1.02451 -6.05291 0
M  V30 5169 C 468.318 -1.22367 -6.07804 0
M  V30 5170 C 470.373 -0.455789 -4.95809 0
M  V30 5171 C 469.076 -2.10966 -6.87667 0
M  V30 5172 C 471.102 -1.32908 -5.76272 0
M  V30 5173 C 470.464 -2.14662 -6.70894 0
M  V30 5174 H 466.563 0.21335 -0.752334 0
M  V30 5175 H 469.147 -0.0830547 -1.94523 0
M  V30 5176 H 467.318 2.03782 -3.30647 0
M  V30 5177 H 469.05 1.95913 -3.54119 0
M  V30 5178 H 465.805 0.323356 -4.72495 0
M  V30 5179 H 466.229 -1.50826 -6.59985 0
M  V30 5180 H 470.871 0.162017 -4.22489 0
M  V30 5181 H 468.589 -2.73807 -7.603 0
M  V30 5182 H 472.175 -1.38109 -5.6517 0
M  V30 5183 H 471.055 -2.81143 -7.32071 0
M  V30 5184 N 468.558 1.5553 0.254621 0
M  V30 5185 C 469.807 1.76202 0.981612 0
M  V30 5186 C 470.12 0.580883 1.86776 0
M  V30 5187 O 471.326 0.670448 2.63092 0
M  V30 5188 C 469.782 3.11921 1.79537 0
M  V30 5189 C 469.39 4.37659 0.956991 0
M  V30 5190 C 471.134 3.41936 2.51555 0
M  V30 5191 C 469.041 5.64411 1.76619 0
M  V30 5192 H 467.971 0.656841 0.370237 0
M  V30 5193 H 470.622 1.81969 0.236556 0
M  V30 5194 H 469.004 3.00241 2.58208 0
M  V30 5195 H 470.178 4.60307 0.21315 0
M  V30 5196 H 468.493 4.14922 0.350497 0
M  V30 5197 H 471.09 4.33849 3.12536 0
M  V30 5198 H 471.433 2.62905 3.22779 0
M  V30 5199 H 471.966 3.54797 1.799 0
M  V30 5200 H 468.705 6.46241 1.09783 0
M  V30 5201 H 468.225 5.45877 2.48551 0
M  V30 5202 H 469.904 6.03386 2.33527 0
M  V30 5203 N 470.036 -0.519951 1.48776 0
M  V30 5204 C 470.946 -1.65025 1.66745 0
M  V30 5205 C 471.962 -1.6508 0.549954 0
M  V30 5206 O 473.138 -1.83848 0.822295 0
M  V30 5207 C 470.203 -3.0146 1.71238 0
M  V30 5208 C 469.264 -3.12182 2.94688 0
M  V30 5209 C 468.497 -4.42109 2.98958 0
M  V30 5210 O 468.72 -5.29799 2.1135 0
M  V30 5211 O 467.654 -4.57406 3.91233 0
M  V30 5212 H 471.48 -1.52801 2.62461 0
M  V30 5213 H 469.065 -0.694157 1.32294 0
M  V30 5214 H 470.947 -3.82584 1.76657 0
M  V30 5215 H 469.622 -3.13988 0.786975 0
M  V30 5216 H 468.529 -2.30316 2.94797 0
M  V30 5217 H 469.862 -3.04574 3.86646 0
M  V30 5218 N 471.514 -1.37532 -0.769588 0
M  V30 5219 C 472.446 -1.29347 -1.89214 0
M  V30 5220 C 473.459 -0.208842 -1.61455 0
M  V30 5221 O 474.648 -0.465158 -1.72333 0
M  V30 5222 C 471.748 -0.977649 -3.24492 0
M  V30 5223 C 470.921 -2.16817 -3.7988 0
M  V30 5224 C 469.98 -1.82229 -4.93639 0
M  V30 5225 O 469.006 -2.54548 -5.09111 0
M  V30 5226 N 470.208 -0.767696 -5.75401 0
M  V30 5227 H 472.973 -2.26073 -1.96751 0
M  V30 5228 H 470.534 -1.31185 -0.948795 0
M  V30 5229 H 472.526 -0.727065 -3.98115 0
M  V30 5230 H 471.096 -0.0988777 -3.12444 0
M  V30 5231 H 470.316 -2.58038 -2.9801 0
M  V30 5232 H 471.604 -2.96308 -4.13617 0
M  V30 5233 H 471.002 -0.167626 -5.65452 0
M  V30 5234 H 469.559 -0.576973 -6.49241 0
M  V30 5235 N 472.992 0.995999 -1.22138 0
M  V30 5236 C 474.22 1.77066 -1.07029 0
M  V30 5237 C 474.635 1.8495 0.379357 0
M  V30 5238 O 473.992 1.3174 1.26297 0
M  V30 5239 C 474.043 3.20533 -1.67155 0
M  V30 5240 O 473.764 3.13082 -3.06449 0
M  V30 5241 C 475.265 4.14461 -1.5728 0
M  V30 5242 H 472.485 0.556179 -0.375374 0
M  V30 5243 H 475.029 1.25238 -1.61666 0
M  V30 5244 H 473.184 3.6944 -1.16589 0
M  V30 5245 H 473.598 4.03283 -3.35355 0
M  V30 5246 H 475.072 5.1289 -2.04078 0
M  V30 5247 H 475.549 4.36005 -0.528795 0
M  V30 5248 H 476.155 3.71449 -2.07136 0
M  V30 5249 N 474.47 1.03057 1.19235 0
M  V30 5250 C 475.719 0.72326 1.88287 0
M  V30 5251 C 476.032 -0.751333 1.80594 0
M  V30 5252 O 477.238 -1.17176 2.44912 0
M  V30 5253 C 475.694 1.24338 3.3774 0
M  V30 5254 C 475.302 2.74587 3.53986 0
M  V30 5255 C 477.046 1.01213 4.12257 0
M  V30 5256 C 474.953 3.20009 4.97341 0
M  V30 5257 H 473.883 0.266848 0.705201 0
M  V30 5258 H 476.534 1.24509 1.34795 0
M  V30 5259 H 474.916 0.649457 3.90638 0
M  V30 5260 H 476.09 3.39649 3.11408 0
M  V30 5261 H 474.405 2.9601 2.9286 0
M  V30 5262 H 477.002 1.32675 5.17978 0
M  V30 5263 H 477.345 -0.051001 4.16269 0
M  V30 5264 H 477.878 1.57014 3.65501 0
M  V30 5265 H 474.617 4.25659 4.98493 0
M  V30 5266 H 474.137 2.59676 5.40674 0
M  V30 5267 H 475.816 3.13447 5.66003 0
M  V30 5268 N 475.948 -1.35272 0.808662 0
M  V30 5269 C 477.197 -1.97963 0.386483 0
M  V30 5270 C 477.51 -1.64866 -1.05255 0
M  V30 5271 O 478.716 -2.20937 -1.57794 0
M  V30 5272 C 477.172 -3.54162 0.640096 0
M  V30 5273 C 476.78 -3.96166 2.0918 0
M  V30 5274 C 478.524 -4.23553 0.283376 0
M  V30 5275 C 476.431 -5.4522 2.29106 0
M  V30 5276 H 475.361 -0.740742 0.140774 0
M  V30 5277 H 478.012 -1.5431 0.993012 0
M  V30 5278 H 476.394 -3.95983 -0.0364117 0
M  V30 5279 H 477.568 -3.65491 2.80629 0
M  V30 5280 H 475.883 -3.3967 2.40859 0
M  V30 5281 H 478.48 -5.33124 0.410273 0
M  V30 5282 H 478.823 -4.09105 -0.770659 0
M  V30 5283 H 479.356 -3.8716 0.913884 0
M  V30 5284 H 476.095 -5.64638 3.32962 0
M  V30 5285 H 475.615 -5.77457 1.62184 0
M  V30 5286 H 477.294 -6.1171 2.1076 0
M  V30 5287 N 477.426 -0.562348 -1.47226 0
M  V30 5288 C 478.675 -0.038041 -2.01664 0
M  V30 5289 C 478.988 1.32199 -1.44162 0
M  V30 5290 O 480.194 1.9365 -1.90294 0
M  V30 5291 C 478.65 -0.0174958 -3.59896 0
M  V30 5292 C 478.258 -1.3746 -4.2639 0
M  V30 5293 C 480.002 0.453934 -4.22066 0
M  V30 5294 C 477.909 -1.31289 -5.76643 0
M  V30 5295 H 476.839 -0.0104511 -0.753928 0
M  V30 5296 H 479.49 -0.710966 -1.69167 0
M  V30 5297 H 477.872 0.721182 -3.89378 0
M  V30 5298 H 479.046 -2.1314 -4.08544 0
M  V30 5299 H 477.361 -1.78438 -3.7623 0
M  V30 5300 H 479.958 0.518584 -5.32179 0
M  V30 5301 H 480.301 1.46706 -3.89594 0
M  V30 5302 H 480.834 -0.230044 -3.97134 0
M  V30 5303 H 477.573 -2.30217 -6.13743 0
M  V30 5304 H 477.093 -0.597973 -5.96812 0
M  V30 5305 H 478.772 -1.01713 -6.38955 0
M  V30 5306 N 478.904 1.54736 -0.299062 0
M  V30 5307 C 479.834 2.26409 0.571085 0
M  V30 5308 C 480.815 1.2629 1.13951 0
M  V30 5309 O 482 1.55059 1.16921 0
M  V30 5310 C 479.13 3.00338 1.74396 0
M  V30 5311 C 478.084 4.07588 1.30599 0
M  V30 5312 C 477.41 4.69222 2.56387 0
M  V30 5313 C 478.71 5.20455 0.438645 0
M  V30 5314 H 480.404 2.99388 -0.0266991 0
M  V30 5315 H 477.95 1.43993 -0.0142812 0
M  V30 5316 H 479.903 3.49198 2.35878 0
M  V30 5317 H 478.627 2.24934 2.36796 0
M  V30 5318 H 477.286 3.59575 0.71424 0
M  V30 5319 H 476.934 3.9046 3.17097 0
M  V30 5320 H 476.634 5.41653 2.27784 0
M  V30 5321 H 478.158 5.20844 3.18675 0
M  V30 5322 H 479.572 5.65221 0.959085 0
M  V30 5323 H 477.969 5.99594 0.246466 0
M  V30 5324 H 479.039 4.8192 -0.536738 0
M  V30 5325 N 480.382 0.0267497 1.57577 0
M  V30 5326 C 481.33 -0.973923 2.11229 0
M  V30 5327 C 482.324 -1.33849 1.03831 0
M  V30 5328 O 483.53 -1.321 1.22269 0
M  V30 5329 H 479.905 -0.331844 0.674821 0
M  V30 5330 H 481.876 -0.496092 2.94247 0
M  V30 5331 C 480.625 -2.24798 2.65257 0
M  V30 5332 H 479.948 -1.9762 3.47543 0
M  V30 5333 H 481.388 -2.93031 3.06445 0
M  V30 5334 C 479.847 -2.97611 1.57891 0
M  V30 5335 O 480.377 -3.89629 0.97735 0
M  V30 5336 N 478.583 -2.59905 1.29992 0
M  V30 5337 H 478.13 -1.85154 1.79097 0
M  V30 5338 H 478.088 -3.08932 0.583798 0
M  V30 5339 N 481.861 -1.55662 -0.24637 0
M  V30 5340 C 482.809 -1.91186 -1.3248 0
M  V30 5341 C 483.803 -0.790996 -1.49799 0
M  V30 5342 O 485.009 -0.975617 -1.51267 0
M  V30 5343 H 481.384 -0.607207 -0.443626 0
M  V30 5344 H 483.355 -2.81221 -0.997853 0
M  V30 5345 C 482.104 -2.22349 -2.67313 0
M  V30 5346 H 481.427 -3.08097 -2.54786 0
M  V30 5347 H 482.867 -2.51107 -3.41645 0
M  V30 5348 C 481.326 -1.04001 -3.20446 0
M  V30 5349 O 481.856 -0.28828 -4.00664 0
M  V30 5350 N 480.062 -0.830494 -2.7848 0
M  V30 5351 H 479.609 -1.4435 -2.13356 0
M  V30 5352 H 479.567 -0.0403258 -3.14374 0
M  V30 5353 N 483.339 0.512053 -1.4905 0
M  V30 5354 C 484.755 0.84224 -1.35567 0
M  V30 5355 C 484.955 1.97878 -0.380319 0
M  V30 5356 O 484.011 2.51769 0.19201 0
M  V30 5357 C 485.324 1.19286 -2.76028 0
M  V30 5358 C 486.872 1.30171 -2.84648 0
M  V30 5359 C 487.347 1.68568 -4.25851 0
M  V30 5360 N 488.838 1.75638 -4.28609 0
M  V30 5361 C 489.573 2.06769 -5.34821 0
M  V30 5362 N 489.069 2.36201 -6.51292 0
M  V30 5363 N 490.862 2.07927 -5.22229 0
M  V30 5364 H 483.013 -0.237574 -2.11067 0
M  V30 5365 H 485.276 -0.0436747 -0.946993 0
M  V30 5366 H 484.982 0.431199 -3.49047 0
M  V30 5367 H 484.856 2.13889 -3.10695 0
M  V30 5368 H 487.243 2.05411 -2.11873 0
M  V30 5369 H 487.324 0.336457 -2.53578 0
M  V30 5370 H 486.968 0.938824 -4.99148 0
M  V30 5371 H 486.898 2.66174 -4.54377 0
M  V30 5372 H 489.389 1.55097 -3.44606 0
M  V30 5373 H 489.702 2.59112 -7.28066 0
M  V30 5374 H 488.047 2.33681 -6.54536 0
M  V30 5375 H 491.238 1.84403 -4.30248 0
M  V30 5376 H 491.411 2.31856 -6.05101 0
M  V30 5377 N 484.817 1.37938 0.762283 0
M  V30 5378 C 485.764 1.34467 1.87583 0
M  V30 5379 C 486.734 0.208633 1.64785 0
M  V30 5380 O 487.919 0.399494 1.86571 0
M  V30 5381 C 485.059 1.16692 3.24772 0
M  V30 5382 C 484.172 2.39608 3.59461 0
M  V30 5383 C 483.307 2.14631 4.85908 0
M  V30 5384 C 482.346 3.33364 5.13357 0
M  V30 5385 N 481.483 3.07877 6.30996 0
M  V30 5386 H 486.323 2.29669 1.89885 0
M  V30 5387 H 483.86 1.14116 0.928219 0
M  V30 5388 H 485.818 1.04405 4.03925 0
M  V30 5389 H 484.448 0.251333 3.2182 0
M  V30 5390 H 483.5 2.626 2.75219 0
M  V30 5391 H 484.812 3.28128 3.75678 0
M  V30 5392 H 483.966 1.99429 5.72986 0
M  V30 5393 H 482.705 1.23463 4.71814 0
M  V30 5394 H 481.71 3.49094 4.24751 0
M  V30 5395 H 482.935 4.25395 5.29354 0
M  V30 5396 H 480.881 2.19348 6.18241 0
M  V30 5397 H 480.798 3.89944 6.47673 0
M  V30 5398 H 482.066 2.96313 7.20985 0
M  V30 5399 N 486.295 -0.989507 1.22664 0
M  V30 5400 C 487.542 -1.72953 1.05325 0
M  V30 5401 C 487.87 -1.90104 -0.411168 0
M  V30 5402 O 487.125 -1.44386 -1.32103 0
M  V30 5403 C 487.424 -3.13649 1.71345 0
M  V30 5404 C 487.09 -3.16403 3.21248 0
M  V30 5405 C 485.752 -3.16862 3.62149 0
M  V30 5406 C 488.104 -3.12428 4.17179 0
M  V30 5407 C 485.432 -3.11051 4.97458 0
M  V30 5408 C 487.784 -3.08159 5.52468 0
M  V30 5409 C 486.448 -3.06935 5.92746 0
M  V30 5410 H 485.718 -0.632881 0.385412 0
M  V30 5411 H 488.365 -1.15863 1.52473 0
M  V30 5412 H 486.67 -3.74069 1.16532 0
M  V30 5413 H 488.367 -3.69658 1.55416 0
M  V30 5414 H 484.957 -3.16798 2.88682 0
M  V30 5415 H 489.141 -3.11221 3.86595 0
M  V30 5416 H 484.397 -3.0845 5.27891 0
M  V30 5417 H 488.571 -3.04039 6.26525 0
M  V30 5418 H 486.198 -3.02186 6.97558 0
M  V30 5419 N 487.773 -1.03688 -1.18687 0
M  V30 5420 C 488.736 -0.629115 -2.20397 0
M  V30 5421 C 489.736 0.311495 -1.57754 0
M  V30 5422 O 490.926 0.0974107 -1.73927 0
M  V30 5423 C 488.058 0.0782231 -3.4081 0
M  V30 5424 H 489.251 -1.52915 -2.57987 0
M  V30 5425 H 486.804 -0.828988 -1.32505 0
M  V30 5426 H 487.539 0.992233 -3.08748 0
M  V30 5427 H 487.324 -0.597776 -3.87517 0
M  V30 5428 H 488.814 0.350156 -4.16129 0
M  V30 5429 N 489.251 1.34841 -0.815825 0
M  V30 5430 C 490.199 2.31549 -0.220888 0
M  V30 5431 C 491.193 1.5707 0.634457 0
M  V30 5432 O 492.399 1.72125 0.526589 0
M  V30 5433 H 488.774 0.750153 -0.0526782 0
M  V30 5434 H 490.745 2.7926 -1.05149 0
M  V30 5435 C 489.494 3.42335 0.608427 0
M  V30 5436 H 488.817 3.9978 -0.0404121 0
M  V30 5437 H 490.257 4.12258 0.990931 0
M  V30 5438 C 488.716 2.86173 1.77782 0
M  V30 5439 O 489.246 2.80474 2.87571 0
M  V30 5440 N 487.452 2.43093 1.59229 0
M  V30 5441 H 486.999 2.47928 0.699237 0
M  V30 5442 H 486.957 2.05866 2.37627 0
M  V30 5443 N 490.729 0.570148 1.46925 0
M  V30 5444 C 491.954 0.0542592 2.07329 0
M  V30 5445 C 492.379 -1.23582 1.41806 0
M  V30 5446 O 491.737 -1.74341 0.497479 0
M  V30 5447 C 491.785 -0.111175 3.60429 0
M  V30 5448 O 490.889 -1.17071 3.95434 0
M  V30 5449 H 490.23 0.0571425 0.661537 0
M  V30 5450 H 492.76 0.789516 1.88753 0
M  V30 5451 H 492.77 -0.321315 4.06733 0
M  V30 5452 H 491.445 0.831012 4.07513 0
M  V30 5453 H 490.022 -0.940029 3.60857 0
M  V30 5454 N 492.207 -1.54576 0.307264 0
M  V30 5455 C 493.137 -2.26708 -0.55907 0
M  V30 5456 C 494.118 -1.26893 -1.1328 0
M  V30 5457 O 495.303 -1.55677 -1.16097 0
M  V30 5458 C 492.433 -3.01259 -1.72801 0
M  V30 5459 C 491.387 -4.08275 -1.28435 0
M  V30 5460 C 490.713 -4.70575 -2.53895 0
M  V30 5461 C 492.013 -5.2068 -0.411038 0
M  V30 5462 H 493.707 -2.9937 0.042576 0
M  V30 5463 H 491.253 -1.43983 0.0219173 0
M  V30 5464 H 493.206 -3.50444 -2.34023 0
M  V30 5465 H 491.93 -2.26187 -2.356 0
M  V30 5466 H 490.589 -3.59949 -0.695161 0
M  V30 5467 H 490.237 -3.92136 -3.15021 0
M  V30 5468 H 489.937 -5.42854 -2.24908 0
M  V30 5469 H 491.461 -5.22527 -3.15908 0
M  V30 5470 H 492.875 -5.65721 -0.929097 0
M  V30 5471 H 491.272 -5.99716 -0.214664 0
M  V30 5472 H 492.342 -4.81629 0.562287 0
M  V30 5473 N 493.685 -0.035106 -1.57561 0
M  V30 5474 C 494.931 0.64318 -1.92331 0
M  V30 5475 C 495.264 1.71434 -0.912368 0
M  V30 5476 O 494.539 1.94395 0.0640303 0
M  V30 5477 C 494.822 1.25411 -3.37556 0
M  V30 5478 C 494.675 0.192109 -4.4939 0
M  V30 5479 C 495.994 2.17041 -3.82859 0
M  V30 5480 H 493.113 0.232341 -0.699419 0
M  V30 5481 H 495.755 -0.0935889 -1.89769 0
M  V30 5482 H 493.905 1.88205 -3.39869 0
M  V30 5483 H 495.577 -0.438849 -4.59208 0
M  V30 5484 H 493.82 -0.481725 -4.31117 0
M  V30 5485 H 494.491 0.659292 -5.48049 0
M  V30 5486 H 496.967 1.64228 -3.8232 0
M  V30 5487 H 495.843 2.56738 -4.85157 0
M  V30 5488 H 496.104 3.06401 -3.18702 0
M  V30 5489 N 495.163 1.55791 0.238111 0
M  V30 5490 C 496.411 1.77681 0.963001 0
M  V30 5491 C 496.732 0.600674 1.85518 0
M  V30 5492 O 496.002 -0.383182 1.92116 0
M  V30 5493 H 494.582 0.655315 0.358568 0
M  V30 5494 H 497.244 1.93239 0.253945 0
M  V30 5495 H 496.34 2.69177 1.57956 0
M  V30 5496 N 496.642 -0.504142 1.49319 0
M  V30 5497 C 497.888 -1.26033 1.58882 0
M  V30 5498 C 498.221 -1.92268 0.273274 0
M  V30 5499 O 497.496 -1.80567 -0.72291 0
M  V30 5500 C 497.779 -2.32976 2.7458 0
M  V30 5501 C 497.632 -1.71263 4.1592 0
M  V30 5502 C 498.951 -3.34561 2.85932 0
M  V30 5503 H 496.07 -0.456863 0.578312 0
M  V30 5504 H 498.712 -0.558965 1.81592 0
M  V30 5505 H 496.862 -2.92796 2.55348 0
M  V30 5506 H 498.534 -1.15294 4.4666 0
M  V30 5507 H 496.777 -1.01686 4.21714 0
M  V30 5508 H 497.448 -2.48816 4.92742 0
M  V30 5509 H 499.924 -2.84727 3.0343 0
M  V30 5510 H 498.8 -4.06754 3.68568 0
M  V30 5511 H 499.061 -3.96695 1.95154 0
M  V30 5512 N 498.12 -1.38341 -0.754957 0
M  V30 5513 C 499.052 -1.31347 -1.87831 0
M  V30 5514 C 500.065 -0.225955 -1.61224 0
M  V30 5515 O 501.254 -0.48341 -1.7183 0
M  V30 5516 C 498.354 -1.01201 -3.23437 0
M  V30 5517 C 497.527 -2.20834 -3.77559 0
M  V30 5518 C 496.586 -1.87454 -4.91678 0
M  V30 5519 O 495.612 -2.59934 -5.06382 0
M  V30 5520 N 496.814 -0.828682 -5.74555 0
M  V30 5521 H 499.579 -2.28147 -1.94342 0
M  V30 5522 H 497.14 -1.32184 -0.934828 0
M  V30 5523 H 499.132 -0.769249 -3.97322 0
M  V30 5524 H 497.702 -0.132011 -3.12321 0
M  V30 5525 H 496.922 -2.61184 -2.95256 0
M  V30 5526 H 498.21 -3.00678 -4.10451 0
M  V30 5527 H 497.608 -0.227591 -5.65242 0
M  V30 5528 H 496.165 -0.645802 -6.48593 0
M  V30 5529 N 499.598 0.982988 -1.23187 0
M  V30 5530 C 500.53 2.07729 -0.968572 0
M  V30 5531 C 501.543 1.62702 0.0564821 0
M  V30 5532 O 502.732 1.77603 -0.178733 0
M  V30 5533 C 499.832 3.36071 -0.436974 0
M  V30 5534 C 499.005 4.10081 -1.52159 0
M  V30 5535 C 498.064 5.16701 -0.99532 0
M  V30 5536 O 497.09 5.43727 -1.68373 0
M  V30 5537 N 498.292 5.80226 0.178192 0
M  V30 5538 H 501.057 2.30894 -1.9107 0
M  V30 5539 H 498.618 1.14949 -1.1401 0
M  V30 5540 H 500.61 4.04639 -0.0700051 0
M  V30 5541 H 499.18 3.09893 0.410509 0
M  V30 5542 H 498.4 3.36004 -2.06144 0
M  V30 5543 H 499.688 4.56295 -2.25105 0
M  V30 5544 H 499.086 5.60651 0.754096 0
M  V30 5545 H 497.643 6.49982 0.486449 0
M  V30 5546 N 501.076 1.04316 1.18135 0
M  V30 5547 C 502.008 0.594444 2.21357 0
M  V30 5548 C 503.021 -0.337215 1.59269 0
M  V30 5549 O 504.21 -0.131337 1.78016 0
M  V30 5550 C 501.31 -0.151251 3.38562 0
M  V30 5551 C 500.483 0.788907 4.30227 0
M  V30 5552 C 499.542 0.0860572 5.2613 0
M  V30 5553 O 498.568 0.717302 5.64662 0
M  V30 5554 N 499.77 -1.17969 5.68387 0
M  V30 5555 H 502.535 1.48227 2.60478 0
M  V30 5556 H 500.096 0.92396 1.32946 0
M  V30 5557 H 502.088 -0.631352 3.99745 0
M  V30 5558 H 500.658 -0.940639 2.98112 0
M  V30 5559 H 499.878 1.44882 3.6661 0
M  V30 5560 H 501.166 1.42738 4.88368 0
M  V30 5561 H 500.564 -1.71302 5.3914 0
M  V30 5562 H 499.121 -1.60402 6.31755 0
M  V30 5563 N 502.554 -1.34406 0.822964 0
M  V30 5564 C 503.484 -2.32052 0.259608 0
M  V30 5565 C 504.465 -1.58243 -0.623961 0
M  V30 5566 O 505.65 -1.86224 -0.55083 0
M  V30 5567 C 502.78 -3.42434 -0.579314 0
M  V30 5568 C 501.734 -4.27499 0.20712 0
M  V30 5569 C 501.06 -5.29349 -0.754547 0
M  V30 5570 C 502.36 -5.02758 1.41533 0
M  V30 5571 H 504.054 -2.79418 1.07545 0
M  V30 5572 H 501.6 -1.34338 0.518593 0
M  V30 5573 H 503.553 -4.0976 -0.983612 0
M  V30 5574 H 502.277 -2.93717 -1.4282 0
M  V30 5575 H 500.936 -3.61776 0.592787 0
M  V30 5576 H 500.584 -4.76895 -1.59939 0
M  V30 5577 H 500.284 -5.8714 -0.232561 0
M  V30 5578 H 501.808 -5.99544 -1.1567 0
M  V30 5579 H 503.222 -5.62938 1.08504 0
M  V30 5580 H 501.619 -5.70123 1.87296 0
M  V30 5581 H 502.689 -4.32451 2.1935 0
M  V30 5582 N 504.032 -0.577932 -1.46621 0
M  V30 5583 C 504.964 0.195801 -2.28362 0
M  V30 5584 C 505.977 0.859983 -1.38232 0
M  V30 5585 O 507.166 0.730349 -1.62875 0
M  V30 5586 C 504.266 1.29639 -3.13124 0
M  V30 5587 C 503.439 0.725049 -4.31349 0
M  V30 5588 C 502.498 1.71274 -4.97546 0
M  V30 5589 O 501.524 1.25067 -5.5529 0
M  V30 5590 N 502.726 3.04672 -4.94121 0
M  V30 5591 H 505.491 -0.505468 -2.95407 0
M  V30 5592 H 503.052 -0.415381 -1.56481 0
M  V30 5593 H 505.044 1.95631 -3.54275 0
M  V30 5594 H 503.614 1.90059 -2.48186 0
M  V30 5595 H 502.834 -0.112205 -3.9404 0
M  V30 5596 H 504.122 0.323034 -5.07774 0
M  V30 5597 H 503.52 3.4484 -4.48444 0
M  V30 5598 H 502.077 3.66166 -5.39227 0
M  V30 5599 N 505.51 1.54411 -0.315457 0
M  V30 5600 C 506.473 2.22713 0.54142 0
M  V30 5601 C 507.473 1.2179 1.04995 0
M  V30 5602 O 508.663 1.46426 0.943667 0
M  V30 5603 C 505.795 2.92485 1.75116 0
M  V30 5604 H 506.988 2.99849 -0.0555508 0
M  V30 5605 H 504.541 1.56159 -0.0664453 0
M  V30 5606 H 505.276 2.19466 2.38758 0
M  V30 5607 H 505.061 3.66483 1.39401 0
M  V30 5608 H 506.551 3.44548 2.35959 0
M  V30 5609 N 506.988 0.0434614 1.5754 0
M  V30 5610 C 508.235 -0.632035 1.92384 0
M  V30 5611 C 508.563 -1.71304 0.921157 0
M  V30 5612 O 507.818 -1.95583 -0.067744 0
M  V30 5613 C 508.117 -1.2738 3.3393 0
M  V30 5614 C 507.783 -0.321757 4.49751 0
M  V30 5615 C 506.445 -0.0597611 4.81163 0
M  V30 5616 C 508.797 0.331158 5.20147 0
M  V30 5617 C 506.125 0.862715 5.80322 0
M  V30 5618 C 508.477 1.24178 6.20292 0
M  V30 5619 C 507.141 1.51252 6.50138 0
M  V30 5620 H 506.411 -0.231278 0.703983 0
M  V30 5621 H 509.058 0.108294 1.91194 0
M  V30 5622 H 507.363 -2.08921 3.3145 0
M  V30 5623 H 509.06 -1.80326 3.58167 0
M  V30 5624 H 505.65 -0.53614 4.25233 0
M  V30 5625 H 509.834 0.141826 4.96097 0
M  V30 5626 H 505.09 1.08003 6.01785 0
M  V30 5627 H 509.264 1.75381 6.73954 0
M  V30 5628 H 506.891 2.22897 7.26788 0
M  V30 5629 N 508.466 -1.55915 -0.229846 0
M  V30 5630 C 509.414 -1.9258 -1.30444 0
M  V30 5631 C 510.408 -0.806839 -1.48951 0
M  V30 5632 O 511.614 -0.991606 -1.50224 0
M  V30 5633 H 507.989 -0.611878 -0.437161 0
M  V30 5634 H 509.96 -2.82264 -0.96797 0
M  V30 5635 C 508.709 -2.25171 -2.6494 0
M  V30 5636 H 508.032 -3.10782 -2.51504 0
M  V30 5637 H 509.472 -2.54716 -3.38963 0
M  V30 5638 C 507.931 -1.07394 -3.19324 0
M  V30 5639 O 508.461 -0.330759 -4.00336 0
M  V30 5640 N 506.667 -0.859984 -2.77584 0
M  V30 5641 H 506.214 -1.46605 -2.11813 0
M  V30 5642 H 506.172 -0.0736671 -3.14314 0
M  V30 5643 N 509.944 0.496216 -1.49584 0
M  V30 5644 C 511.172 1.27394 -1.63029 0
M  V30 5645 C 511.587 1.86344 -0.303569 0
M  V30 5646 O 510.944 1.68057 0.711547 0
M  V30 5647 C 510.995 2.40077 -2.70269 0
M  V30 5648 O 510.716 1.83549 -3.97796 0
M  V30 5649 C 512.217 3.31372 -2.94462 0
M  V30 5650 H 509.437 0.386211 -0.54871 0
M  V30 5651 H 511.981 0.595163 -1.95648 0
M  V30 5652 H 510.136 3.03775 -2.40415 0
M  V30 5653 H 510.55 2.57561 -4.56905 0
M  V30 5654 H 512.024 4.06707 -3.73221 0
M  V30 5655 H 512.501 3.88654 -2.0456 0
M  V30 5656 H 513.107 2.73435 -3.25751 0
M  V30 5657 N 511.423 1.38739 0.74761 0
M  V30 5658 C 512.653 1.3832 1.53464 0
M  V30 5659 C 513.061 -0.0273464 1.8918 0
M  V30 5660 O 512.404 -1.00588 1.53713 0
M  V30 5661 C 512.466 2.18007 2.85855 0
M  V30 5662 C 512.13 3.66762 2.72644 0
M  V30 5663 C 513.127 4.60124 2.42037 0
M  V30 5664 C 510.812 4.10193 2.89909 0
M  V30 5665 C 512.806 5.94897 2.28859 0
M  V30 5666 C 510.493 5.45045 2.7635 0
M  V30 5667 C 511.491 6.37211 2.45869 0
M  V30 5668 O 511.179 7.69581 2.3238 0
M  V30 5669 H 510.911 0.474718 0.481268 0
M  V30 5670 H 513.465 1.83012 0.932518 0
M  V30 5671 H 511.695 1.68043 3.48279 0
M  V30 5672 H 513.384 2.09921 3.47402 0
M  V30 5673 H 514.15 4.27874 2.28361 0
M  V30 5674 H 510.029 3.38797 3.1263 0
M  V30 5675 H 513.573 6.66802 2.04989 0
M  V30 5676 H 509.47 5.76889 2.89601 0
M  V30 5677 H 510.238 7.80169 2.47546 0
M  V30 5678 N 512.901 -0.976442 1.23707 0
M  V30 5679 C 514.317 -1.24341 1.00058 0
M  V30 5680 C 514.517 -1.99315 -0.295932 0
M  V30 5681 O 513.573 -2.3123 -1.01435 0
M  V30 5682 C 514.886 -2.03909 2.21001 0
M  V30 5683 C 516.434 -2.17034 2.25534 0
M  V30 5684 C 516.909 -2.99994 3.46075 0
M  V30 5685 N 518.4 -3.07578 3.46338 0
M  V30 5686 C 519.135 -3.72104 4.36264 0
M  V30 5687 N 518.631 -4.3842 5.36432 0
M  V30 5688 N 520.424 -3.69029 4.23998 0
M  V30 5689 H 512.575 -0.47428 2.07037 0
M  V30 5690 H 514.838 -0.272167 0.908091 0
M  V30 5691 H 514.544 -1.56198 3.15111 0
M  V30 5692 H 514.418 -3.04654 2.22409 0
M  V30 5693 H 516.805 -2.63951 1.31961 0
M  V30 5694 H 516.886 -1.15664 2.28156 0
M  V30 5695 H 516.53 -2.53772 4.39957 0
M  V30 5696 H 516.46 -4.01541 3.40694 0
M  V30 5697 H 518.951 -2.60397 2.73865 0
M  V30 5698 H 519.264 -4.85447 6.013 0
M  V30 5699 H 517.609 -4.37116 5.40328 0
M  V30 5700 H 520.8 -3.16392 3.44984 0
M  V30 5701 H 520.973 -4.19034 4.94282 0
M  V30 5702 N 514.379 -1.04941 -1.1758 0
M  V30 5703 C 515.607 -0.778294 -1.91703 0
M  V30 5704 C 516.022 0.665697 -1.76675 0
M  V30 5705 O 515.379 1.45456 -1.10222 0
M  V30 5706 C 515.43 -1.14628 -3.42845 0
M  V30 5707 O 515.151 -2.53359 -3.57409 0
M  V30 5708 C 516.652 -0.900931 -4.34049 0
M  V30 5709 H 513.872 -0.283167 -0.608323 0
M  V30 5710 H 516.416 -1.39942 -1.49119 0
M  V30 5711 H 514.571 -0.569953 -3.83184 0
M  V30 5712 H 514.985 -2.67709 -4.51035 0
M  V30 5713 H 516.459 -1.20817 -5.38616 0
M  V30 5714 H 516.936 0.163966 -4.38894 0
M  V30 5715 H 517.542 -1.46097 -3.99419 0
M  V30 5716 N 515.857 1.33968 -0.830081 0
M  V30 5717 C 517.103 1.98357 -0.422191 0
M  V30 5718 C 517.436 1.65633 1.01387 0
M  V30 5719 O 516.711 0.931648 1.70735 0
M  V30 5720 C 516.994 3.54492 -0.633043 0
M  V30 5721 C 516.847 3.96934 -2.11574 0
M  V30 5722 C 518.166 4.40039 -0.0735584 0
M  V30 5723 H 515.285 0.720544 -0.154871 0
M  V30 5724 H 517.927 1.58749 -1.04397 0
M  V30 5725 H 516.077 3.88361 -0.103775 0
M  V30 5726 H 517.749 3.73363 -2.7092 0
M  V30 5727 H 515.992 3.46984 -2.60354 0
M  V30 5728 H 516.663 5.05651 -2.21406 0
M  V30 5729 H 519.139 4.12764 -0.52585 0
M  V30 5730 H 518.015 5.48327 -0.250841 0
M  V30 5731 H 518.276 4.30124 1.02202 0
M  V30 5732 N 517.335 0.585699 1.46312 0
M  V30 5733 C 518.245 -0.148236 2.34131 0
M  V30 5734 C 519.261 -0.882972 1.49932 0
M  V30 5735 O 520.437 -0.845484 1.82794 0
M  V30 5736 C 517.502 -1.14714 3.27172 0
M  V30 5737 C 516.563 -0.416746 4.27272 0
M  V30 5738 C 515.796 -1.36806 5.15868 0
M  V30 5739 O 516.019 -2.60475 5.07454 0
M  V30 5740 O 514.953 -0.877018 5.95476 0
M  V30 5741 H 518.779 0.572882 2.98248 0
M  V30 5742 H 516.364 0.346082 1.45336 0
M  V30 5743 H 518.246 -1.72303 3.84564 0
M  V30 5744 H 516.921 -1.84967 2.65648 0
M  V30 5745 H 515.828 0.201061 3.73559 0
M  V30 5746 H 517.161 0.244872 4.9159 0
M  V30 5747 N 518.813 -1.54241 0.323641 0
M  V30 5748 C 519.76 -2.24339 -0.542277 0
M  V30 5749 C 520.73 -1.23421 -1.11159 0
M  V30 5750 O 521.915 -1.52104 -1.15192 0
M  V30 5751 C 519.055 -3.00479 -1.69725 0
M  V30 5752 C 518.168 -4.16214 -1.15716 0
M  V30 5753 C 517.303 -4.79884 -2.27783 0
M  V30 5754 C 516.342 -5.87722 -1.71023 0
M  V30 5755 N 515.479 -6.45254 -2.76752 0
M  V30 5756 H 520.319 -2.97935 0.0620613 0
M  V30 5757 H 517.856 -1.47039 0.0423993 0
M  V30 5758 H 519.814 -3.42869 -2.3769 0
M  V30 5759 H 518.444 -2.29217 -2.27288 0
M  V30 5760 H 517.496 -3.78605 -0.369063 0
M  V30 5761 H 518.808 -4.93838 -0.701832 0
M  V30 5762 H 517.962 -5.25243 -3.03651 0
M  V30 5763 H 516.701 -4.01641 -2.76652 0
M  V30 5764 H 515.706 -5.41765 -0.936518 0
M  V30 5765 H 516.931 -6.67863 -1.2303 0
M  V30 5766 H 514.877 -5.69884 -3.24912 0
M  V30 5767 H 514.794 -7.18292 -2.35782 0
M  V30 5768 H 516.062 -6.95269 -3.5245 0
M  V30 5769 N 520.291 -0.0518155 -1.57515 0
M  V30 5770 C 521.702 0.483787 -1.80323 0
M  V30 5771 C 522.053 1.70879 -0.964099 0
M  V30 5772 O 521.178 2.15643 -0.180872 0
M  V30 5773 C 521.773 0.884459 -3.27052 0
M  V30 5774 C 520.332 1.36504 -3.50776 0
M  V30 5775 C 519.479 0.340539 -2.75201 0
M  V30 5776 H 522.43 -0.277691 -1.56252 0
M  V30 5777 H 522.451 1.74733 -3.38007 0
M  V30 5778 H 521.963 -0.00731093 -3.88099 0
M  V30 5779 H 520.064 2.27598 -2.95009 0
M  V30 5780 H 520.177 1.35675 -4.59488 0
M  V30 5781 H 518.541 0.81356 -2.41357 0
M  V30 5782 H 519.324 -0.543156 -3.38976 0
M  V30 5783 N 521.769 1.56035 0.221574 0
M  V30 5784 C 523.18 1.69229 0.788567 0
M  V30 5785 C 523.531 0.653814 1.84986 0
M  V30 5786 O 522.656 -0.195065 2.15519 0
M  V30 5787 C 523.251 3.06809 1.43713 0
M  V30 5788 C 521.81 3.21858 1.95152 0
M  V30 5789 C 520.957 2.65155 0.811685 0
M  V30 5790 H 523.908 1.587 -0.00307894 0
M  V30 5791 H 523.929 3.02666 2.30594 0
M  V30 5792 H 523.441 3.82369 0.664475 0
M  V30 5793 H 521.542 2.51167 2.7522 0
M  V30 5794 H 521.655 4.29073 2.1315 0
M  V30 5795 H 520.019 2.23635 1.21899 0
M  V30 5796 H 520.802 3.43261 0.0516987 0
M  V30 5797 N 523.247 -0.488276 1.49845 0
M  V30 5798 C 524.194 -1.58836 1.67451 0
M  V30 5799 C 525.164 -1.57886 0.515857 0
M  V30 5800 O 526.349 -1.75679 0.744403 0
M  V30 5801 C 523.489 -2.96915 1.75885 0
M  V30 5802 C 522.602 -3.07784 3.03138 0
M  V30 5803 C 521.737 -4.36673 3.02473 0
M  V30 5804 C 520.776 -4.41222 4.24252 0
M  V30 5805 N 519.913 -5.61557 4.21424 0
M  V30 5806 H 524.753 -1.43131 2.61376 0
M  V30 5807 H 522.29 -0.696186 1.29583 0
M  V30 5808 H 524.248 -3.76965 1.78755 0
M  V30 5809 H 522.878 -3.11295 0.85414 0
M  V30 5810 H 521.93 -2.20717 3.09819 0
M  V30 5811 H 523.242 -3.07005 3.93128 0
M  V30 5812 H 522.396 -5.25055 3.03977 0
M  V30 5813 H 521.135 -4.40037 2.10283 0
M  V30 5814 H 520.14 -3.5124 4.22978 0
M  V30 5815 H 521.365 -4.39564 5.17649 0
M  V30 5816 H 519.311 -5.65738 3.32078 0
M  V30 5817 H 519.228 -5.62447 5.05163 0
M  V30 5818 H 520.496 -6.52111 4.2705 0
M  V30 5819 N 524.725 -1.39134 -0.740242 0
M  V30 5820 C 525.972 -1.36071 -1.49969 0
M  V30 5821 C 526.3 0.0450245 -1.94448 0
M  V30 5822 O 525.555 1.02482 -1.66721 0
M  V30 5823 C 525.854 -2.27457 -2.75678 0
M  V30 5824 C 525.52 -3.75185 -2.50094 0
M  V30 5825 C 524.182 -4.15439 -2.42825 0
M  V30 5826 C 526.534 -4.68643 -2.28086 0
M  V30 5827 C 523.862 -5.4722 -2.11584 0
M  V30 5828 C 526.214 -6.00695 -1.98363 0
M  V30 5829 C 524.878 -6.40018 -1.8956 0
M  V30 5830 H 524.148 -0.497921 -0.548777 0
M  V30 5831 H 526.795 -1.71599 -0.85007 0
M  V30 5832 H 525.1 -1.8503 -3.45356 0
M  V30 5833 H 526.797 -2.22384 -3.33686 0
M  V30 5834 H 523.387 -3.43279 -2.56627 0
M  V30 5835 H 527.571 -4.3838 -2.32672 0
M  V30 5836 H 522.827 -5.76615 -2.03287 0
M  V30 5837 H 527.001 -6.72644 -1.80341 0
M  V30 5838 H 524.628 -7.42051 -1.65117 0
M  V30 5839 N 526.204 0.969867 -1.24223 0
M  V30 5840 C 527.432 1.74756 -1.10761 0
M  V30 5841 C 527.847 1.85713 0.340041 0
M  V30 5842 O 527.204 1.34389 1.23474 0
M  V30 5843 C 527.255 3.16915 -1.73917 0
M  V30 5844 O 526.976 3.06511 -3.13021 0
M  V30 5845 C 528.477 4.11032 -1.66036 0
M  V30 5846 H 525.697 0.548092 -0.387087 0
M  V30 5847 H 528.241 1.2178 -1.64286 0
M  V30 5848 H 526.396 3.66884 -1.244 0
M  V30 5849 H 526.81 3.96079 -3.43834 0
M  V30 5850 H 528.284 5.08446 -2.14911 0
M  V30 5851 H 528.761 4.34785 -0.621159 0
M  V30 5852 H 529.367 3.66972 -2.14969 0
M  V30 5853 N 527.682 1.05563 1.17022 0
M  V30 5854 C 528.592 0.670758 2.24807 0
M  V30 5855 C 529.608 -0.309865 1.71219 0
M  V30 5856 O 530.784 -0.161025 2.00755 0
M  V30 5857 C 527.849 0.055337 3.46656 0
M  V30 5858 C 526.91 1.08688 4.15314 0
M  V30 5859 C 526.143 0.500736 5.31346 0
M  V30 5860 O 526.366 -0.688718 5.66227 0
M  V30 5861 O 525.3 1.23683 5.89055 0
M  V30 5862 H 529.126 1.56914 2.60023 0
M  V30 5863 H 526.711 0.827428 1.24395 0
M  V30 5864 H 528.593 -0.286492 4.20425 0
M  V30 5865 H 527.268 -0.816638 3.13229 0
M  V30 5866 H 526.175 1.48077 3.43546 0
M  V30 5867 H 527.508 1.93014 4.52777 0
M  V30 5868 N 529.16 -1.33526 0.837174 0
M  V30 5869 C 530.107 -2.29248 0.267169 0
M  V30 5870 C 531.077 -1.54252 -0.616071 0
M  V30 5871 O 532.262 -1.82559 -0.554699 0
M  V30 5872 C 529.402 -3.40638 -0.553152 0
M  V30 5873 C 528.515 -4.30548 0.353921 0
M  V30 5874 C 527.65 -5.29051 -0.477339 0
M  V30 5875 C 526.689 -6.106 0.42823 0
M  V30 5876 N 525.826 -7.01152 -0.364801 0
M  V30 5877 H 530.666 -2.77398 1.08877 0
M  V30 5878 H 528.203 -1.36496 0.54838 0
M  V30 5879 H 530.161 -4.03921 -1.04422 0
M  V30 5880 H 528.791 -2.93685 -1.33973 0
M  V30 5881 H 527.843 -3.68001 0.963289 0
M  V30 5882 H 529.155 -4.87631 1.04964 0
M  V30 5883 H 528.309 -5.97853 -1.0323 0
M  V30 5884 H 527.048 -4.72541 -1.2065 0
M  V30 5885 H 526.053 -5.40718 0.995219 0
M  V30 5886 H 527.278 -6.69193 1.15573 0
M  V30 5887 H 525.224 -6.47092 -1.07738 0
M  V30 5888 H 525.141 -7.5551 0.272238 0
M  V30 5889 H 526.409 -7.74263 -0.902054 0
M  V30 5890 N 530.638 -0.59345 -1.46 0
M  V30 5891 C 531.886 -0.082988 -2.0193 0
M  V30 5892 C 532.207 1.28569 -1.46612 0
M  V30 5893 O 531.477 1.84629 -0.654909 0
M  V30 5894 H 530.057 -0.0276882 -0.746487 0
M  V30 5895 H 532.719 -0.771657 -1.78973 0
M  V30 5896 H 531.815 -0.022079 -3.12092 0
M  V30 5897 N 532.116 1.54067 -0.331816 0
M  V30 5898 C 533.064 2.26105 0.54582 0
M  V30 5899 C 534.058 1.27816 1.11173 0
M  V30 5900 O 535.264 1.45565 1.05882 0
M  V30 5901 H 531.639 0.726363 0.194683 0
M  V30 5902 H 533.61 2.98282 -0.083931 0
M  V30 5903 C 532.359 3.03814 1.69092 0
M  V30 5904 H 531.682 3.79269 1.26473 0
M  V30 5905 H 533.122 3.57453 2.28043 0
M  V30 5906 C 531.581 2.12606 2.61343 0
M  V30 5907 O 532.111 1.71437 3.6328 0
M  V30 5908 N 530.317 1.77925 2.29763 0
M  V30 5909 H 529.864 2.11602 1.46909 0
M  V30 5910 H 529.822 1.1718 2.91747 0
M  V30 5911 N 533.594 0.0601682 1.57485 0
M  V30 5912 C 534.524 -0.90889 2.15085 0
M  V30 5913 C 535.505 -1.31838 1.07484 0
M  V30 5914 O 536.69 -1.3915 1.35466 0
M  V30 5915 C 533.82 -2.18059 2.7031 0
M  V30 5916 C 532.774 -1.91088 3.82974 0
M  V30 5917 C 532.1 -3.24789 4.24754 0
M  V30 5918 C 533.4 -1.22535 5.07723 0
M  V30 5919 H 535.094 -0.429093 2.96309 0
M  V30 5920 H 532.64 -0.204952 1.42534 0
M  V30 5921 H 534.593 -2.86258 3.09248 0
M  V30 5922 H 533.317 -2.6826 1.8629 0
M  V30 5923 H 531.976 -1.25297 3.44523 0
M  V30 5924 H 531.624 -3.72809 3.37672 0
M  V30 5925 H 531.324 -3.07538 5.00694 0
M  V30 5926 H 532.848 -3.94205 4.66299 0
M  V30 5927 H 534.262 -1.80783 5.4405 0
M  V30 5928 H 532.659 -1.1558 5.88864 0
M  V30 5929 H 533.729 -0.202692 4.84476 0
M  V30 5930 N 535.072 -1.5615 -0.213296 0
M  V30 5931 C 535.982 -1.96265 -1.28519 0
M  V30 5932 C 536.998 -0.86765 -1.50824 0
M  V30 5933 O 538.174 -1.17191 -1.63793 0
M  V30 5934 C 535.239 -2.27836 -2.61327 0
M  V30 5935 C 534.3 -3.50949 -2.47252 0
M  V30 5936 C 533.533 -3.81004 -3.73727 0
M  V30 5937 O 533.756 -3.12612 -4.77106 0
M  V30 5938 O 532.69 -4.74477 -3.70344 0
M  V30 5939 H 536.516 -2.87631 -0.974795 0
M  V30 5940 H 534.101 -1.43467 -0.416832 0
M  V30 5941 H 535.983 -2.49299 -3.39747 0
M  V30 5942 H 534.658 -1.39643 -2.9203 0
M  V30 5943 H 533.565 -3.34754 -1.67004 0
M  V30 5944 H 534.898 -4.39551 -2.21486 0
M  V30 5945 N 536.55 0.480323 -1.50102 0
M  V30 5946 C 537.796 1.23489 -1.60867 0
M  V30 5947 C 538.129 1.91809 -0.303827 0
M  V30 5948 O 537.404 1.81694 0.694092 0
M  V30 5949 C 537.687 2.28578 -2.78252 0
M  V30 5950 C 537.54 1.64624 -4.18592 0
M  V30 5951 C 538.859 3.2997 -2.91218 0
M  V30 5952 H 535.978 0.447605 -0.585507 0
M  V30 5953 H 538.62 0.530005 -1.82458 0
M  V30 5954 H 536.77 2.88697 -2.59974 0
M  V30 5955 H 538.442 1.08173 -4.48438 0
M  V30 5956 H 536.685 0.949645 -4.23278 0
M  V30 5957 H 537.356 2.40946 -4.96638 0
M  V30 5958 H 539.832 2.79864 -3.07921 0
M  V30 5959 H 538.708 4.00839 -3.74993 0
M  V30 5960 H 538.969 3.93541 -2.0144 0
M  V30 5961 N 538.028 1.39524 0.732853 0
M  V30 5962 C 538.958 1.41153 1.86005 0
M  V30 5963 C 539.939 0.274614 1.67869 0
M  V30 5964 O 541.124 0.480745 1.88155 0
M  V30 5965 C 538.254 1.25638 3.23778 0
M  V30 5966 C 537.208 2.36752 3.56556 0
M  V30 5967 C 536.534 2.06326 4.93289 0
M  V30 5968 C 537.834 3.79069 3.5931 0
M  V30 5969 H 539.528 2.35484 1.84899 0
M  V30 5970 H 537.074 1.13348 0.888162 0
M  V30 5971 H 539.027 1.25398 4.0231 0
M  V30 5972 H 537.751 0.277772 3.25417 0
M  V30 5973 H 536.41 2.36213 2.80355 0
M  V30 5974 H 536.058 1.06897 4.9151 0
M  V30 5975 H 535.758 2.80757 5.16187 0
M  V30 5976 H 537.282 2.07739 5.74175 0
M  V30 5977 H 538.696 3.81526 4.27914 0
M  V30 5978 H 537.093 4.52878 3.93728 0
M  V30 5979 H 538.163 4.09893 2.59068 0
M  V30 5980 N 539.506 -0.963266 1.24736 0
M  V30 5981 C 540.436 -2.07628 1.06832 0
M  V30 5982 C 541.417 -1.70088 -0.0200566 0
M  V30 5983 O 542.602 -1.93636 0.147854 0
M  V30 5984 C 539.732 -3.40636 0.677069 0
M  V30 5985 C 538.686 -3.9215 1.71471 0
M  V30 5986 C 538.012 -5.21553 1.1784 0
M  V30 5987 C 539.312 -4.19493 3.11164 0
M  V30 5988 H 541.006 -2.22864 1.9993 0
M  V30 5989 H 538.552 -1.07093 0.96266 0
M  V30 5990 H 540.505 -4.17941 0.538792 0
M  V30 5991 H 539.229 -3.25313 -0.289612 0
M  V30 5992 H 537.888 -3.17005 1.84128 0
M  V30 5993 H 537.536 -5.02593 0.202195 0
M  V30 5994 H 537.236 -5.56988 1.87185 0
M  V30 5995 H 538.76 -6.01463 1.05233 0
M  V30 5996 H 540.174 -4.87487 3.01711 0
M  V30 5997 H 538.571 -4.66165 3.77902 0
M  V30 5998 H 539.641 -3.26097 3.58871 0
M  V30 5999 N 540.985 -1.06182 -1.16461 0
M  V30 6000 C 542.232 -0.777863 -1.86964 0
M  V30 6001 C 542.56 0.695602 -1.81636 0
M  V30 6002 O 541.815 1.52532 -1.22607 0
M  V30 6003 C 542.114 -1.21633 -3.36066 0
M  V30 6004 C 541.78 -2.69371 -3.61594 0
M  V30 6005 C 540.442 -3.09727 -3.6827 0
M  V30 6006 C 542.794 -3.64791 -3.7226 0
M  V30 6007 C 540.122 -4.44345 -3.83112 0
M  V30 6008 C 542.474 -4.99155 -3.88623 0
M  V30 6009 C 541.138 -5.39149 -3.93541 0
M  V30 6010 H 540.408 -0.28464 -0.68415 0
M  V30 6011 H 543.055 -1.33071 -1.37711 0
M  V30 6012 H 541.36 -0.582651 -3.87443 0
M  V30 6013 H 543.057 -0.973682 -3.88999 0
M  V30 6014 H 539.647 -2.37124 -3.57029 0
M  V30 6015 H 543.831 -3.34746 -3.66413 0
M  V30 6016 H 539.087 -4.74819 -3.85172 0
M  V30 6017 H 543.261 -5.72976 -3.95817 0
M  V30 6018 H 540.888 -6.43464 -4.04794 0
M  V30 6019 N 542.463 1.3308 -0.844243 0
M  V30 6020 C 543.691 2.01808 -0.456203 0
M  V30 6021 C 544.106 1.63498 0.944131 0
M  V30 6022 O 543.463 0.85102 1.61443 0
M  V30 6023 C 543.514 3.56922 -0.573513 0
M  V30 6024 O 543.235 3.93851 -1.91868 0
M  V30 6025 C 544.736 4.42922 -0.183125 0
M  V30 6026 H 541.956 0.646273 -0.180477 0
M  V30 6027 H 544.5 1.69891 -1.1383 0
M  V30 6028 H 542.655 3.87352 0.0607367 0
M  V30 6029 H 543.069 4.88564 -1.90802 0
M  V30 6030 H 544.543 5.51093 -0.316241 0
M  V30 6031 H 545.02 4.30386 0.875477 0
M  V30 6032 H 545.626 4.1786 -0.792027 0
M  V30 6033 N 543.941 0.601185 1.45683 0
M  V30 6034 C 545.19 0.0914953 2.01492 0
M  V30 6035 C 545.503 -1.28331 1.47616 0
M  V30 6036 O 546.709 -1.88537 1.95362 0
M  V30 6037 C 545.165 0.11291 3.59723 0
M  V30 6038 C 544.773 1.48717 4.22596 0
M  V30 6039 C 546.517 -0.341871 4.23121 0
M  V30 6040 C 544.424 1.46531 5.7296 0
M  V30 6041 H 543.354 0.0304365 0.753385 0
M  V30 6042 H 546.005 0.755568 1.67223 0
M  V30 6043 H 544.387 -0.617692 3.91153 0
M  V30 6044 H 545.561 2.23897 4.02749 0
M  V30 6045 H 543.876 1.88351 3.71366 0
M  V30 6046 H 546.473 -0.377304 5.33367 0
M  V30 6047 H 546.816 -1.36325 3.93346 0
M  V30 6048 H 547.349 0.335256 3.96385 0
M  V30 6049 H 544.088 2.46408 6.07423 0
M  V30 6050 H 543.608 0.755997 5.95017 0
M  V30 6051 H 545.287 1.18618 6.36034 0
M  V30 6052 N 545.419 -1.53889 0.339982 0
M  V30 6053 C 546.351 -2.22435 -0.55275 0
M  V30 6054 C 547.364 -1.22975 -1.06681 0
M  V30 6055 O 548.553 -1.49351 -0.977575 0
M  V30 6056 C 545.653 -2.8882 -1.77302 0
M  V30 6057 C 544.826 -4.14563 -1.39486 0
M  V30 6058 C 543.885 -4.64391 -2.47442 0
M  V30 6059 O 542.911 -5.28687 -2.10899 0
M  V30 6060 N 544.113 -4.40015 -3.78639 0
M  V30 6061 H 546.878 -2.9968 0.0342669 0
M  V30 6062 H 544.439 -1.61068 0.16394 0
M  V30 6063 H 546.431 -3.19072 -2.48948 0
M  V30 6064 H 545.001 -2.15182 -2.26749 0
M  V30 6065 H 544.221 -3.90896 -0.509321 0
M  V30 6066 H 545.509 -4.96362 -1.11813 0
M  V30 6067 H 544.907 -3.88586 -4.11118 0
M  V30 6068 H 543.464 -4.74881 -4.46465 0
M  V30 6069 N 546.897 -0.0685191 -1.57451 0
M  V30 6070 C 548.122 0.613919 -1.98106 0
M  V30 6071 C 548.547 1.62551 -0.946501 0
M  V30 6072 O 547.905 1.81085 0.0882824 0
M  V30 6073 C 547.953 1.26189 -3.378 0
M  V30 6074 O 547.057 2.37773 -3.36954 0
M  V30 6075 H 546.398 0.158163 -0.644888 0
M  V30 6076 H 548.928 -0.142063 -2.04106 0
M  V30 6077 H 548.938 1.60951 -3.74912 0
M  V30 6078 H 547.613 0.520625 -4.12629 0
M  V30 6079 H 546.19 2.04829 -3.11608 0
M  V30 6080 N 548.375 1.56261 0.205012 0
M  V30 6081 C 549.322 1.93754 1.25411 0
M  V30 6082 C 550.292 0.796826 1.45739 0
M  V30 6083 O 551.477 1.05414 1.59036 0
M  V30 6084 C 548.617 2.27383 2.59598 0
M  V30 6085 C 547.73 3.5447 2.46931 0
M  V30 6086 C 546.865 3.77468 3.73753 0
M  V30 6087 C 545.904 4.98014 3.55877 0
M  V30 6088 N 545.041 5.17316 4.74688 0
M  V30 6089 H 549.881 2.83203 0.92737 0
M  V30 6090 H 547.418 1.40158 0.446574 0
M  V30 6091 H 549.376 2.44895 3.37761 0
M  V30 6092 H 548.006 1.41088 2.90335 0
M  V30 6093 H 547.058 3.45061 1.60116 0
M  V30 6094 H 548.37 4.42789 2.29651 0
M  V30 6095 H 547.524 3.95165 4.60358 0
M  V30 6096 H 546.263 2.87461 3.93976 0
M  V30 6097 H 545.268 4.80249 2.67657 0
M  V30 6098 H 546.493 5.8952 3.37109 0
M  V30 6099 H 544.439 4.30255 4.95194 0
M  V30 6100 H 544.356 5.99796 4.60197 0
M  V30 6101 H 545.624 5.39463 5.62672 0
M  V30 6102 N 549.853 -0.472356 1.50355 0
M  V30 6103 C 550.786 -1.58923 1.63764 0
M  V30 6104 C 551.764 -1.55173 0.485793 0
M  V30 6105 O 552.948 -1.74815 0.705132 0
M  V30 6106 C 550.075 -2.97497 1.61905 0
M  V30 6107 C 549.121 -3.19405 2.82635 0
M  V30 6108 S 549.954 -2.99441 4.43954 0
M  V30 6109 C 551.11 -4.40359 4.44786 0
M  V30 6110 H 551.343 -1.47309 2.58239 0
M  V30 6111 H 548.876 -0.659601 1.39602 0
M  V30 6112 H 550.834 -3.77389 1.61518 0
M  V30 6113 H 549.495 -3.06502 0.686683 0
M  V30 6114 H 548.688 -4.20636 2.77636 0
M  V30 6115 H 548.29 -2.47283 2.80583 0
M  V30 6116 H 550.582 -5.32969 4.1827 0
M  V30 6117 H 551.525 -4.50403 5.46391 0
M  V30 6118 H 551.933 -4.22378 3.74509 0
M  V30 6119 N 551.331 -1.39911 -0.725443 0
M  V30 6120 C 552.747 -1.21725 -1.03224 0
M  V30 6121 C 552.947 -0.0855224 -2.01318 0
M  V30 6122 O 552.003 0.55976 -2.46217 0
M  V30 6123 C 553.316 -2.55511 -1.58539 0
M  V30 6124 C 554.864 -2.62439 -1.70572 0
M  V30 6125 C 555.339 -3.9647 -2.29294 0
M  V30 6126 N 556.83 -3.98159 -2.36692 0
M  V30 6127 C 557.565 -4.98647 -2.83088 0
M  V30 6128 N 557.061 -6.0953 -3.2931 0
M  V30 6129 N 558.854 -4.8602 -2.82384 0
M  V30 6130 H 551.005 -2.12267 -0.075048 0
M  V30 6131 H 553.268 -0.943136 -0.0959066 0
M  V30 6132 H 552.974 -3.38926 -0.939249 0
M  V30 6133 H 552.848 -2.75905 -2.57208 0
M  V30 6134 H 555.235 -1.79401 -2.34306 0
M  V30 6135 H 555.316 -2.45885 -0.705297 0
M  V30 6136 H 554.96 -4.79942 -1.66186 0
M  V30 6137 H 554.89 -4.10349 -3.30032 0
M  V30 6138 H 557.381 -3.18085 -2.04035 0
M  V30 6139 H 557.694 -6.82106 -3.6325 0
M  V30 6140 H 556.039 -6.1311 -3.27294 0
M  V30 6141 H 559.23 -3.98493 -2.45603 0
M  V30 6142 H 559.403 -5.64478 -3.18226 0
M  V30 6143 N 552.809 0.956637 -1.25245 0
M  V30 6144 C 553.772 2.03457 -1.05537 0
M  V30 6145 C 554.772 1.60798 -0.00886317 0
M  V30 6146 O 555.962 1.72384 -0.250865 0
M  V30 6147 C 553.094 3.35543 -0.601965 0
M  V30 6148 H 554.287 2.22372 -2.01223 0
M  V30 6149 H 551.84 1.13344 -1.07623 0
M  V30 6150 H 552.575 3.22323 0.357584 0
M  V30 6151 H 552.36 3.67854 -1.35743 0
M  V30 6152 H 553.85 4.14769 -0.485454 0
M  V30 6153 N 554.287 1.06798 1.15896 0
M  V30 6154 C 555.235 0.677525 2.22514 0
M  V30 6155 C 556.229 -0.308994 1.66558 0
M  V30 6156 O 557.435 -0.173308 1.79164 0
M  V30 6157 H 553.81 0.200994 0.724642 0
M  V30 6158 H 555.781 1.5865 2.52731 0
M  V30 6159 C 554.53 0.0854153 3.47595 0
M  V30 6160 H 553.853 0.835645 3.90969 0
M  V30 6161 H 555.293 -0.150199 4.23734 0
M  V30 6162 C 553.752 -1.1724 3.15843 0
M  V30 6163 O 554.282 -2.25965 3.32119 0
M  V30 6164 N 552.488 -1.07636 2.69931 0
M  V30 6165 H 552.035 -0.191559 2.56887 0
M  V30 6166 H 551.993 -1.91876 2.4906 0
M  V30 6167 N 555.766 -1.3263 0.851289 0
M  V30 6168 C 556.714 -2.30882 0.282202 0
M  V30 6169 C 557.708 -1.58697 -0.592589 0
M  V30 6170 O 558.914 -1.73461 -0.480768 0
M  V30 6171 H 555.289 -0.748492 0.0725487 0
M  V30 6172 H 557.26 -2.76374 1.12516 0
M  V30 6173 C 556.009 -3.43828 -0.517449 0
M  V30 6174 H 555.332 -3.99532 0.146392 0
M  V30 6175 H 556.772 -4.1474 -0.88128 0
M  V30 6176 C 555.231 -2.90786 -1.70133 0
M  V30 6177 O 555.761 -2.88 -2.80034 0
M  V30 6178 N 553.967 -2.4723 -1.52728 0
M  V30 6179 H 553.514 -2.49695 -0.633257 0
M  V30 6180 H 553.472 -2.12094 -2.32085 0
M  V30 6181 N 557.244 -0.608902 -1.45362 0
M  V30 6182 C 558.176 0.147318 -2.28726 0
M  V30 6183 C 559.189 0.830468 -1.40025 0
M  V30 6184 O 560.378 0.695636 -1.64387 0
M  V30 6185 C 557.478 1.22968 -3.15804 0
M  V30 6186 C 556.651 0.633391 -4.3279 0
M  V30 6187 C 555.71 1.60682 -5.01067 0
M  V30 6188 O 554.736 1.13261 -5.57818 0
M  V30 6189 N 555.938 2.94123 -5.00472 0
M  V30 6190 H 558.703 -0.568014 -2.94268 0
M  V30 6191 H 556.264 -0.448479 -1.55564 0
M  V30 6192 H 558.256 1.88072 -3.58345 0
M  V30 6193 H 556.826 1.84752 -2.52162 0
M  V30 6194 H 556.046 -0.195762 -3.93714 0
M  V30 6195 H 557.334 0.215255 -5.08344 0
M  V30 6196 H 556.732 3.3525 -4.55657 0
M  V30 6197 H 555.289 3.54646 -5.46872 0
M  V30 6198 N 558.722 1.53707 -0.348139 0
M  V30 6199 C 559.669 2.25173 0.506518 0
M  V30 6200 C 560.639 1.25174 1.09182 0
M  V30 6201 O 561.824 1.53917 1.12757 0
M  V30 6202 C 558.964 3.03141 1.64923 0
M  V30 6203 C 558.077 4.18002 1.0908 0
M  V30 6204 C 557.212 4.83447 2.20119 0
M  V30 6205 C 556.251 5.90369 1.61651 0
M  V30 6206 N 555.388 6.49575 2.66451 0
M  V30 6207 H 560.228 2.97799 -0.109452 0
M  V30 6208 H 557.765 1.46953 -0.0657866 0
M  V30 6209 H 559.723 3.46607 2.32205 0
M  V30 6210 H 558.353 2.32803 2.23612 0
M  V30 6211 H 557.405 3.79145 0.308783 0
M  V30 6212 H 558.717 4.94892 0.623178 0
M  V30 6213 H 557.871 5.30008 2.95257 0
M  V30 6214 H 556.61 4.05991 2.70227 0
M  V30 6215 H 555.615 5.43186 0.850209 0
M  V30 6216 H 556.84 6.69735 1.1239 0
M  V30 6217 H 554.786 5.74981 3.15805 0
M  V30 6218 H 554.703 7.21952 2.24325 0
M  V30 6219 H 555.971 7.00789 3.41344 0
M  V30 6220 N 560.2 0.0768682 1.57412 0
M  V30 6221 C 561.446 -0.591961 1.93968 0
M  V30 6222 C 561.779 -1.68954 0.9575 0
M  V30 6223 O 561.054 -1.94496 -0.0124675 0
M  V30 6224 C 561.337 -1.16418 3.40762 0
M  V30 6225 C 561.19 -0.0728933 4.49741 0
M  V30 6226 C 562.509 -2.06814 3.88479 0
M  V30 6227 H 559.628 -0.213716 0.705333 0
M  V30 6228 H 562.27 0.14387 1.89455 0
M  V30 6229 H 560.42 -1.79128 3.4474 0
M  V30 6230 H 562.092 0.560446 4.57883 0
M  V30 6231 H 560.335 0.595859 4.29688 0
M  V30 6232 H 561.006 -0.513755 5.49604 0
M  V30 6233 H 563.482 -1.54033 3.8654 0
M  V30 6234 H 562.358 -2.43785 4.91793 0
M  V30 6235 H 562.619 -2.97844 3.26713 0
M  V30 6236 N 561.678 -1.56367 -0.196722 0
M  V30 6237 C 562.908 -1.84371 -0.932254 0
M  V30 6238 C 563.316 -0.657013 -1.77426 0
M  V30 6239 O 562.659 0.383576 -1.79651 0
M  V30 6240 C 562.721 -3.06454 -1.87952 0
M  V30 6241 C 562.385 -4.40425 -1.21962 0
M  V30 6242 C 563.382 -5.16457 -0.597343 0
M  V30 6243 C 561.067 -4.8716 -1.22396 0
M  V30 6244 C 563.061 -6.37399 0.0117913 0
M  V30 6245 C 560.748 -6.08038 -0.610995 0
M  V30 6246 C 561.746 -6.83 0.00580487 0
M  V30 6247 O 561.434 -8.01589 0.609173 0
M  V30 6248 H 561.166 -0.616377 -0.277589 0
M  V30 6249 H 563.72 -2.04329 -0.209452 0
M  V30 6250 H 561.95 -2.82377 -2.64197 0
M  V30 6251 H 563.639 -3.21118 -2.48271 0
M  V30 6252 H 564.405 -4.81445 -0.586142 0
M  V30 6253 H 560.284 -4.2877 -1.69345 0
M  V30 6254 H 563.828 -6.9585 0.493836 0
M  V30 6255 H 559.725 -6.42519 -0.619693 0
M  V30 6256 H 560.493 -8.16935 0.505919 0
M  V30 6257 N 563.156 0.464375 -1.50603 0
M  V30 6258 C 564.089 1.58052 -1.64605 0
M  V30 6259 C 565.067 1.54914 -0.494016 0
M  V30 6260 O 566.251 1.74438 -0.714393 0
M  V30 6261 C 563.378 2.96634 -1.63481 0
M  V30 6262 C 562.424 3.17901 -2.84325 0
M  V30 6263 S 563.257 2.97083 -4.45536 0
M  V30 6264 C 564.413 4.37994 -4.47115 0
M  V30 6265 H 564.646 1.45937 -2.59017 0
M  V30 6266 H 562.179 0.652189 -1.39949 0
M  V30 6267 H 564.137 3.76527 -1.63517 0
M  V30 6268 H 562.798 3.06134 -0.702928 0
M  V30 6269 H 561.991 4.19158 -2.79862 0
M  V30 6270 H 561.593 2.45792 -2.81891 0
M  V30 6271 H 563.885 5.30743 -4.21091 0
M  V30 6272 H 564.828 4.47499 -5.48772 0
M  V30 6273 H 565.236 4.20386 -3.76743 0
M  V30 6274 N 564.634 1.40294 0.718013 0
M  V30 6275 C 566.045 1.34289 1.29705 0
M  V30 6276 C 566.396 0.0152228 1.96194 0
M  V30 6277 O 565.521 -0.88682 1.97394 0
M  V30 6278 C 566.116 2.43219 2.3586 0
M  V30 6279 C 564.675 2.40682 2.89394 0
M  V30 6280 C 563.822 2.24223 1.63154 0
M  V30 6281 H 566.773 1.50135 0.514312 0
M  V30 6282 H 566.794 2.10986 3.16647 0
M  V30 6283 H 566.306 3.39836 1.87439 0
M  V30 6284 H 564.407 1.47756 3.42051 0
M  V30 6285 H 564.52 3.36177 3.41353 0
M  V30 6286 H 562.884 1.71696 1.88129 0
M  V30 6287 H 563.667 3.22834 1.16761 0
M  V30 6288 N 566.112 -0.949982 1.2575 0
M  V30 6289 C 567.528 -1.22191 1.02672 0
M  V30 6290 C 567.728 -1.99898 -0.253588 0
M  V30 6291 O 566.784 -2.33329 -0.965076 0
M  V30 6292 C 568.097 -1.99175 2.25277 0
M  V30 6293 C 569.645 -2.12201 2.30087 0
M  V30 6294 C 570.12 -2.92586 3.5236 0
M  V30 6295 N 571.611 -3.00163 3.52784 0
M  V30 6296 C 572.346 -3.62766 4.44059 0
M  V30 6297 N 571.842 -4.26943 5.45611 0
M  V30 6298 N 573.635 -3.59953 4.3173 0
M  V30 6299 H 565.786 -0.430258 2.07996 0
M  V30 6300 H 568.049 -0.252844 0.91366 0
M  V30 6301 H 567.755 -1.49479 3.18354 0
M  V30 6302 H 567.629 -2.99868 2.28821 0
M  V30 6303 H 570.016 -2.61093 1.3753 0
M  V30 6304 H 570.097 -1.10799 2.30559 0
M  V30 6305 H 569.741 -2.44383 4.45241 0
M  V30 6306 H 569.671 -3.94224 3.49134 0
M  V30 6307 H 572.162 -2.54529 2.79327 0
M  V30 6308 H 572.475 -4.72583 6.11461 0
M  V30 6309 H 570.82 -4.25557 5.49478 0
M  V30 6310 H 574.011 -3.09003 3.51617 0
M  V30 6311 H 574.184 -4.08455 5.03059 0
M  V30 6312 N 567.59 -1.07411 -1.15328 0
M  V30 6313 C 568.5 -0.706438 -2.23711 0
M  V30 6314 C 569.516 0.282586 -1.7169 0
M  V30 6315 O 570.692 0.129066 -2.00986 0
M  V30 6316 C 567.757 -0.11048 -3.46524 0
M  V30 6317 C 566.818 -1.15282 -4.13532 0
M  V30 6318 C 566.051 -0.585205 -5.30482 0
M  V30 6319 O 566.274 0.598549 -5.67251 0
M  V30 6320 O 565.208 -1.33039 -5.87013 0
M  V30 6321 H 569.034 -1.61031 -2.57493 0
M  V30 6322 H 566.619 -0.847113 -1.23062 0
M  V30 6323 H 568.501 0.21957 -4.20828 0
M  V30 6324 H 567.176 0.766703 -3.14489 0
M  V30 6325 H 566.083 -1.53523 -3.41147 0
M  V30 6326 H 567.416 -2.00192 -4.49649 0
M  V30 6327 N 569.068 1.32177 -0.85831 0
M  V30 6328 C 570.316 1.96735 -0.462568 0
M  V30 6329 C 570.637 1.6824 0.985911 0
M  V30 6330 O 569.907 0.991564 1.68952 0
M  V30 6331 H 568.487 0.727849 -0.168064 0
M  V30 6332 H 571.149 1.61195 -1.09554 0
M  V30 6333 H 570.245 3.06068 -0.610647 0
M  V30 6334 N 570.547 0.616602 1.45037 0
M  V30 6335 C 571.494 -0.0969439 2.30596 0
M  V30 6336 C 572.464 -0.851151 1.42635 0
M  V30 6337 O 573.649 -0.835092 1.71554 0
M  V30 6338 C 570.789 -1.08234 3.27688 0
M  V30 6339 C 569.902 -0.328072 4.30752 0
M  V30 6340 C 569.037 -1.30399 5.14946 0
M  V30 6341 C 568.076 -0.538049 6.09731 0
M  V30 6342 N 567.213 -1.46371 6.86673 0
M  V30 6343 H 572.053 0.63864 2.91076 0
M  V30 6344 H 569.59 0.326733 1.43425 0
M  V30 6345 H 571.548 -1.66688 3.82454 0
M  V30 6346 H 570.178 -1.78523 2.68941 0
M  V30 6347 H 569.23 0.372136 3.78575 0
M  V30 6348 H 570.542 0.269142 4.98073 0
M  V30 6349 H 569.696 -1.96032 5.74157 0
M  V30 6350 H 568.435 -1.93514 4.47665 0
M  V30 6351 H 567.44 0.131852 5.49642 0
M  V30 6352 H 568.665 0.0881732 6.79043 0
M  V30 6353 H 566.611 -2.08233 6.22073 0
M  V30 6354 H 566.528 -0.920152 7.50379 0
M  V30 6355 H 567.796 -2.10932 7.50418 0
M  V30 6356 N 572.025 -1.5352 0.356285 0
M  V30 6357 C 572.955 -2.28372 -0.486661 0
M  V30 6358 C 573.936 -1.30432 -1.09185 0
M  V30 6359 O 575.121 -1.59291 -1.11085 0
M  V30 6360 C 572.251 -3.06604 -1.63129 0
M  V30 6361 C 571.205 -4.12154 -1.15381 0
M  V30 6362 C 570.531 -4.78415 -2.38796 0
M  V30 6363 C 571.831 -5.21724 -0.245179 0
M  V30 6364 H 573.525 -2.99083 0.137797 0
M  V30 6365 H 571.071 -1.43841 0.0677134 0
M  V30 6366 H 573.024 -3.57712 -2.22755 0
M  V30 6367 H 571.748 -2.33568 -2.28284 0
M  V30 6368 H 570.407 -3.61978 -0.580294 0
M  V30 6369 H 570.055 -4.01959 -3.02387 0
M  V30 6370 H 569.755 -5.49734 -2.07524 0
M  V30 6371 H 571.279 -5.32313 -2.99125 0
M  V30 6372 H 572.693 -5.68391 -0.748646 0
M  V30 6373 H 571.09 -6.00095 -0.0237608 0
M  V30 6374 H 572.16 -4.79596 0.715229 0
M  V30 6375 N 573.503 -0.0852151 -1.57369 0
M  V30 6376 C 574.752 0.580443 -1.93168 0
M  V30 6377 C 575.065 1.6995 -0.968319 0
M  V30 6378 O 576.271 2.42564 -1.21963 0
M  V30 6379 C 574.727 1.08386 -3.43192 0
M  V30 6380 C 574.335 -0.00491388 -4.48 0
M  V30 6381 C 576.079 1.72281 -3.87968 0
M  V30 6382 C 573.986 0.513299 -5.89168 0
M  V30 6383 H 572.916 0.22059 -0.72101 0
M  V30 6384 H 575.567 -0.159621 -1.82804 0
M  V30 6385 H 573.949 1.8773 -3.48674 0
M  V30 6386 H 575.123 -0.780032 -4.5415 0
M  V30 6387 H 573.438 -0.548453 -4.12772 0
M  V30 6388 H 576.035 2.12108 -4.9083 0
M  V30 6389 H 576.378 2.58811 -3.26071 0
M  V30 6390 H 576.911 0.995359 -3.85146 0
M  V30 6391 H 573.65 -0.315153 -6.54742 0
M  V30 6392 H 573.17 1.25564 -5.8651 0
M  V30 6393 H 574.849 0.985433 -6.39451 0
M  V30 6394 N 574.981 1.5647 0.188427 0
M  V30 6395 C 576.206 1.85486 0.927891 0
M  V30 6396 C 576.631 0.669575 1.75779 0
M  V30 6397 O 575.989 -0.381573 1.77239 0
M  V30 6398 C 576.037 3.12784 1.7944 0
M  V30 6399 O 575.141 2.93805 2.894 0
M  V30 6400 H 574.482 0.610585 0.260925 0
M  V30 6401 H 577.012 2.037 0.191729 0
M  V30 6402 H 577.022 3.43749 2.19774 0
M  V30 6403 H 575.697 3.98671 1.18468 0
M  V30 6404 H 574.274 2.74153 2.52774 0
M  V30 6405 N 576.459 -0.456382 1.50847 0
M  V30 6406 C 577.736 -1.21739 1.53098 0
M  V30 6407 C 578.116 -2.09179 0.284132 0
M  V30 6408 O 577.464 -2.16466 -0.731773 0
M  V30 6409 C 577.674 -2.03573 2.83477 0
M  V30 6410 C 579.022 -2.61264 3.34703 0
M  V30 6411 O 580.046 -2.13802 2.84898 0
M  V30 6412 O 578.905 -3.47779 4.21559 0
M  V30 6413 H 575.999 -0.553219 0.614718 0
M  V30 6414 H 578.545 -0.467003 1.63148 0
M  V30 6415 H 577.317 -1.39232 3.65691 0
M  V30 6416 H 576.94 -2.85716 2.76499 0
M  V30 6417 N 577.937 -1.40673 -0.710563 0
M  V30 6418 C 579.186 -1.38525 -1.46607 0
M  V30 6419 C 579.499 0.0077024 -1.95598 0
M  V30 6420 O 580.705 0.151792 -2.71075 0
M  V30 6421 C 579.161 -2.43489 -2.6503 0
M  V30 6422 C 578.769 -3.88619 -2.22888 0
M  V30 6423 C 580.513 -2.50456 -3.42742 0
M  V30 6424 C 578.42 -4.85168 -3.3818 0
M  V30 6425 H 577.35 -0.515092 -0.550632 0
M  V30 6426 H 580.001 -1.66431 -0.772846 0
M  V30 6427 H 578.383 -2.0869 -3.36548 0
M  V30 6428 H 579.557 -4.32588 -1.58758 0
M  V30 6429 H 577.872 -3.85174 -1.58208 0
M  V30 6430 H 580.469 -3.19776 -4.28541 0
M  V30 6431 H 580.812 -1.53665 -3.86902 0
M  V30 6432 H 581.345 -2.84271 -2.78271 0
M  V30 6433 H 578.084 -5.8331 -2.99047 0
M  V30 6434 H 577.604 -4.4586 -4.01209 0
M  V30 6435 H 579.283 -5.05225 -4.04174 0
M  V30 6436 N 579.415 0.9433 -1.26252 0
M  V30 6437 C 580.363 2.06302 -1.07434 0
M  V30 6438 C 581.357 1.694 -0.00189471 0
M  V30 6439 O 582.563 1.79302 -0.158408 0
M  V30 6440 H 578.938 0.675453 -0.330556 0
M  V30 6441 H 580.909 2.19326 -2.02333 0
M  V30 6442 C 579.658 3.40125 -0.721817 0
M  V30 6443 H 578.981 3.68996 -1.5389 0
M  V30 6444 H 580.421 4.19295 -0.629922 0
M  V30 6445 C 578.88 3.31993 0.572902 0
M  V30 6446 O 579.41 3.67945 1.61182 0
M  V30 6447 N 577.616 2.85099 0.562748 0
M  V30 6448 H 577.163 2.5604 -0.283092 0
M  V30 6449 H 577.121 2.80041 1.42915 0
M  V30 6450 N 580.893 1.08022 1.14757 0
M  V30 6451 C 581.84 0.706657 2.19716 0
M  V30 6452 C 582.81 -0.30525 1.63271 0
M  V30 6453 O 583.995 -0.19015 1.8985 0
M  V30 6454 C 581.135 0.117914 3.44898 0
M  V30 6455 C 580.248 1.18212 4.15512 0
M  V30 6456 C 579.383 0.557659 5.28265 0
M  V30 6457 C 578.422 1.60418 5.90705 0
M  V30 6458 N 577.559 1.0018 6.94916 0
M  V30 6459 H 582.399 1.60603 2.51019 0
M  V30 6460 H 579.936 0.802664 1.23271 0
M  V30 6461 H 581.894 -0.241112 4.16503 0
M  V30 6462 H 580.524 -0.744788 3.1409 0
M  V30 6463 H 579.576 1.65863 3.42335 0
M  V30 6464 H 580.888 1.97533 4.5802 0
M  V30 6465 H 580.042 0.146654 6.06523 0
M  V30 6466 H 578.781 -0.267249 4.86967 0
M  V30 6467 H 577.786 2.02489 5.11154 0
M  V30 6468 H 579.011 2.43149 6.34078 0
M  V30 6469 H 576.957 0.197917 6.55701 0
M  V30 6470 H 576.874 1.73216 7.35889 0
M  V30 6471 H 578.142 0.616523 7.77058 0
M  V30 6472 N 582.371 -1.3172 0.865308 0
M  V30 6473 C 583.334 -2.26918 0.322627 0
M  V30 6474 C 584.334 -1.52031 -0.523751 0
M  V30 6475 O 585.524 -1.70973 -0.333727 0
M  V30 6476 C 582.656 -3.36558 -0.542338 0
M  V30 6477 H 583.849 -2.76432 1.16298 0
M  V30 6478 H 581.402 -1.42573 0.640512 0
M  V30 6479 H 582.137 -2.92329 -1.40407 0
M  V30 6480 H 581.922 -3.92048 0.0636395 0
M  V30 6481 H 583.412 -4.07465 -0.91446 0
M  V30 6482 N 583.85 -0.624285 -1.44708 0
M  V30 6483 C 585.096 -0.13473 -2.02953 0
M  V30 6484 C 585.451 1.22724 -1.48178 0
M  V30 6485 O 584.744 1.80109 -0.653542 0
M  V30 6486 C 584.938 -0.0546353 -3.57358 0
M  V30 6487 C 584.767 -1.40729 -4.27113 0
M  V30 6488 C 583.537 -1.99231 -4.64365 0
M  V30 6489 C 585.735 -2.33968 -4.58 0
M  V30 6490 N 583.716 -3.27803 -5.19055 0
M  V30 6491 C 585.088 -3.47149 -5.137 0
M  V30 6492 C 587.143 -2.33132 -4.39948 0
M  V30 6493 C 585.846 -4.59682 -5.53249 0
M  V30 6494 C 587.872 -3.44724 -4.8054 0
M  V30 6495 C 587.234 -4.56629 -5.36348 0
M  V30 6496 H 583.332 -0.0930617 -0.776443 0
M  V30 6497 H 585.917 -0.826286 -1.76297 0
M  V30 6498 H 584.088 0.606183 -3.8364 0
M  V30 6499 H 585.82 0.443116 -4.02267 0
M  V30 6500 H 582.575 -1.52251 -4.4846 0
M  V30 6501 H 582.999 -3.93519 -5.50883 0
M  V30 6502 H 587.641 -1.47868 -3.961 0
M  V30 6503 H 585.359 -5.4566 -5.96054 0
M  V30 6504 H 588.945 -3.45245 -4.68291 0
M  V30 6505 H 587.825 -5.41551 -5.67179 0
M  V30 6506 N 585.328 1.53329 -0.364422 0
M  V30 6507 C 586.238 2.29414 0.490552 0
M  V30 6508 C 587.254 1.35335 1.09363 0
M  V30 6509 O 588.43 1.68391 1.10483 0
M  V30 6510 C 585.495 3.06772 1.61529 0
M  V30 6511 C 584.556 4.16516 1.03986 0
M  V30 6512 C 583.789 4.90176 2.111 0
M  V30 6513 O 584.012 4.63687 3.32191 0
M  V30 6514 O 582.946 5.76134 1.74222 0
M  V30 6515 H 586.772 3.03428 -0.12856 0
M  V30 6516 H 584.357 1.48843 -0.128837 0
M  V30 6517 H 586.239 3.55082 2.26924 0
M  V30 6518 H 584.914 2.35596 2.21983 0
M  V30 6519 H 583.821 3.7246 0.349856 0
M  V30 6520 H 585.154 4.89855 0.4799 0
M  V30 6521 N 586.806 0.0935595 1.57322 0
M  V30 6522 C 588.222 -0.263091 1.57417 0
M  V30 6523 C 588.422 -1.68526 1.1046 0
M  V30 6524 O 587.478 -2.40139 0.780357 0
M  V30 6525 C 588.791 -0.0529201 3.00653 0
M  V30 6526 C 590.339 -0.120788 3.12767 0
M  V30 6527 C 590.814 0.0613707 4.57959 0
M  V30 6528 N 592.305 0.00648534 4.632 0
M  V30 6529 C 593.04 0.122699 5.73269 0
M  V30 6530 N 592.536 0.29366 6.92177 0
M  V30 6531 N 594.329 0.0640787 5.62063 0
M  V30 6532 H 586.48 1.02277 1.86154 0
M  V30 6533 H 588.743 0.4007 0.859153 0
M  V30 6534 H 588.449 0.929279 3.39201 0
M  V30 6535 H 588.323 -0.795899 3.68708 0
M  V30 6536 H 590.71 -1.09349 2.74093 0
M  V30 6537 H 590.791 0.653656 2.47307 0
M  V30 6538 H 590.435 1.03093 4.97327 0
M  V30 6539 H 590.365 -0.732748 5.21477 0
M  V30 6540 H 592.856 -0.123173 3.77699 0
M  V30 6541 H 593.169 0.37389 7.71895 0
M  V30 6542 H 591.514 0.329307 6.94219 0
M  V30 6543 H 594.705 -0.0683396 4.6805 0
M  V30 6544 H 594.878 0.158097 6.47807 0
M  V30 6545 N 588.284 -1.56567 -0.180126 0
M  V30 6546 C 589.214 -1.98753 -1.22553 0
M  V30 6547 C 590.195 -0.86175 -1.46656 0
M  V30 6548 O 591.38 -1.12719 -1.58139 0
M  V30 6549 C 588.51 -2.33988 -2.56645 0
M  V30 6550 C 587.464 -3.49445 -2.47128 0
M  V30 6551 C 586.79 -3.70397 -3.8563 0
M  V30 6552 C 588.09 -4.83171 -1.98352 0
M  V30 6553 H 589.784 -2.86332 -0.874896 0
M  V30 6554 H 587.33 -1.37757 -0.419414 0
M  V30 6555 H 589.283 -2.62097 -3.29974 0
M  V30 6556 H 588.007 -1.43309 -2.93479 0
M  V30 6557 H 586.666 -3.2145 -1.76254 0
M  V30 6558 H 586.314 -2.77023 -4.19842 0
M  V30 6559 H 586.014 -4.48077 -3.80132 0
M  V30 6560 H 587.538 -4.00897 -4.60558 0
M  V30 6561 H 588.952 -5.10213 -2.61449 0
M  V30 6562 H 587.349 -5.64425 -2.03823 0
M  V30 6563 H 588.419 -4.75753 -0.937402 0
M  V30 6564 N 589.762 0.448376 -1.51087 0
M  V30 6565 C 590.672 1.56882 -1.74428 0
M  V30 6566 C 591.688 1.62268 -0.62809 0
M  V30 6567 O 592.864 1.79716 -0.909075 0
M  V30 6568 C 589.929 2.92947 -1.85426 0
M  V30 6569 C 588.99 2.97766 -3.09247 0
M  V30 6570 C 588.223 4.27341 -3.19711 0
M  V30 6571 O 588.446 5.19112 -2.36387 0
M  V30 6572 O 587.38 4.38219 -4.12611 0
M  V30 6573 H 591.206 1.40104 -2.69452 0
M  V30 6574 H 588.791 0.630247 -1.35456 0
M  V30 6575 H 590.673 3.73719 -1.94709 0
M  V30 6576 H 589.348 3.09876 -0.935887 0
M  V30 6577 H 588.255 2.15989 -3.0545 0
M  V30 6578 H 589.588 2.8578 -4.00738 0
M  V30 6579 N 591.24 1.41047 0.703093 0
M  V30 6580 C 592.187 1.42302 1.81711 0
M  V30 6581 C 593.157 0.278336 1.63751 0
M  V30 6582 O 594.342 0.478266 1.84709 0
M  V30 6583 C 591.482 1.30362 3.19531 0
M  V30 6584 C 590.595 2.54638 3.48975 0
M  V30 6585 C 589.73 2.35047 4.76368 0
M  V30 6586 C 588.769 3.54837 4.98756 0
M  V30 6587 N 587.906 3.34363 6.1737 0
M  V30 6588 H 592.746 2.37516 1.79973 0
M  V30 6589 H 590.283 1.1795 0.878983 0
M  V30 6590 H 592.241 1.21443 3.99134 0
M  V30 6591 H 590.871 0.387602 3.20464 0
M  V30 6592 H 589.923 2.74037 2.63833 0
M  V30 6593 H 591.235 3.43766 3.61423 0
M  V30 6594 H 590.389 2.23552 5.64012 0
M  V30 6595 H 589.128 1.43363 4.66153 0
M  V30 6596 H 588.133 3.66795 4.09563 0
M  V30 6597 H 589.358 4.47464 5.10835 0
M  V30 6598 H 587.304 2.45373 6.08382 0
M  V30 6599 H 587.221 4.17063 6.30551 0
M  V30 6600 H 588.489 3.26626 7.07768 0
M  V30 6601 N 592.718 -0.936591 1.26751 0
M  V30 6602 C 593.681 -2.01752 1.08761 0
M  V30 6603 C 594.681 -1.60763 0.0344435 0
M  V30 6604 O 595.871 -1.71963 0.278258 0
M  V30 6605 C 593.003 -3.34543 0.655271 0
M  V30 6606 H 594.196 -2.19143 2.04735 0
M  V30 6607 H 591.749 -1.11618 1.09413 0
M  V30 6608 H 592.484 -3.22851 -0.30626 0
M  V30 6609 H 592.269 -3.65647 1.41578 0
M  V30 6610 H 593.759 -4.13944 0.551378 0
M  V30 6611 N 594.196 -1.08629 -1.14182 0
M  V30 6612 C 595.106 -0.730126 -2.22949 0
M  V30 6613 C 596.122 0.26436 -1.7198 0
M  V30 6614 O 597.298 0.107742 -2.01112 0
M  V30 6615 C 594.363 -0.147227 -3.46387 0
M  V30 6616 C 593.424 -1.19662 -4.12286 0
M  V30 6617 C 592.657 -0.641437 -5.29831 0
M  V30 6618 O 592.88 0.538351 -5.67854 0
M  V30 6619 O 591.814 -1.39257 -5.85569 0
M  V30 6620 H 595.64 -1.63753 -2.55771 0
M  V30 6621 H 593.225 -0.860118 -1.22157 0
M  V30 6622 H 595.107 0.174923 -4.21037 0
M  V30 6623 H 593.782 0.733304 -3.15285 0
M  V30 6624 H 592.689 -1.57133 -3.395 0
M  V30 6625 H 594.022 -2.0495 -4.475 0
M  V30 6626 N 595.674 1.31259 -0.872281 0
M  V30 6627 C 596.624 2.26 -0.301295 0
M  V30 6628 C 597.608 1.50729 0.562991 0
M  V30 6629 O 598.8 1.72198 0.40949 0
M  V30 6630 C 595.929 3.39724 0.494227 0
M  V30 6631 C 595.015 4.22363 -0.383432 0
M  V30 6632 N 595.406 4.83724 -1.47799 0
M  V30 6633 C 593.704 4.45652 -0.176278 0
M  V30 6634 C 594.405 5.45523 -2.01939 0
M  V30 6635 N 593.381 5.27428 -1.31608 0
M  V30 6636 H 597.183 2.70981 -1.13782 0
M  V30 6637 H 594.697 1.45552 -0.720294 0
M  V30 6638 H 596.694 4.06626 0.919828 0
M  V30 6639 H 595.354 2.96286 1.32834 0
M  V30 6640 H 596.365 4.83313 -1.8609 0
M  V30 6641 H 593.042 4.12845 0.621698 0
M  V30 6642 H 594.432 6.04268 -2.93786 0
M  V30 6643 N 597.152 0.631951 1.44375 0
M  V30 6644 C 598.062 -0.073674 2.34484 0
M  V30 6645 C 599.078 -0.834825 1.52665 0
M  V30 6646 O 600.254 -0.786902 1.85391 0
M  V30 6647 C 597.319 -1.04247 3.30656 0
M  V30 6648 C 596.38 -0.280602 4.28382 0
M  V30 6649 C 595.613 -1.20325 5.19959 0
M  V30 6650 O 595.836 -2.44199 5.15484 0
M  V30 6651 O 594.77 -0.687128 5.97965 0
M  V30 6652 H 598.596 0.667477 2.96274 0
M  V30 6653 H 596.181 0.392144 1.44162 0
M  V30 6654 H 598.063 -1.59981 3.89851 0
M  V30 6655 H 596.738 -1.76422 2.71398 0
M  V30 6656 H 595.645 0.319804 3.72731 0
M  V30 6657 H 596.978 0.401144 4.90563 0
M  V30 6658 N 598.631 -1.53133 0.372548 0
M  V30 6659 C 600.047 -1.59585 0.02178 0
M  V30 6660 C 600.247 -1.38736 -1.46132 0
M  V30 6661 O 599.303 -1.19599 -2.22379 0
M  V30 6662 C 600.616 -2.9678 0.483959 0
M  V30 6663 C 602.164 -3.09909 0.438775 0
M  V30 6664 C 602.639 -4.49527 0.876876 0
M  V30 6665 N 604.13 -4.55663 0.832214 0
M  V30 6666 C 604.865 -5.61896 1.14281 0
M  V30 6667 N 604.361 -6.75852 1.52303 0
M  V30 6668 N 606.154 -5.51916 1.06515 0
M  V30 6669 H 598.305 -1.64936 1.33827 0
M  V30 6670 H 600.568 -0.773947 0.547458 0
M  V30 6671 H 600.274 -3.17198 1.51915 0
M  V30 6672 H 600.148 -3.7699 -0.125784 0
M  V30 6673 H 602.535 -2.89197 -0.587294 0
M  V30 6674 H 602.616 -2.31691 1.0841 0
M  V30 6675 H 602.26 -4.70979 1.90109 0
M  V30 6676 H 602.19 -5.26186 0.208727 0
M  V30 6677 H 604.681 -3.73844 0.552195 0
M  V30 6678 H 604.994 -7.52862 1.7441 0
M  V30 6679 H 603.339 -6.77226 1.56175 0
M  V30 6680 H 606.53 -4.6177 0.767235 0
M  V30 6681 H 606.703 -6.34609 1.31053 0
M  V30 6682 N 600.109 -0.101901 -1.5727 0
M  V30 6683 C 601.019 0.868647 -2.17926 0
M  V30 6684 C 602.035 1.30527 -1.1506 0
M  V30 6685 O 603.211 1.37178 -1.47459 0
M  V30 6686 C 600.276 2.10727 -2.75309 0
M  V30 6687 C 599.337 1.7242 -3.93154 0
M  V30 6688 C 598.57 2.90377 -4.47791 0
M  V30 6689 O 598.793 4.05305 -4.01353 0
M  V30 6690 O 597.727 2.6845 -5.38719 0
M  V30 6691 H 601.553 0.382544 -3.01281 0
M  V30 6692 H 599.138 0.122812 -1.48894 0
M  V30 6693 H 601.02 2.83303 -3.11958 0
M  V30 6694 H 599.695 2.58376 -1.94996 0
M  V30 6695 H 598.602 0.970039 -3.61305 0
M  V30 6696 H 599.935 1.29528 -4.74851 0
M  V30 6697 N 601.587 1.56661 0.17182 0
M  V30 6698 C 602.517 1.99401 1.21498 0
M  V30 6699 C 603.498 0.869516 1.46197 0
M  V30 6700 O 604.683 1.13556 1.57539 0
M  V30 6701 C 601.813 2.35346 2.55401 0
M  V30 6702 C 600.767 3.5075 2.45272 0
M  V30 6703 C 600.093 3.72437 3.8366 0
M  V30 6704 C 601.393 4.84216 1.95787 0
M  V30 6705 H 603.087 2.86792 0.859699 0
M  V30 6706 H 600.633 1.37977 0.412103 0
M  V30 6707 H 602.586 2.63843 3.2858 0
M  V30 6708 H 601.31 1.44864 2.92715 0
M  V30 6709 H 599.969 3.2238 1.74547 0
M  V30 6710 H 599.617 2.79246 4.18367 0
M  V30 6711 H 599.317 4.50087 3.77751 0
M  V30 6712 H 600.841 4.03334 4.58426 0
M  V30 6713 H 602.255 5.11592 2.5874 0
M  V30 6714 H 600.652 5.65498 2.00827 0
M  V30 6715 H 601.722 4.76243 0.912159 0
M  V30 6716 N 603.065 -0.440357 1.51323 0
M  V30 6717 C 604.028 -1.51679 1.71832 0
M  V30 6718 C 605.028 -1.49648 0.588386 0
M  V30 6719 O 606.218 -1.51724 0.855891 0
M  V30 6720 C 603.35 -2.91228 1.77199 0
M  V30 6721 H 604.543 -1.34799 2.67898 0
M  V30 6722 H 602.096 -0.66883 1.41267 0
M  V30 6723 H 602.831 -3.13516 0.829363 0
M  V30 6724 H 602.616 -2.94107 2.59314 0
M  V30 6725 H 604.106 -3.69321 1.94915 0
M  V30 6726 N 604.543 -1.41418 -0.695603 0
M  V30 6727 C 605.473 -1.46035 -1.82197 0
M  V30 6728 C 606.454 -0.319025 -1.67082 0
M  V30 6729 O 607.639 -0.530462 -1.86815 0
M  V30 6730 C 604.769 -1.34179 -3.20333 0
M  V30 6731 C 603.723 -2.46123 -3.50154 0
M  V30 6732 C 603.049 -2.19332 -4.87645 0
M  V30 6733 C 604.349 -3.88463 -3.49133 0
M  V30 6734 H 606.043 -2.40303 -1.78591 0
M  V30 6735 H 603.589 -1.15663 -0.857797 0
M  V30 6736 H 605.542 -1.36021 -3.98844 0
M  V30 6737 H 604.266 -0.363952 -3.24566 0
M  V30 6738 H 602.925 -2.43563 -2.73994 0
M  V30 6739 H 602.573 -1.19891 -4.88503 0
M  V30 6740 H 602.273 -2.94344 -5.08562 0
M  V30 6741 H 603.797 -2.22889 -5.68465 0
M  V30 6742 H 605.211 -3.92738 -4.17648 0
M  V30 6743 H 603.608 -4.63158 -3.81582 0
M  V30 6744 H 604.678 -4.16617 -2.48109 0
M  V30 6745 N 606.021 0.929856 -1.27246 0
M  V30 6746 C 607.437 1.20542 -1.04603 0
M  V30 6747 C 607.637 2.00276 0.221754 0
M  V30 6748 O 606.693 2.34835 0.927833 0
M  V30 6749 C 608.006 1.95566 -2.28417 0
M  V30 6750 C 609.554 2.08513 -2.33433 0
M  V30 6751 C 610.029 2.86943 -3.5697 0
M  V30 6752 N 611.52 2.94512 -3.57515 0
M  V30 6753 C 612.255 3.55656 -4.49774 0
M  V30 6754 N 611.751 4.18209 -5.52334 0
M  V30 6755 N 613.544 3.53038 -4.37402 0
M  V30 6756 H 605.695 0.397113 -2.08655 0
M  V30 6757 H 607.958 0.238277 -0.917566 0
M  V30 6758 H 607.664 1.44395 -3.20691 0
M  V30 6759 H 607.538 2.9619 -2.33563 0
M  V30 6760 H 609.925 2.58872 -1.41666 0
M  V30 6761 H 610.006 1.07117 -2.32292 0
M  V30 6762 H 609.65 2.37268 -4.49072 0
M  V30 6763 H 609.58 3.8862 -3.55362 0
M  V30 6764 H 612.071 2.50053 -2.83341 0
M  V30 6765 H 612.384 4.62796 -6.18902 0
M  V30 6766 H 610.729 4.16761 -5.56179 0
M  V30 6767 H 613.92 3.0337 -3.56489 0
M  V30 6768 H 614.093 4.004 -5.09493 0
M  V30 6769 N 607.499 1.09233 1.13605 0
M  V30 6770 C 608.447 0.724572 2.21027 0
M  V30 6771 C 609.441 -0.273595 1.67176 0
M  V30 6772 O 610.647 -0.135266 1.79491 0
M  V30 6773 H 607.022 0.216319 0.720215 0
M  V30 6774 H 608.993 1.63975 2.49309 0
M  V30 6775 C 607.742 0.159126 3.47336 0
M  V30 6776 H 607.065 0.918387 3.89109 0
M  V30 6777 H 608.505 -0.0602851 4.23957 0
M  V30 6778 C 606.964 -1.10514 3.18258 0
M  V30 6779 O 607.494 -2.18869 3.36837 0
M  V30 6780 N 605.7 -1.01886 2.72154 0
M  V30 6781 H 605.247 -0.137027 2.57235 0
M  V30 6782 H 605.205 -1.8655 2.53074 0
M  V30 6783 N 608.977 -1.30795 0.87923 0
M  V30 6784 C 609.887 -2.32041 0.345565 0
M  V30 6785 C 610.903 -1.65103 -0.549265 0
M  V30 6786 O 612.079 -1.9645 -0.443763 0
M  V30 6787 C 609.144 -3.43944 -0.436245 0
M  V30 6788 C 608.205 -4.26521 0.48765 0
M  V30 6789 C 607.438 -5.33081 -0.256943 0
M  V30 6790 O 607.661 -5.50762 -1.48381 0
M  V30 6791 O 606.595 -6.00635 0.389985 0
M  V30 6792 H 610.421 -2.79627 1.18501 0
M  V30 6793 H 608.006 -1.3486 0.642885 0
M  V30 6794 H 609.888 -4.12128 -0.879119 0
M  V30 6795 H 608.563 -2.98504 -1.25208 0
M  V30 6796 H 607.47 -3.61057 0.979216 0
M  V30 6797 H 608.803 -4.75551 1.26933 0
M  V30 6798 N 610.455 -0.639598 -1.44038 0
M  V30 6799 C 611.385 0.0469443 -2.33453 0
M  V30 6800 C 612.366 0.82609 -1.48694 0
M  V30 6801 O 613.551 0.790285 -1.77393 0
M  V30 6802 C 610.681 1.02338 -3.3188 0
M  V30 6803 C 609.635 0.355284 -4.26523 0
M  V30 6804 C 608.961 1.44221 -5.14883 0
M  V30 6805 C 610.261 -0.743798 -5.16977 0
M  V30 6806 H 611.955 -0.699735 -2.91108 0
M  V30 6807 H 609.501 -0.337946 -1.39978 0
M  V30 6808 H 611.454 1.51247 -3.93322 0
M  V30 6809 H 610.178 1.80105 -2.72451 0
M  V30 6810 H 608.837 -0.113239 -3.66425 0
M  V30 6811 H 608.485 2.21097 -4.51802 0
M  V30 6812 H 608.185 1.00052 -5.79019 0
M  V30 6813 H 609.709 1.93295 -5.79197 0
M  V30 6814 H 611.123 -0.337444 -5.72306 0
M  V30 6815 H 609.52 -1.10914 -5.89761 0
M  V30 6816 H 610.59 -1.60745 -4.57481 0
M  V30 6817 N 611.933 1.52934 -0.380664 0
M  V30 6818 C 613.182 2.00651 0.205477 0
M  V30 6819 C 613.495 1.27164 1.48623 0
M  V30 6820 O 614.701 1.65547 2.15189 0
M  V30 6821 C 613.157 3.57479 0.416726 0
M  V30 6822 C 612.765 4.39857 -0.850268 0
M  V30 6823 C 614.509 4.13509 0.959702 0
M  V30 6824 C 612.416 5.88269 -0.607773 0
M  V30 6825 H 611.346 0.749684 0.0805614 0
M  V30 6826 H 613.997 1.76508 -0.501732 0
M  V30 6827 H 612.379 3.77836 1.18557 0
M  V30 6828 H 613.553 4.31269 -1.62307 0
M  V30 6829 H 611.868 3.95005 -1.31756 0
M  V30 6830 H 614.465 5.22039 1.15669 0
M  V30 6831 H 614.808 3.69054 1.92626 0
M  V30 6832 H 615.341 3.9701 0.250645 0
M  V30 6833 H 612.08 6.3703 -1.54509 0
M  V30 6834 H 611.6 5.99667 0.126247 0
M  V30 6835 H 613.279 6.46558 -0.239014 0
M  V30 6836 N 613.412 0.11024 1.57214 0
M  V30 6837 C 614.828 -0.24638 1.57687 0
M  V30 6838 C 615.028 -1.67344 1.12241 0
M  V30 6839 O 614.084 -2.39298 0.805783 0
M  V30 6840 C 615.397 -0.0210288 3.00693 0
M  V30 6841 C 616.945 -0.0876077 3.12877 0
M  V30 6842 C 617.42 0.10994 4.57868 0
M  V30 6843 N 618.911 0.0556135 4.63167 0
M  V30 6844 C 619.646 0.183495 5.73106 0
M  V30 6845 N 619.142 0.367058 6.91827 0
M  V30 6846 N 620.935 0.123689 5.61964 0
M  V30 6847 H 613.086 1.04246 1.85058 0
M  V30 6848 H 615.349 0.40979 0.854854 0
M  V30 6849 H 615.055 0.965203 3.38196 0
M  V30 6850 H 614.929 -0.756748 3.69531 0
M  V30 6851 H 617.316 -1.06436 2.75237 0
M  V30 6852 H 617.397 0.67985 2.466 0
M  V30 6853 H 617.041 1.08362 4.96206 0
M  V30 6854 H 616.971 -0.677397 5.22225 0
M  V30 6855 H 619.462 -0.0831062 3.77809 0
M  V30 6856 H 619.775 0.455739 7.71455 0
M  V30 6857 H 618.12 0.40292 6.93831 0
M  V30 6858 H 621.311 -0.0186928 4.68096 0
M  V30 6859 H 621.484 0.226797 6.47603 0
M  V30 6860 N 614.89 -1.56749 -0.16351 0
M  V30 6861 C 615.822 -1.93587 -1.22705 0
M  V30 6862 C 616.835 -0.829824 -1.40063 0
M  V30 6863 O 618.024 -1.10826 -1.39928 0
M  V30 6864 C 615.124 -2.1803 -2.59454 0
M  V30 6865 C 614.297 -3.4928 -2.63292 0
M  V30 6866 C 613.356 -3.62457 -3.8146 0
M  V30 6867 O 612.382 -4.35004 -3.67096 0
M  V30 6868 N 613.584 -2.97888 -4.9824 0
M  V30 6869 H 616.349 -2.8542 -0.914081 0
M  V30 6870 H 613.91 -1.58 -0.353214 0
M  V30 6871 H 615.902 -2.24102 -3.36987 0
M  V30 6872 H 614.472 -1.32543 -2.8311 0
M  V30 6873 H 613.692 -3.54795 -1.71796 0
M  V30 6874 H 614.98 -4.35632 -2.62873 0
M  V30 6875 H 614.378 -2.38833 -5.12811 0
M  V30 6876 H 612.935 -3.09545 -5.73607 0
M  V30 6877 N 616.368 0.432326 -1.51554 0
M  V30 6878 C 617.278 1.55023 -1.76082 0
M  V30 6879 C 618.294 1.61593 -0.645265 0
M  V30 6880 O 619.47 1.78742 -0.928086 0
M  V30 6881 C 616.535 2.90964 -1.88523 0
M  V30 6882 C 615.596 2.9447 -3.12388 0
M  V30 6883 C 614.829 4.23926 -3.24225 0
M  V30 6884 O 615.052 5.16576 -2.4188 0
M  V30 6885 O 613.986 4.33818 -4.17235 0
M  V30 6886 H 617.812 1.37238 -2.70923 0
M  V30 6887 H 615.397 0.615845 -1.36117 0
M  V30 6888 H 617.279 3.71633 -1.98662 0
M  V30 6889 H 615.954 3.08865 -0.9687 0
M  V30 6890 H 614.861 2.12737 -3.07723 0
M  V30 6891 H 616.194 2.81514 -4.03746 0
M  V30 6892 N 617.846 1.41785 0.688094 0
M  V30 6893 C 618.793 1.44221 1.80191 0
M  V30 6894 C 619.763 0.295688 1.63447 0
M  V30 6895 O 620.948 0.49783 1.84191 0
M  V30 6896 C 618.088 1.33743 3.1813 0
M  V30 6897 C 617.201 2.58325 3.46254 0
M  V30 6898 C 616.336 2.40086 4.73848 0
M  V30 6899 C 615.375 3.60107 4.94964 0
M  V30 6900 N 614.512 3.40892 6.13789 0
M  V30 6901 H 619.352 2.39411 1.77444 0
M  V30 6902 H 616.889 1.18876 0.866423 0
M  V30 6903 H 618.847 1.25669 3.97823 0
M  V30 6904 H 617.477 0.42157 3.20035 0
M  V30 6905 H 616.529 2.7682 2.60912 0
M  V30 6906 H 617.841 3.4758 3.57756 0
M  V30 6907 H 616.995 2.29522 5.61609 0
M  V30 6908 H 615.734 1.483 4.64606 0
M  V30 6909 H 614.739 3.71118 4.05649 0
M  V30 6910 H 615.964 4.52857 5.06061 0
M  V30 6911 H 613.91 2.51812 6.05745 0
M  V30 6912 H 613.827 4.23727 6.26092 0
M  V30 6913 H 615.095 3.34114 7.04264 0
M  V30 6914 N 619.324 -0.923095 1.27737 0
M  V30 6915 C 620.254 -2.04124 1.13383 0
M  V30 6916 C 621.235 -1.70066 0.0340658 0
M  V30 6917 O 622.42 -1.93068 0.209383 0
M  V30 6918 C 619.55 -3.3831 0.785097 0
M  V30 6919 C 618.504 -3.86496 1.8386 0
M  V30 6920 C 617.83 -5.1754 1.34373 0
M  V30 6921 C 619.13 -4.09381 3.24353 0
M  V30 6922 H 620.824 -2.1639 2.06919 0
M  V30 6923 H 618.37 -1.03976 0.996243 0
M  V30 6924 H 620.323 -4.16016 0.671485 0
M  V30 6925 H 619.047 -3.2607 -0.185969 0
M  V30 6926 H 617.706 -3.10987 1.9412 0
M  V30 6927 H 617.354 -5.01696 0.361989 0
M  V30 6928 H 617.054 -5.50751 2.04811 0
M  V30 6929 H 618.578 -5.97811 1.24315 0
M  V30 6930 H 619.992 -4.77641 3.17067 0
M  V30 6931 H 618.389 -4.53906 3.92542 0
M  V30 6932 H 619.459 -3.14515 3.69064 0
M  V30 6933 N 620.802 -1.09834 -1.13024 0
M  V30 6934 C 621.712 -0.753731 -2.22162 0
M  V30 6935 C 622.728 0.246105 -1.72251 0
M  V30 6936 O 623.904 0.0864051 -2.01215 0
M  V30 6937 C 620.969 -0.183958 -3.46212 0
M  V30 6938 C 620.03 -1.24028 -4.10993 0
M  V30 6939 C 619.263 -0.697597 -5.29121 0
M  V30 6940 O 619.486 0.478092 -5.68393 0
M  V30 6941 O 618.42 -1.4546 -5.84059 0
M  V30 6942 H 622.246 -1.66456 -2.5402 0
M  V30 6943 H 619.831 -0.873026 -1.21238 0
M  V30 6944 H 621.713 0.130257 -4.21199 0
M  V30 6945 H 620.388 0.699823 -3.16045 0
M  V30 6946 H 619.295 -1.60725 -3.37814 0
M  V30 6947 H 620.628 -2.09685 -4.45301 0
M  V30 6948 N 622.28 1.30327 -0.886154 0
M  V30 6949 C 623.212 2.27079 -0.311072 0
M  V30 6950 C 624.225 1.53758 0.53502 0
M  V30 6951 O 625.414 1.74947 0.354378 0
M  V30 6952 C 622.514 3.33965 0.576228 0
M  V30 6953 C 621.687 4.36735 -0.241064 0
M  V30 6954 C 620.746 5.23028 0.576916 0
M  V30 6955 O 619.772 5.692 -0.000802231 0
M  V30 6956 N 620.974 5.49016 1.88579 0
M  V30 6957 H 623.739 2.77065 -1.14259 0
M  V30 6958 H 621.3 1.43519 -0.749258 0
M  V30 6959 H 623.292 3.88618 1.12953 0
M  V30 6960 H 621.862 2.839 1.30842 0
M  V30 6961 H 621.082 3.81932 -0.975805 0
M  V30 6962 H 622.37 5.02451 -0.801272 0
M  V30 6963 H 621.768 5.13288 2.37806 0
M  V30 6964 H 620.325 6.06539 2.38651 0
M  V30 6965 N 623.758 0.647228 1.43697 0
M  V30 6966 C 624.688 -0.0345631 2.33474 0
M  V30 6967 C 625.669 -0.818193 1.4913 0
M  V30 6968 O 626.854 -0.780867 1.77809 0
M  V30 6969 C 623.984 -1.00576 3.32418 0
M  V30 6970 C 622.938 -0.33266 4.26705 0
M  V30 6971 C 622.264 -1.41489 5.1564 0
M  V30 6972 C 623.564 0.771204 5.16575 0
M  V30 6973 H 625.258 0.715163 2.90733 0
M  V30 6974 H 622.804 0.345364 1.39797 0
M  V30 6975 H 624.757 -1.49159 3.94119 0
M  V30 6976 H 623.481 -1.78657 2.73403 0
M  V30 6977 H 622.14 0.13267 3.6636 0
M  V30 6978 H 621.788 -2.18698 4.52968 0
M  V30 6979 H 621.488 -0.969799 5.79542 0
M  V30 6980 H 623.012 -1.9022 5.80214 0
M  V30 6981 H 624.426 0.36779 5.72119 0
M  V30 6982 H 622.823 1.1404 5.89165 0
M  V30 6983 H 623.893 1.63169 4.56622 0
M  V30 6984 N 625.236 -1.5273 0.388769 0
M  V30 6985 C 626.199 -2.25043 -0.434544 0
M  V30 6986 C 627.199 -1.26661 -0.990644 0
M  V30 6987 O 628.389 -1.50762 -0.872731 0
M  V30 6988 C 625.521 -3.00507 -1.60961 0
M  V30 6989 H 626.714 -2.99242 0.198549 0
M  V30 6990 H 624.267 -1.55664 0.140875 0
M  V30 6991 H 625.002 -2.30607 -2.28015 0
M  V30 6992 H 624.787 -3.72716 -1.21757 0
M  V30 6993 H 626.277 -3.55413 -2.19251 0
M  V30 6994 N 626.714 -0.118576 -1.57153 0
M  V30 6995 C 628.13 0.238014 -1.57815 0
M  V30 6996 C 628.33 1.66747 -1.13127 0
M  V30 6997 O 627.386 2.38867 -0.818462 0
M  V30 6998 C 628.699 0.00508207 -3.007 0
M  V30 6999 C 630.247 0.0710139 -3.12919 0
M  V30 7000 C 630.722 -0.13422 -4.57803 0
M  V30 7001 N 632.213 -0.0801755 -4.63131 0
M  V30 7002 C 632.948 -0.213885 -5.73001 0
M  V30 7003 N 632.444 -0.403742 -6.91623 0
M  V30 7004 N 634.237 -0.15349 -5.6189 0
M  V30 7005 H 626.388 -1.05226 -1.84503 0
M  V30 7006 H 628.651 -0.414318 -0.852669 0
M  V30 7007 H 628.357 -0.983125 -3.3768 0
M  V30 7008 H 628.231 0.73714 -3.69927 0
M  V30 7009 H 630.618 1.04975 -2.75798 0
M  V30 7010 H 630.699 -0.692918 -2.46236 0
M  V30 7011 H 630.343 -1.10992 -4.95624 0
M  V30 7012 H 630.273 0.649692 -5.22577 0
M  V30 7013 H 632.764 0.0630689 -3.77847 0
M  V30 7014 H 633.077 -0.496645 -7.71202 0
M  V30 7015 H 631.422 -0.43971 -6.93608 0
M  V30 7016 H 634.613 -0.00613174 -4.681 0
M  V30 7017 H 634.786 -0.261138 -6.47474 0
M  V30 7018 N 628.193 1.56834 0.155195 0
M  V30 7019 C 629.609 1.51315 0.50755 0
M  V30 7020 C 629.809 0.825614 1.83809 0
M  V30 7021 O 628.865 0.39271 2.49427 0
M  V30 7022 C 630.178 2.96074 0.52542 0
M  V30 7023 C 631.726 3.06968 0.611505 0
M  V30 7024 C 632.201 4.53218 0.660115 0
M  V30 7025 N 633.692 4.5753 0.722564 0
M  V30 7026 C 634.427 5.68056 0.781023 0
M  V30 7027 N 633.923 6.88173 0.799327 0
M  V30 7028 N 635.716 5.56068 0.821278 0
M  V30 7029 H 627.867 1.9993 -0.717063 0
M  V30 7030 H 630.13 0.911507 -0.260496 0
M  V30 7031 H 629.836 3.49599 -0.383875 0
M  V30 7032 H 629.71 3.51587 1.36624 0
M  V30 7033 H 632.097 2.53468 1.51122 0
M  V30 7034 H 632.178 2.54513 -0.256306 0
M  V30 7035 H 631.822 5.07354 -0.23541 0
M  V30 7036 H 631.752 5.03447 1.5443 0
M  V30 7037 H 634.243 3.71054 0.716049 0
M  V30 7038 H 634.556 7.6816 0.845553 0
M  V30 7039 H 632.901 6.90751 0.767337 0
M  V30 7040 H 636.092 4.61142 0.804091 0
M  V30 7041 H 636.265 6.42223 0.863372 0
M  V30 7042 N 629.671 -0.424282 1.51781 0
M  V30 7043 C 630.918 -1.1726 1.65095 0
M  V30 7044 C 631.246 -1.90881 0.373477 0
M  V30 7045 O 630.501 -1.84835 -0.642997 0
M  V30 7046 C 630.8 -2.20418 2.81337 0
M  V30 7047 C 630.466 -1.63715 4.20129 0
M  V30 7048 C 629.128 -1.47975 4.57883 0
M  V30 7049 C 631.48 -1.22157 5.06682 0
M  V30 7050 C 628.808 -0.891703 5.79884 0
M  V30 7051 C 631.16 -0.647767 6.29275 0
M  V30 7052 C 629.824 -0.477371 6.65791 0
M  V30 7053 H 629.094 -0.429085 0.604125 0
M  V30 7054 H 631.741 -0.461852 1.85847 0
M  V30 7055 H 630.046 -2.97581 2.54859 0
M  V30 7056 H 631.743 -2.78163 2.88836 0
M  V30 7057 H 628.333 -1.76946 3.90369 0
M  V30 7058 H 632.517 -1.33133 4.7811 0
M  V30 7059 H 627.773 -0.747563 6.06813 0
M  V30 7060 H 631.947 -0.317291 6.95677 0
M  V30 7061 H 629.574 -0.0195936 7.60197 0
M  V30 7062 N 631.149 -1.42148 -0.680565 0
M  V30 7063 C 632.426 -1.32795 -1.43614 0
M  V30 7064 C 632.806 0.037415 -2.11067 0
M  V30 7065 O 632.154 1.05258 -2.02813 0
M  V30 7066 C 632.364 -2.49206 -2.44331 0
M  V30 7067 C 633.712 -2.91059 -3.09144 0
M  V30 7068 O 634.736 -2.49054 -2.54657 0
M  V30 7069 O 633.595 -3.63741 -4.07866 0
M  V30 7070 H 630.689 -0.523397 -0.640301 0
M  V30 7071 H 633.235 -1.54144 -0.709775 0
M  V30 7072 H 632.007 -3.40252 -1.93247 0
M  V30 7073 H 631.63 -2.29813 -3.24456 0
M  V30 7074 N 632.627 0.916307 -1.28225 0
M  V30 7075 C 634.043 1.19425 -1.05876 0
M  V30 7076 C 634.243 2.005 0.2005 0
M  V30 7077 O 633.299 2.35806 0.902873 0
M  V30 7078 C 634.612 1.93133 -2.30478 0
M  V30 7079 C 636.16 2.06026 -2.35632 0
M  V30 7080 C 636.635 2.83141 -3.59994 0
M  V30 7081 N 638.126 2.90704 -3.60618 0
M  V30 7082 C 638.861 3.50865 -4.53521 0
M  V30 7083 N 638.357 4.12327 -5.56739 0
M  V30 7084 N 640.15 3.48379 -4.41122 0
M  V30 7085 H 632.301 0.37496 -2.09064 0
M  V30 7086 H 634.564 0.228531 -0.920042 0
M  V30 7087 H 634.27 1.40985 -3.22205 0
M  V30 7088 H 634.144 2.93696 -2.36691 0
M  V30 7089 H 636.531 2.57355 -1.44404 0
M  V30 7090 H 636.612 1.04647 -2.33415 0
M  V30 7091 H 636.256 2.32492 -4.51564 0
M  V30 7092 H 636.186 3.84829 -3.59464 0
M  V30 7093 H 638.677 2.47034 -2.85977 0
M  V30 7094 H 638.99 4.56205 -6.23776 0
M  V30 7095 H 637.335 4.10839 -5.60568 0
M  V30 7096 H 640.526 2.99572 -3.59686 0
M  V30 7097 H 640.699 3.94974 -5.13712 0
M  V30 7098 N 634.105 1.10431 1.1244 0
M  V30 7099 C 635.052 0.753103 2.18167 0
M  V30 7100 C 636.022 -0.270549 1.63882 0
M  V30 7101 O 637.207 -0.149837 1.90211 0
M  V30 7102 C 634.347 0.191046 3.44571 0
M  V30 7103 C 633.46 1.26999 4.12911 0
M  V30 7104 C 632.595 0.669586 5.26963 0
M  V30 7105 C 631.634 1.72912 5.87169 0
M  V30 7106 N 630.771 1.14898 6.92635 0
M  V30 7107 H 635.611 1.65892 2.47556 0
M  V30 7108 H 633.148 0.828631 1.21541 0
M  V30 7109 H 635.106 -0.152712 4.1692 0
M  V30 7110 H 633.736 -0.677997 3.15599 0
M  V30 7111 H 632.788 1.73087 3.3874 0
M  V30 7112 H 634.1 2.07204 4.53727 0
M  V30 7113 H 633.254 0.275274 6.06075 0
M  V30 7114 H 631.993 -0.163895 4.87425 0
M  V30 7115 H 630.998 2.13286 5.06744 0
M  V30 7116 H 632.223 2.56544 6.28778 0
M  V30 7117 H 630.169 0.336956 6.55134 0
M  V30 7118 H 630.086 1.88786 7.32049 0
M  V30 7119 H 631.354 0.78121 7.75576 0
M  V30 7120 N 635.583 -1.29855 0.893053 0
M  V30 7121 C 636.546 -2.26183 0.370687 0
M  V30 7122 C 637.546 -1.53108 -0.491385 0
M  V30 7123 O 638.736 -1.71643 -0.297386 0
M  V30 7124 C 635.868 -3.37633 -0.470827 0
M  V30 7125 H 637.061 -2.73903 1.22135 0
M  V30 7126 H 634.614 -1.41183 0.67061 0
M  V30 7127 H 635.349 -2.95241 -1.34175 0
M  V30 7128 H 635.134 -3.91825 0.146784 0
M  V30 7129 H 636.624 -4.09313 -0.827825 0
M  V30 7130 N 637.061 -0.65484 -1.43351 0
M  V30 7131 C 638.024 0.0263562 -2.29185 0
M  V30 7132 C 639.024 0.748951 -1.42293 0
M  V30 7133 O 640.214 0.589957 -1.63906 0
M  V30 7134 C 637.346 1.04806 -3.2439 0
M  V30 7135 H 638.539 -0.728883 -2.90908 0
M  V30 7136 H 636.092 -0.416149 -1.50658 0
M  V30 7137 H 636.827 1.83247 -2.67565 0
M  V30 7138 H 636.612 0.533554 -3.88453 0
M  V30 7139 H 638.102 1.52372 -3.88809 0
M  V30 7140 N 638.539 1.52521 -0.396863 0
M  V30 7141 C 639.472 2.23118 0.478926 0
M  V30 7142 C 640.45 1.23475 1.05796 0
M  V30 7143 O 641.634 1.52486 1.10817 0
M  V30 7144 C 638.761 2.95028 1.66362 0
M  V30 7145 C 637.807 4.09002 1.20913 0
M  V30 7146 S 638.64 5.35182 0.184407 0
M  V30 7147 C 639.796 6.10616 1.37471 0
M  V30 7148 H 640.029 2.97056 -0.120542 0
M  V30 7149 H 637.562 1.53334 -0.18109 0
M  V30 7150 H 639.52 3.37066 2.34301 0
M  V30 7151 H 638.181 2.20756 2.23441 0
M  V30 7152 H 637.374 4.58445 2.09389 0
M  V30 7153 H 636.976 3.69016 0.608559 0
M  V30 7154 H 639.268 6.37247 2.30048 0
M  V30 7155 H 640.211 7.02084 0.921051 0
M  V30 7156 H 640.619 5.41499 1.59495 0
M  V30 7157 N 640.017 0.126909 1.57088 0
M  V30 7158 C 641.433 -0.229641 1.57939 0
M  V30 7159 C 641.633 -1.66145 1.1401 0
M  V30 7160 O 640.689 -2.3843 0.831119 0
M  V30 7161 C 642.002 0.0108648 3.00698 0
M  V30 7162 C 643.55 -0.054418 3.12953 0
M  V30 7163 C 644.025 0.158497 4.57726 0
M  V30 7164 N 645.516 0.104735 4.63082 0
M  V30 7165 C 646.251 0.24427 5.72879 0
M  V30 7166 N 645.747 0.440415 6.91399 0
M  V30 7167 N 647.54 0.183286 5.61801 0
M  V30 7168 H 639.691 1.06203 1.83942 0
M  V30 7169 H 641.954 0.418834 0.85046 0
M  V30 7170 H 641.66 1.00102 3.37154 0
M  V30 7171 H 641.534 -0.717512 3.70313 0
M  V30 7172 H 643.921 -1.0351 2.7635 0
M  V30 7173 H 644.002 0.705967 2.45865 0
M  V30 7174 H 643.646 1.13619 4.95028 0
M  V30 7175 H 643.576 -0.62197 5.22914 0
M  V30 7176 H 646.067 -0.0430298 3.77876 0
M  V30 7177 H 646.38 0.537536 7.70928 0
M  V30 7178 H 644.725 0.476488 6.93365 0
M  V30 7179 H 647.916 0.0309561 4.6809 0
M  V30 7180 H 648.089 0.295471 6.47326 0
M  V30 7181 N 641.495 -1.56914 -0.146875 0
M  V30 7182 C 642.405 -2.0154 -1.20079 0
M  V30 7183 C 643.421 -0.930838 -1.47008 0
M  V30 7184 O 644.597 -1.24032 -1.58676 0
M  V30 7185 C 641.662 -2.38715 -2.51428 0
M  V30 7186 C 640.723 -3.6112 -2.32145 0
M  V30 7187 C 639.956 -3.96512 -3.57231 0
M  V30 7188 O 640.179 -3.32566 -4.63418 0
M  V30 7189 O 639.113 -4.89758 -3.49887 0
M  V30 7190 H 642.939 -2.91506 -0.851924 0
M  V30 7191 H 640.524 -1.45106 -0.355607 0
M  V30 7192 H 642.406 -2.63485 -3.28867 0
M  V30 7193 H 641.081 -1.51903 -2.85845 0
M  V30 7194 H 639.988 -3.41536 -1.52656 0
M  V30 7195 H 641.321 -4.48549 -2.02644 0
M  V30 7196 N 642.974 0.416227 -1.52004 0
M  V30 7197 C 644.202 1.18573 -1.69553 0
M  V30 7198 C 644.617 1.84472 -0.401919 0
M  V30 7199 O 643.974 1.71593 0.621463 0
M  V30 7200 C 644.025 2.25413 -2.82615 0
M  V30 7201 O 643.746 1.62205 -4.06966 0
M  V30 7202 C 645.247 3.15297 -3.11613 0
M  V30 7203 H 642.467 0.356582 -0.56841 0
M  V30 7204 H 645.011 0.490618 -1.98528 0
M  V30 7205 H 643.166 2.90604 -2.56179 0
M  V30 7206 H 643.58 2.3298 -4.69916 0
M  V30 7207 H 645.054 3.86351 -3.94255 0
M  V30 7208 H 645.531 3.77264 -2.24874 0
M  V30 7209 H 646.137 2.55783 -3.39787 0
M  V30 7210 N 644.452 1.42507 0.673017 0
M  V30 7211 C 645.698 1.44282 1.43367 0
M  V30 7212 C 646.053 0.0588239 1.9231 0
M  V30 7213 O 645.346 -0.919288 1.68106 0
M  V30 7214 C 645.54 2.40351 2.64511 0
M  V30 7215 C 645.369 3.87955 2.27423 0
M  V30 7216 C 644.139 4.56476 2.16697 0
M  V30 7217 C 646.337 4.7833 1.88957 0
M  V30 7218 N 644.319 5.89099 1.72731 0
M  V30 7219 C 645.69 6.00073 1.55923 0
M  V30 7220 C 647.745 4.65769 1.75965 0
M  V30 7221 C 646.448 7.10652 1.112 0
M  V30 7222 C 648.474 5.76332 1.32647 0
M  V30 7223 C 647.836 6.97188 1.00538 0
M  V30 7224 H 643.935 0.583134 0.521036 0
M  V30 7225 H 646.519 1.78547 0.776481 0
M  V30 7226 H 644.69 2.08145 3.27918 0
M  V30 7227 H 646.422 2.32694 3.31113 0
M  V30 7228 H 643.177 4.10712 2.35823 0
M  V30 7229 H 643.601 6.59446 1.53166 0
M  V30 7230 H 648.243 3.72808 1.99435 0
M  V30 7231 H 645.961 8.0346 0.864768 0
M  V30 7232 H 649.547 5.68625 1.23112 0
M  V30 7233 H 648.427 7.81287 0.675283 0
M  V30 7234 N 645.93 -0.909495 1.28709 0
M  V30 7235 C 646.86 -2.0291 1.15542 0
M  V30 7236 C 647.841 -1.7002 0.0521017 0
M  V30 7237 O 649.026 -1.92835 0.229849 0
M  V30 7238 C 646.156 -3.37458 0.820935 0
M  V30 7239 C 645.11 -3.84524 1.87949 0
M  V30 7240 C 644.436 -5.16086 1.39854 0
M  V30 7241 C 645.736 -4.05918 3.28676 0
M  V30 7242 H 647.43 -2.14183 2.09203 0
M  V30 7243 H 644.976 -1.02913 1.00722 0
M  V30 7244 H 646.929 -4.1528 0.715571 0
M  V30 7245 H 645.653 -3.26249 -0.151374 0
M  V30 7246 H 644.312 -3.08911 1.97408 0
M  V30 7247 H 643.96 -5.01284 0.41518 0
M  V30 7248 H 643.66 -5.48547 2.1064 0
M  V30 7249 H 645.184 -5.96459 1.30649 0
M  V30 7250 H 646.598 -4.74252 3.22115 0
M  V30 7251 H 644.995 -4.49717 3.97334 0
M  V30 7252 H 646.065 -3.10583 3.72379 0
M  V30 7253 N 647.408 -1.11026 -1.11852 0
M  V30 7254 C 648.633 -0.879064 -1.87849 0
M  V30 7255 C 649.058 0.565406 -1.79401 0
M  V30 7256 O 648.416 1.39886 -1.15333 0
M  V30 7257 C 648.464 -1.33985 -3.34784 0
M  V30 7258 O 647.568 -0.508803 -4.09249 0
M  V30 7259 H 646.909 -0.316992 -0.583448 0
M  V30 7260 H 649.439 -1.47863 -1.41413 0
M  V30 7261 H 649.449 -1.33248 -3.85628 0
M  V30 7262 H 648.124 -2.39172 -3.40249 0
M  V30 7263 H 646.701 -0.581913 -3.68332 0
M  V30 7264 N 648.886 1.2938 -0.899927 0
M  V30 7265 C 649.796 2.31462 -0.382437 0
M  V30 7266 C 650.812 1.65956 0.522929 0
M  V30 7267 O 651.988 1.97131 0.412454 0
M  V30 7268 C 649.053 3.44595 0.381472 0
M  V30 7269 C 648.114 4.25692 -0.555444 0
M  V30 7270 C 647.347 5.33422 0.172102 0
M  V30 7271 O 647.57 5.53053 1.396 0
M  V30 7272 O 646.504 5.99939 -0.485491 0
M  V30 7273 H 650.33 2.77706 -1.22934 0
M  V30 7274 H 647.915 1.33821 -0.664259 0
M  V30 7275 H 649.797 4.13474 0.813442 0
M  V30 7276 H 648.472 3.00458 1.20443 0
M  V30 7277 H 647.379 3.59453 -1.03653 0
M  V30 7278 H 648.712 4.73471 -1.34483 0
M  V30 7279 N 650.364 0.662433 1.43002 0
M  V30 7280 C 651.312 -0.035345 2.32573 0
M  V30 7281 C 652.306 -0.803505 1.49131 0
M  V30 7282 O 653.512 -0.712865 1.65282 0
M  V30 7283 H 649.887 -0.0302194 0.751393 0
M  V30 7284 H 651.858 0.737686 2.89138 0
M  V30 7285 C 650.607 -0.981575 3.33557 0
M  V30 7286 H 649.93 -0.399914 3.97795 0
M  V30 7287 H 651.37 -1.43873 3.98844 0
M  V30 7288 C 649.829 -2.08204 2.64863 0
M  V30 7289 O 650.359 -3.16698 2.47113 0
M  V30 7290 N 648.565 -1.85022 2.24088 0
M  V30 7291 H 648.112 -0.967909 2.38724 0
M  V30 7292 H 648.07 -2.58845 1.78457 0
M  V30 7293 N 651.842 -1.52309 0.404946 0
M  V30 7294 C 652.774 -2.24579 -0.45791 0
M  V30 7295 C 653.787 -1.2739 -1.01369 0
M  V30 7296 O 654.976 -1.53363 -0.91335 0
M  V30 7297 C 652.076 -2.9608 -1.64893 0
M  V30 7298 C 651.249 -4.20106 -1.21777 0
M  V30 7299 C 650.308 -4.74468 -2.27523 0
M  V30 7300 O 649.334 -5.37157 -1.88285 0
M  V30 7301 N 650.536 -4.55678 -3.59635 0
M  V30 7302 H 653.301 -2.99265 0.161341 0
M  V30 7303 H 650.862 -1.60228 0.232107 0
M  V30 7304 H 652.854 -3.29344 -2.35191 0
M  V30 7305 H 651.424 -2.24606 -2.17419 0
M  V30 7306 H 650.644 -3.92704 -0.343071 0
M  V30 7307 H 651.932 -5.00658 -0.906596 0
M  V30 7308 H 651.33 -4.05673 -3.94266 0
M  V30 7309 H 649.887 -4.9339 -4.25922 0
M  V30 7310 N 653.32 -0.135238 -1.57019 0
M  V30 7311 C 654.736 0.221262 -1.58059 0
M  V30 7312 C 654.936 1.65538 -1.14889 0
M  V30 7313 O 653.992 2.37985 -0.843751 0
M  V30 7314 C 655.305 -0.0268114 -3.00688 0
M  V30 7315 C 656.853 0.0378206 -3.12977 0
M  V30 7316 C 657.328 -0.182769 -4.57635 0
M  V30 7317 N 658.819 -0.129292 -4.6302 0
M  V30 7318 C 659.554 -0.274648 -5.72742 0
M  V30 7319 N 659.05 -0.477075 -6.91155 0
M  V30 7320 N 660.843 -0.213077 -5.61696 0
M  V30 7321 H 652.994 -1.07177 -1.83376 0
M  V30 7322 H 655.257 -0.423338 -0.848227 0
M  V30 7323 H 654.963 -1.01889 -3.36618 0
M  V30 7324 H 654.837 0.697863 -3.70688 0
M  V30 7325 H 657.224 1.02043 -2.76896 0
M  V30 7326 H 657.305 -0.718996 -2.45487 0
M  V30 7327 H 656.949 -1.16243 -4.94419 0
M  V30 7328 H 656.879 0.59423 -5.23237 0
M  V30 7329 H 659.37 0.0229896 -3.77893 0
M  V30 7330 H 659.683 -0.578413 -7.70632 0
M  V30 7331 H 658.028 -0.513252 -6.93102 0
M  V30 7332 H 661.219 -0.0557796 -4.68067 0
M  V30 7333 H 661.392 -0.329796 -6.4716 0
M  V30 7334 N 654.798 1.5699 0.138552 0
M  V30 7335 C 655.728 2.01933 1.17241 0
M  V30 7336 C 656.709 0.90033 1.44319 0
M  V30 7337 O 657.894 1.16872 1.55095 0
M  V30 7338 C 655.024 2.40711 2.50351 0
M  V30 7339 C 653.978 3.55874 2.37776 0
M  V30 7340 C 653.304 3.80491 3.75674 0
M  V30 7341 C 654.604 4.8826 1.85472 0
M  V30 7342 H 656.298 2.88551 0.798672 0
M  V30 7343 H 653.844 1.3882 0.382743 0
M  V30 7344 H 655.797 2.70754 3.22909 0
M  V30 7345 H 654.521 1.5104 2.89576 0
M  V30 7346 H 653.18 3.2601 1.67669 0
M  V30 7347 H 652.828 2.88057 4.12349 0
M  V30 7348 H 652.528 4.57998 3.68119 0
M  V30 7349 H 654.052 4.12967 4.49767 0
M  V30 7350 H 655.466 5.16965 2.4783 0
M  V30 7351 H 653.863 5.69631 1.88787 0
M  V30 7352 H 654.933 4.78071 0.810935 0
M  V30 7353 N 656.276 -0.40816 1.52223 0
M  V30 7354 C 657.522 -1.15673 1.66576 0
M  V30 7355 C 657.855 -1.90141 0.394996 0
M  V30 7356 O 657.13 -1.84798 -0.606613 0
M  V30 7357 C 657.413 -2.15042 2.88841 0
M  V30 7358 C 657.266 -1.44465 4.25969 0
M  V30 7359 C 658.585 -3.15699 3.0663 0
M  V30 7360 H 655.704 -0.41916 0.606196 0
M  V30 7361 H 658.346 -0.442348 1.84779 0
M  V30 7362 H 656.496 -2.75964 2.73452 0
M  V30 7363 H 658.168 -0.866544 4.53088 0
M  V30 7364 H 656.411 -0.746612 4.27327 0
M  V30 7365 H 657.082 -2.16976 5.07568 0
M  V30 7366 H 659.558 -2.64854 3.20923 0
M  V30 7367 H 658.434 -3.82491 3.9369 0
M  V30 7368 H 658.695 -3.83481 2.19987 0
M  V30 7369 N 657.755 -1.42862 -0.66545 0
M  V30 7370 C 658.98 -1.47456 -1.45848 0
M  V30 7371 C 659.405 -0.0900312 -1.87884 0
M  V30 7372 O 658.763 0.913587 -1.56599 0
M  V30 7373 C 658.811 -2.41514 -2.67774 0
M  V30 7374 O 657.915 -1.89296 -3.66389 0
M  V30 7375 H 657.256 -0.499236 -0.437789 0
M  V30 7376 H 659.786 -1.8765 -0.815394 0
M  V30 7377 H 659.796 -2.58409 -3.15735 0
M  V30 7378 H 658.471 -3.42099 -2.36519 0
M  V30 7379 H 657.048 -1.82003 -3.25468 0
M  V30 7380 N 659.233 0.902656 -1.29189 0
M  V30 7381 C 660.165 2.01149 -1.09872 0
M  V30 7382 C 661.178 1.62732 -0.0471046 0
M  V30 7383 O 662.367 1.76107 -0.29132 0
M  V30 7384 C 659.467 3.32612 -0.649818 0
M  V30 7385 C 658.64 3.99574 -1.7793 0
M  V30 7386 C 657.699 5.09325 -1.32191 0
M  V30 7387 O 656.725 5.31919 -2.02611 0
M  V30 7388 N 657.927 5.80185 -0.191171 0
M  V30 7389 H 660.692 2.18276 -2.05368 0
M  V30 7390 H 658.253 1.07466 -1.2109 0
M  V30 7391 H 660.245 4.03375 -0.327199 0
M  V30 7392 H 658.815 3.11876 0.212597 0
M  V30 7393 H 658.035 3.22213 -2.27095 0
M  V30 7394 H 659.323 4.41056 -2.53668 0
M  V30 7395 H 658.721 5.64312 0.396016 0
M  V30 7396 H 657.278 6.5176 0.0721001 0
M  V30 7397 N 660.711 1.11618 1.11262 0
M  V30 7398 C 661.988 0.777876 1.79467 0
M  V30 7399 C 662.368 -0.733774 1.97937 0
M  V30 7400 O 661.716 -1.66443 1.56554 0
M  V30 7401 C 661.926 1.5431 3.13032 0
M  V30 7402 C 663.274 1.72357 3.88044 0
M  V30 7403 O 664.298 1.5075 3.22727 0
M  V30 7404 O 663.157 2.08276 5.05256 0
M  V30 7405 H 660.251 0.282018 0.777428 0
M  V30 7406 H 662.797 1.21971 1.17988 0
M  V30 7407 H 661.569 2.57132 2.94956 0
M  V30 7408 H 661.192 1.09495 3.82226 0
M  V30 7409 N 662.189 -1.289 0.906776 0
M  V30 7410 C 663.137 -2.29477 0.379873 0
M  V30 7411 C 664.131 -1.61068 -0.524747 0
M  V30 7412 O 665.337 -1.75344 -0.406765 0
M  V30 7413 H 661.712 -0.744742 0.10423 0
M  V30 7414 H 663.683 -2.71353 1.24137 0
M  V30 7415 C 662.432 -3.45713 -0.371154 0
M  V30 7416 H 661.755 -3.98551 0.315716 0
M  V30 7417 H 663.195 -4.18105 -0.704581 0
M  V30 7418 C 661.654 -2.9774 -1.57646 0
M  V30 7419 O 662.184 -2.99618 -2.67567 0
M  V30 7420 N 660.39 -2.53485 -1.42105 0
M  V30 7421 H 659.937 -2.52156 -0.526783 0
M  V30 7422 H 659.895 -2.21747 -2.22881 0
M  V30 7423 N 663.667 -0.670007 -1.42649 0
M  V30 7424 C 664.914 -0.190286 -2.01604 0
M  V30 7425 C 665.242 1.20155 -1.52948 0
M  V30 7426 O 664.497 1.81964 -0.72026 0
M  V30 7427 C 664.796 -0.168298 -3.57004 0
M  V30 7428 C 664.462 -1.50415 -4.25072 0
M  V30 7429 C 663.124 -1.86992 -4.43382 0
M  V30 7430 C 665.476 -2.38414 -4.63474 0
M  V30 7431 C 662.804 -3.11203 -4.97363 0
M  V30 7432 C 665.156 -3.61933 -5.18833 0
M  V30 7433 C 663.82 -3.98685 -5.35356 0
M  V30 7434 H 663.09 -0.0696305 -0.737721 0
M  V30 7435 H 665.737 -0.864044 -1.70899 0
M  V30 7436 H 664.042 0.588958 -3.87348 0
M  V30 7437 H 665.739 0.22001 -4.00396 0
M  V30 7438 H 662.329 -1.20959 -4.11177 0
M  V30 7439 H 666.513 -2.11442 -4.49006 0
M  V30 7440 H 661.769 -3.39705 -5.08341 0
M  V30 7441 H 665.943 -4.30326 -5.47533 0
M  V30 7442 H 663.57 -4.95009 -5.76949 0
M  V30 7443 N 665.145 1.52092 -0.413018 0
M  V30 7444 C 666.393 2.01456 0.161178 0
M  V30 7445 C 666.714 1.30034 1.45314 0
M  V30 7446 O 665.984 0.427435 1.9118 0
M  V30 7447 H 664.564 0.744376 0.0625526 0
M  V30 7448 H 667.226 1.86974 -0.550151 0
M  V30 7449 H 666.322 3.1008 0.354517 0
M  V30 7450 N 666.623 0.143563 1.56945 0
M  V30 7451 C 667.87 -0.508407 1.96014 0
M  V30 7452 C 668.198 -1.65099 1.02824 0
M  V30 7453 O 667.453 -1.95618 0.0567764 0
M  V30 7454 C 667.752 -1.05885 3.41355 0
M  V30 7455 C 667.418 -0.0350809 4.50886 0
M  V30 7456 C 666.08 0.246362 4.80569 0
M  V30 7457 C 668.432 0.661282 5.16988 0
M  V30 7458 C 665.76 1.23003 5.73661 0
M  V30 7459 C 668.112 1.63375 6.11139 0
M  V30 7460 C 666.776 1.92292 6.39203 0
M  V30 7461 H 666.046 -0.186039 0.717266 0
M  V30 7462 H 668.693 0.229667 1.90118 0
M  V30 7463 H 666.998 -1.87419 3.44066 0
M  V30 7464 H 668.695 -1.57183 3.6891 0
M  V30 7465 H 665.285 -0.264622 4.27782 0
M  V30 7466 H 669.469 0.457038 4.94191 0
M  V30 7467 H 664.725 1.46056 5.93698 0
M  V30 7468 H 668.899 2.17887 6.61436 0
M  V30 7469 H 666.526 2.68666 7.11142 0
M  V30 7470 N 668.101 -1.57061 -0.130224 0
M  V30 7471 C 669.378 -1.75205 -0.869631 0
M  V30 7472 C 669.758 -0.716063 -1.98584 0
M  V30 7473 O 669.106 0.262032 -2.26993 0
M  V30 7474 C 669.316 -3.19835 -1.39666 0
M  V30 7475 C 670.664 -3.82011 -1.85345 0
M  V30 7476 O 671.688 -3.23368 -1.49371 0
M  V30 7477 O 670.547 -4.85064 -2.51744 0
M  V30 7478 H 667.641 -0.716977 -0.412157 0
M  V30 7479 H 670.187 -1.69311 -0.11484 0
M  V30 7480 H 668.959 -3.86745 -0.595288 0
M  V30 7481 H 668.582 -3.30222 -2.21448 0
M  V30 7482 N 669.579 0.400081 -1.52437 0
M  V30 7483 C 670.509 1.4947 -1.7939 0
M  V30 7484 C 671.49 1.57383 -0.645329 0
M  V30 7485 O 672.675 1.72511 -0.891826 0
M  V30 7486 C 669.805 2.87201 -1.95276 0
M  V30 7487 C 668.759 2.94134 -3.10917 0
M  V30 7488 C 668.085 4.34207 -3.1204 0
M  V30 7489 C 669.385 2.64791 -4.50203 0
M  V30 7490 H 671.079 1.27165 -2.71052 0
M  V30 7491 H 668.625 0.610312 -1.30427 0
M  V30 7492 H 670.578 3.63772 -2.12715 0
M  V30 7493 H 669.302 3.10819 -1.00294 0
M  V30 7494 H 667.961 2.20009 -2.93243 0
M  V30 7495 H 667.609 4.54848 -2.14761 0
M  V30 7496 H 667.309 4.39768 -3.89715 0
M  V30 7497 H 668.833 5.127 -3.31619 0
M  V30 7498 H 670.247 3.31083 -4.68035 0
M  V30 7499 H 668.644 2.81717 -5.29864 0
M  V30 7500 H 669.714 1.60184 -4.57678 0
M  V30 7501 N 671.057 1.43213 0.657864 0
M  V30 7502 C 672.468 1.39669 1.23893 0
M  V30 7503 C 672.819 0.0984217 1.95953 0
M  V30 7504 O 671.944 -0.8023 2.00978 0
M  V30 7505 C 672.539 2.53004 2.25332 0
M  V30 7506 C 671.098 2.5274 2.78926 0
M  V30 7507 C 670.245 2.30941 1.53497 0
M  V30 7508 H 673.196 1.52181 0.450172 0
M  V30 7509 H 673.217 2.24226 3.07413 0
M  V30 7510 H 672.729 3.4748 1.72856 0
M  V30 7511 H 670.83 1.6213 3.35477 0
M  V30 7512 H 670.943 3.50352 3.26787 0
M  V30 7513 H 669.307 1.7952 1.80678 0
M  V30 7514 H 670.09 3.27496 1.02963 0
M  V30 7515 N 672.536 -0.895792 1.29666 0
M  V30 7516 C 673.499 -1.98189 1.15124 0
M  V30 7517 C 674.499 -1.60572 0.0855717 0
M  V30 7518 O 675.689 -1.70991 0.332826 0
M  V30 7519 C 672.821 -3.32289 0.761372 0
M  V30 7520 H 674.014 -2.12518 2.11603 0
M  V30 7521 H 671.567 -1.0808 1.12908 0
M  V30 7522 H 672.302 -3.23662 -0.203393 0
M  V30 7523 H 672.087 -3.60958 1.53139 0
M  V30 7524 H 673.577 -4.1198 0.682792 0
M  V30 7525 N 674.014 -1.12206 -1.10668 0
M  V30 7526 C 675.26 -0.877172 -1.82848 0
M  V30 7527 C 675.593 0.595571 -1.84842 0
M  V30 7528 O 674.868 1.44013 -1.30731 0
M  V30 7529 C 675.151 -1.44957 -3.29635 0
M  V30 7530 C 675.004 -2.99051 -3.35989 0
M  V30 7531 C 676.323 -1.10714 -4.25946 0
M  V30 7532 H 673.442 -0.320103 -0.663854 0
M  V30 7533 H 676.084 -1.38827 -1.2972 0
M  V30 7534 H 674.234 -1.01488 -3.7501 0
M  V30 7535 H 675.906 -3.51182 -2.99113 0
M  V30 7536 H 674.149 -3.34705 -2.75962 0
M  V30 7537 H 674.82 -3.34194 -4.39339 0
M  V30 7538 H 677.296 -1.48254 -3.88793 0
M  V30 7539 H 676.172 -1.5343 -5.2702 0
M  V30 7540 H 676.433 -0.019 -4.42096 0
M  V30 7541 N 675.492 1.28418 -0.913599 0
M  V30 7542 C 676.402 2.31043 -0.406965 0
M  V30 7543 C 677.418 1.66501 0.505298 0
M  V30 7544 O 678.594 1.97558 0.391522 0
M  V30 7545 C 675.659 3.4498 0.344901 0
M  V30 7546 C 674.72 4.25078 -0.600563 0
M  V30 7547 C 673.953 5.33575 0.115516 0
M  V30 7548 O 674.176 5.54503 1.33727 0
M  V30 7549 O 673.11 5.9939 -0.549095 0
M  V30 7550 H 676.936 2.76387 -1.25873 0
M  V30 7551 H 674.521 1.33109 -0.678415 0
M  V30 7552 H 676.403 4.14314 0.769542 0
M  V30 7553 H 675.078 3.01719 1.1725 0
M  V30 7554 H 673.985 3.58334 -1.0746 0
M  V30 7555 H 675.318 4.72018 -1.39497 0
M  V30 7556 N 676.97 0.677563 1.42291 0
M  V30 7557 C 677.933 0.0101085 2.29198 0
M  V30 7558 C 678.933 -0.726219 1.43467 0
M  V30 7559 O 680.123 -0.563807 1.64824 0
M  V30 7560 C 677.255 -0.996316 3.26016 0
M  V30 7561 H 678.448 0.775071 2.89711 0
M  V30 7562 H 676.001 0.440065 1.49977 0
M  V30 7563 H 676.736 -1.78967 2.70446 0
M  V30 7564 H 676.521 -0.471687 3.89253 0
M  V30 7565 H 678.011 -1.46167 3.91184 0
M  V30 7566 N 678.448 -1.51871 0.421078 0
M  V30 7567 C 679.411 -2.25914 -0.386712 0
M  V30 7568 C 680.411 -1.28733 -0.963555 0
M  V30 7569 O 681.601 -1.52579 -0.840556 0
M  V30 7570 C 678.733 -3.03853 -1.54551 0
M  V30 7571 H 679.926 -2.98754 0.261978 0
M  V30 7572 H 677.479 -1.5533 0.173862 0
M  V30 7573 H 678.214 -2.35392 -2.23072 0
M  V30 7574 H 677.999 -3.75215 -1.13824 0
M  V30 7575 H 679.489 -3.59984 -2.11663 0
M  V30 7576 N 679.926 -0.151884 -1.56866 0
M  V30 7577 C 681.154 0.504813 -2.00647 0
M  V30 7578 C 681.569 1.58098 -1.03201 0
M  V30 7579 O 680.926 1.82476 -0.0297814 0
M  V30 7580 C 680.977 1.10099 -3.44326 0
M  V30 7581 O 680.698 0.0678021 -4.38048 0
M  V30 7582 C 682.199 1.83782 -4.03409 0
M  V30 7583 H 679.419 0.130989 -0.65809 0
M  V30 7584 H 681.963 -0.247903 -2.02992 0
M  V30 7585 H 680.118 1.8043 -3.42817 0
M  V30 7586 H 680.532 0.505237 -5.22061 0
M  V30 7587 H 682.006 2.2078 -5.05925 0
M  V30 7588 H 682.483 2.72557 -3.44397 0
M  V30 7589 H 683.089 1.18138 -4.08563 0
M  V30 7590 N 681.404 1.57128 0.121893 0
M  V30 7591 C 682.351 2.0013 1.14964 0
M  V30 7592 C 683.321 0.872959 1.4131 0
M  V30 7593 O 684.506 1.13696 1.53225 0
M  V30 7594 C 681.646 2.40824 2.4718 0
M  V30 7595 C 680.759 3.67061 2.27794 0
M  V30 7596 C 679.894 3.96749 3.53219 0
M  V30 7597 C 678.933 5.16178 3.28978 0
M  V30 7598 N 678.07 5.41751 4.46599 0
M  V30 7599 H 682.91 2.8772 0.775947 0
M  V30 7600 H 680.447 1.42328 0.371652 0
M  V30 7601 H 682.405 2.62454 3.24305 0
M  V30 7602 H 681.035 1.56279 2.82448 0
M  V30 7603 H 680.087 3.53063 1.416 0
M  V30 7604 H 681.399 4.5434 2.05857 0
M  V30 7605 H 680.553 4.19012 4.38764 0
M  V30 7606 H 679.292 3.07941 3.78185 0
M  V30 7607 H 678.297 4.93762 2.41824 0
M  V30 7608 H 679.522 6.06561 3.05386 0
M  V30 7609 H 677.468 4.55899 4.71691 0
M  V30 7610 H 677.385 6.23347 4.27756 0
M  V30 7611 H 678.653 5.68531 5.33285 0
M  V30 7612 N 682.882 -0.391992 1.52647 0
M  V30 7613 C 683.829 -1.47866 1.77213 0
M  V30 7614 C 684.799 -1.54286 0.615223 0
M  V30 7615 O 685.984 -1.7059 0.854622 0
M  V30 7616 C 683.124 -2.85129 1.94411 0
M  V30 7617 C 682.237 -2.87883 3.22098 0
M  V30 7618 C 681.372 -4.16553 3.29631 0
M  V30 7619 C 680.411 -4.13348 4.51453 0
M  V30 7620 N 679.548 -5.33619 4.56284 0
M  V30 7621 H 684.388 -1.26219 2.6995 0
M  V30 7622 H 681.925 -0.612367 1.33748 0
M  V30 7623 H 683.883 -3.64833 2.02367 0
M  V30 7624 H 682.513 -3.05232 1.05038 0
M  V30 7625 H 681.565 -2.00567 3.23229 0
M  V30 7626 H 682.877 -2.81382 4.11856 0
M  V30 7627 H 682.031 -5.0466 3.36753 0
M  V30 7628 H 680.77 -4.25773 2.37842 0
M  V30 7629 H 679.775 -3.23629 4.44459 0
M  V30 7630 H 681 -4.05754 5.44555 0
M  V30 7631 H 678.946 -5.43474 3.67385 0
M  V30 7632 H 678.863 -5.29182 5.3991 0
M  V30 7633 H 680.131 -6.23632 4.67657 0
M  V30 7634 N 684.36 -1.4356 -0.65026 0
M  V30 7635 C 685.31 -1.45392 -1.75628 0
M  V30 7636 C 686.294 -0.322006 -1.57645 0
M  V30 7637 O 687.486 -0.565996 -1.67707 0
M  V30 7638 C 684.615 -1.38254 -3.1423 0
M  V30 7639 C 683.701 -2.56487 -3.3775 0
M  V30 7640 N 684.092 -3.81824 -3.31729 0
M  V30 7641 C 682.39 -2.51274 -3.6848 0
M  V30 7642 C 683.091 -4.60497 -3.55412 0
M  V30 7643 N 682.067 -3.91274 -3.77367 0
M  V30 7644 H 685.869 -2.40167 -1.69402 0
M  V30 7645 H 683.383 -1.38254 -0.852037 0
M  V30 7646 H 685.38 -1.3765 -3.9352 0
M  V30 7647 H 684.04 -0.445019 -3.21636 0
M  V30 7648 H 685.051 -4.14069 -3.11074 0
M  V30 7649 H 681.728 -1.66223 -3.82983 0
M  V30 7650 H 683.118 -5.69518 -3.5651 0
M  V30 7651 N 685.838 0.888903 -1.30139 0
M  V30 7652 C 686.748 2.02705 -1.18101 0
M  V30 7653 C 687.764 1.73702 -0.101809 0
M  V30 7654 O 688.94 1.98906 -0.315984 0
M  V30 7655 C 686.005 3.35616 -0.869651 0
M  V30 7656 C 685.066 3.78067 -2.03381 0
M  V30 7657 C 684.299 5.04635 -1.73721 0
M  V30 7658 O 684.522 5.66531 -0.663267 0
M  V30 7659 O 683.456 5.43399 -2.58845 0
M  V30 7660 H 687.282 2.15788 -2.13704 0
M  V30 7661 H 684.867 1.01426 -1.09695 0
M  V30 7662 H 686.749 4.15358 -0.711043 0
M  V30 7663 H 685.424 3.23651 0.0565002 0
M  V30 7664 H 684.331 2.99046 -2.24772 0
M  V30 7665 H 685.664 3.94631 -2.94155 0
M  V30 7666 N 687.317 1.12792 1.10072 0
M  V30 7667 C 688.28 0.802264 2.14701 0
M  V30 7668 C 689.28 -0.18515 1.59731 0
M  V30 7669 O 690.47 0.041109 1.74151 0
M  V30 7670 C 687.602 0.19285 3.40354 0
M  V30 7671 H 688.795 1.72932 2.45019 0
M  V30 7672 H 686.348 0.931662 1.25498 0
M  V30 7673 H 687.083 -0.743748 3.15656 0
M  V30 7674 H 686.868 0.903827 3.81541 0
M  V30 7675 H 688.358 -0.0183704 4.17596 0
M  V30 7676 N 688.795 -1.27931 0.920396 0
M  V30 7677 C 690.044 -1.93975 0.552867 0
M  V30 7678 C 690.357 -1.73193 -0.909035 0
M  V30 7679 O 691.563 -2.33515 -1.38502 0
M  V30 7680 C 690.019 -3.47463 0.937947 0
M  V30 7681 C 689.627 -3.77013 2.42003 0
M  V30 7682 C 691.371 -4.19628 0.64132 0
M  V30 7683 C 689.278 -5.23841 2.74489 0
M  V30 7684 H 688.208 -0.726146 0.203046 0
M  V30 7685 H 690.859 -1.45339 1.12022 0
M  V30 7686 H 689.241 -3.94867 0.299317 0
M  V30 7687 H 690.415 -3.40393 3.10595 0
M  V30 7688 H 688.73 -3.18035 2.6878 0
M  V30 7689 H 691.327 -5.27729 0.860622 0
M  V30 7690 H 691.67 -4.14164 -0.421168 0
M  V30 7691 H 692.203 -3.78022 1.23872 0
M  V30 7692 H 688.942 -5.34388 3.79618 0
M  V30 7693 H 688.462 -5.61634 2.1054 0
M  V30 7694 H 690.141 -5.91647 2.61845 0
M  V30 7695 N 690.273 -0.685099 -1.4193 0
M  V30 7696 C 691.183 -0.013404 -2.34596 0
M  V30 7697 C 692.199 0.777589 -1.55658 0
M  V30 7698 O 693.375 0.717553 -1.88184 0
M  V30 7699 C 690.44 0.919031 -3.34297 0
M  V30 7700 C 689.501 0.121417 -4.29128 0
M  V30 7701 C 688.734 1.00944 -5.24067 0
M  V30 7702 O 688.957 2.24898 -5.24192 0
M  V30 7703 O 687.891 0.464724 -6.00103 0
M  V30 7704 H 691.717 -0.776978 -2.93593 0
M  V30 7705 H 689.302 -0.445379 -1.42607 0
M  V30 7706 H 691.184 1.45402 -3.9552 0
M  V30 7707 H 689.859 1.66228 -2.77759 0
M  V30 7708 H 688.766 -0.45792 -3.71287 0
M  V30 7709 H 690.099 -0.582937 -4.88736 0
M  V30 7710 N 691.751 1.51645 -0.429126 0
M  V30 7711 C 692.979 2.06433 0.138994 0
M  V30 7712 C 693.394 1.29735 1.37165 0
M  V30 7713 O 692.751 0.354638 1.79021 0
M  V30 7714 C 692.802 3.58439 0.469452 0
M  V30 7715 O 692.523 4.32238 -0.714273 0
M  V30 7716 C 694.024 4.29712 1.08914 0
M  V30 7717 H 691.244 0.6709 0.0115608 0
M  V30 7718 H 693.788 1.9532 -0.605843 0
M  V30 7719 H 691.943 3.69494 1.16419 0
M  V30 7720 H 692.357 5.22704 -0.433633 0
M  V30 7721 H 693.831 5.37182 1.27042 0
M  V30 7722 H 694.308 3.87473 2.06788 0
M  V30 7723 H 694.914 4.2308 0.434028 0
M  V30 7724 N 693.229 0.160201 1.56784 0
M  V30 7725 C 694.506 -0.533355 1.88188 0
M  V30 7726 C 694.886 -1.82072 1.06831 0
M  V30 7727 O 694.234 -2.27946 0.158959 0
M  V30 7728 C 694.444 -0.786034 3.40033 0
M  V30 7729 C 695.792 -1.12097 4.09536 0
M  V30 7730 O 696.816 -0.874949 3.45287 0
M  V30 7731 O 695.675 -1.58457 5.23023 0
M  V30 7732 H 692.769 -0.273589 0.780434 0
M  V30 7733 H 695.315 0.197803 1.68543 0
M  V30 7734 H 694.087 0.124515 3.91102 0
M  V30 7735 H 693.71 -1.57091 3.65251 0
M  V30 7736 N 694.707 -1.5719 -0.113559 0
M  V30 7737 C 695.956 -1.84325 -0.818984 0
M  V30 7738 C 696.269 -0.746685 -1.80787 0
M  V30 7739 O 697.475 -0.904596 -2.55987 0
M  V30 7740 C 695.931 -3.26818 -1.50724 0
M  V30 7741 C 695.539 -4.44498 -0.559065 0
M  V30 7742 C 697.283 -3.63196 -2.19748 0
M  V30 7743 C 695.19 -5.7802 -1.25086 0
M  V30 7744 H 694.12 -0.687507 -0.309596 0
M  V30 7745 H 696.771 -1.8336 -0.0717621 0
M  V30 7746 H 695.153 -3.22269 -2.30128 0
M  V30 7747 H 696.327 -4.60356 0.202146 0
M  V30 7748 H 694.642 -4.16393 0.024495 0
M  V30 7749 H 697.239 -4.60226 -2.72206 0
M  V30 7750 H 697.582 -2.90899 -2.97798 0
M  V30 7751 H 698.115 -3.69553 -1.47226 0
M  V30 7752 H 694.854 -6.53501 -0.511539 0
M  V30 7753 H 694.374 -5.66038 -1.98395 0
M  V30 7754 H 696.053 -6.2196 -1.78253 0
M  V30 7755 N 696.185 0.383891 -1.52853 0
M  V30 7756 C 697.148 1.45197 -1.77343 0
M  V30 7757 C 698.148 1.47362 -0.643522 0
M  V30 7758 O 699.338 1.48443 -0.911613 0
M  V30 7759 C 696.47 2.8445 -1.87885 0
M  V30 7760 H 697.663 1.24764 -2.72716 0
M  V30 7761 H 695.216 0.615939 -1.43652 0
M  V30 7762 H 695.951 3.10222 -0.94515 0
M  V30 7763 H 695.736 2.8428 -2.70051 0
M  V30 7764 H 697.226 3.61832 -2.08488 0
M  V30 7765 N 697.663 1.43903 0.642637 0
M  V30 7766 C 698.626 1.49538 1.73698 0
M  V30 7767 C 699.626 0.378776 1.56275 0
M  V30 7768 O 700.816 0.64095 1.6198 0
M  V30 7769 C 697.948 1.35821 3.12675 0
M  V30 7770 H 699.141 2.47008 1.70079 0
M  V30 7771 H 696.694 1.30824 0.85526 0
M  V30 7772 H 697.429 0.393994 3.21898 0
M  V30 7773 H 697.214 2.16776 3.26727 0
M  V30 7774 H 698.704 1.4272 3.92455 0
M  V30 7775 N 699.141 -0.881989 1.30609 0
M  V30 7776 C 700.371 -1.66469 1.22359 0
M  V30 7777 C 700.779 -1.87969 -0.215507 0
M  V30 7778 O 700.122 -1.42938 -1.15388 0
M  V30 7779 C 700.184 -3.06135 1.88472 0
M  V30 7780 C 699.848 -3.07795 3.37804 0
M  V30 7781 C 700.845 -2.86633 4.33749 0
M  V30 7782 C 698.53 -3.29297 3.793 0
M  V30 7783 C 700.524 -2.86934 5.69164 0
M  V30 7784 C 698.211 -3.29228 5.14832 0
M  V30 7785 C 699.209 -3.08071 6.09574 0
M  V30 7786 O 698.897 -3.07824 7.4263 0
M  V30 7787 H 698.629 -0.526129 0.424458 0
M  V30 7788 H 701.183 -1.11004 1.72821 0
M  V30 7789 H 699.413 -3.63276 1.32543 0
M  V30 7790 H 701.102 -3.66571 1.74301 0
M  V30 7791 H 701.868 -2.69814 4.0302 0
M  V30 7792 H 697.747 -3.44799 3.05998 0
M  V30 7793 H 701.291 -2.70339 6.43088 0
M  V30 7794 H 697.188 -3.45583 5.452 0
M  V30 7795 H 697.956 -3.2397 7.51656 0
M  V30 7796 N 700.619 -1.13374 -1.09472 0
M  V30 7797 C 701.529 -0.824029 -2.19652 0
M  V30 7798 C 702.545 0.19118 -1.72947 0
M  V30 7799 O 703.721 0.0223464 -2.01388 0
M  V30 7800 C 700.786 -0.294009 -3.45451 0
M  V30 7801 C 699.847 -1.3704 -4.0684 0
M  V30 7802 C 699.08 -0.86558 -5.26634 0
M  V30 7803 O 699.303 0.29702 -5.69626 0
M  V30 7804 O 698.237 -1.63968 -5.79136 0
M  V30 7805 H 702.063 -1.74454 -2.48595 0
M  V30 7806 H 699.648 -0.911155 -1.18399 0
M  V30 7807 H 701.53 -0.00381039 -4.214 0
M  V30 7808 H 700.205 0.598921 -3.18111 0
M  V30 7809 H 699.112 -1.71391 -3.3253 0
M  V30 7810 H 700.445 -2.23746 -4.38405 0
M  V30 7811 N 702.098 1.27442 -0.927168 0
M  V30 7812 C 703.008 2.30599 -0.431448 0
M  V30 7813 C 704.024 1.67028 0.48761 0
M  V30 7814 O 705.2 1.97962 0.370546 0
M  V30 7815 C 702.265 3.45327 0.308292 0
M  V30 7816 C 701.326 4.24418 -0.645615 0
M  V30 7817 C 700.559 5.33667 0.0589164 0
M  V30 7818 O 700.782 5.5589 1.27838 0
M  V30 7819 O 699.716 5.98774 -0.612638 0
M  V30 7820 H 703.542 2.75036 -1.28797 0
M  V30 7821 H 701.127 1.32382 -0.692495 0
M  V30 7822 H 703.009 4.15107 0.725555 0
M  V30 7823 H 701.684 3.02945 1.14043 0
M  V30 7824 H 700.591 3.57174 -1.11255 0
M  V30 7825 H 701.924 4.70512 -1.44496 0
M  V30 7826 N 703.576 0.692616 1.41565 0
M  V30 7827 C 704.992 0.363878 1.55397 0
M  V30 7828 C 705.192 -1.1294 1.66874 0
M  V30 7829 O 704.248 -1.91517 1.64552 0
M  V30 7830 C 705.561 1.10982 2.7947 0
M  V30 7831 C 707.109 1.09387 2.93263 0
M  V30 7832 C 707.584 1.8215 4.20221 0
M  V30 7833 N 709.075 1.79105 4.27172 0
M  V30 7834 C 709.81 2.32247 5.2426 0
M  V30 7835 N 709.306 2.93847 6.27396 0
M  V30 7836 N 711.099 2.22519 5.1618 0
M  V30 7837 H 703.25 1.66116 1.3236 0
M  V30 7838 H 705.513 0.700848 0.63837 0
M  V30 7839 H 705.219 2.1647 2.77188 0
M  V30 7840 H 705.093 0.686492 3.709 0
M  V30 7841 H 707.48 0.0472638 2.95062 0
M  V30 7842 H 707.561 1.55623 2.03015 0
M  V30 7843 H 707.205 2.86789 4.19183 0
M  V30 7844 H 707.135 1.33351 5.09436 0
M  V30 7845 H 709.626 1.34191 3.53272 0
M  V30 7846 H 709.939 3.31972 6.97864 0
M  V30 7847 H 708.284 2.97924 6.27906 0
M  V30 7848 H 711.475 1.7407 4.34531 0
M  V30 7849 H 711.648 2.64239 5.91677 0
M  V30 7850 N 705.054 -1.51416 0.437162 0
M  V30 7851 C 706.3 -2.02386 -0.129555 0
M  V30 7852 C 706.633 -1.32071 -1.42376 0
M  V30 7853 O 705.908 -0.43559 -1.8956 0
M  V30 7854 C 706.191 -3.5841 -0.348487 0
M  V30 7855 C 706.044 -4.39341 0.964352 0
M  V30 7856 C 707.363 -4.25654 -1.11834 0
M  V30 7857 H 704.482 -0.735587 -0.0456109 0
M  V30 7858 H 707.124 -1.81055 0.576124 0
M  V30 7859 H 705.274 -3.76716 -0.949592 0
M  V30 7860 H 706.946 -4.32685 1.59942 0
M  V30 7861 H 705.189 -4.04432 1.56898 0
M  V30 7862 H 705.86 -5.4667 0.765212 0
M  V30 7863 H 708.336 -4.11617 -0.609165 0
M  V30 7864 H 707.212 -5.34704 -1.24029 0
M  V30 7865 H 707.473 -3.86502 -2.14636 0
M  V30 7866 N 706.532 -0.168513 -1.56696 0
M  V30 7867 C 707.464 0.794249 -2.14998 0
M  V30 7868 C 708.477 1.1957 -1.10485 0
M  V30 7869 O 709.666 1.13604 -1.37682 0
M  V30 7870 C 706.766 2.08018 -2.67547 0
M  V30 7871 C 705.939 1.84274 -3.96689 0
M  V30 7872 C 704.998 2.97059 -4.3433 0
M  V30 7873 O 704.024 2.67815 -5.02259 0
M  V30 7874 N 705.226 4.24775 -3.9566 0
M  V30 7875 H 707.991 0.295832 -2.98236 0
M  V30 7876 H 705.552 0.0143611 -1.61894 0
M  V30 7877 H 707.544 2.82559 -2.89729 0
M  V30 7878 H 706.114 2.49059 -1.88914 0
M  V30 7879 H 705.334 0.936528 -3.82914 0
M  V30 7880 H 706.622 1.65773 -4.81037 0
M  V30 7881 H 706.02 4.51395 -3.40968 0
M  V30 7882 H 704.577 4.96027 -4.22848 0
M  V30 7883 N 708.01 1.57248 0.105221 0
M  V30 7884 C 708.973 2.00388 1.11252 0
M  V30 7885 C 709.973 0.89594 1.33527 0
M  V30 7886 O 711.163 1.16166 1.29811 0
M  V30 7887 C 708.295 2.35589 2.46395 0
M  V30 7888 H 709.488 2.90591 0.741424 0
M  V30 7889 H 707.041 1.52332 0.349956 0
M  V30 7890 H 707.776 1.4831 2.884 0
M  V30 7891 H 707.561 3.16408 2.31578 0
M  V30 7892 H 709.051 2.69658 3.18864 0
M  V30 7893 N 709.488 -0.375779 1.53054 0
M  V30 7894 C 710.734 -1.12114 1.68992 0
M  V30 7895 C 711.067 -1.8926 0.435238 0
M  V30 7896 O 710.342 -1.86044 -0.567278 0
M  V30 7897 C 710.625 -2.08867 2.93337 0
M  V30 7898 C 710.478 -1.35397 4.28938 0
M  V30 7899 C 711.797 -3.09124 3.13257 0
M  V30 7900 H 708.916 -0.406207 0.614951 0
M  V30 7901 H 711.558 -0.403054 1.85676 0
M  V30 7902 H 709.708 -2.70102 2.79244 0
M  V30 7903 H 711.38 -0.770242 4.54824 0
M  V30 7904 H 709.623 -0.655801 4.28814 0
M  V30 7905 H 710.294 -2.06161 5.12056 0
M  V30 7906 H 712.77 -2.57987 3.26469 0
M  V30 7907 H 711.646 -3.74054 4.01715 0
M  V30 7908 H 711.907 -3.78729 2.28072 0
M  V30 7909 N 710.966 -1.44241 -0.634997 0
M  V30 7910 C 712.212 -1.47038 -1.39669 0
M  V30 7911 C 712.545 -0.101122 -1.93937 0
M  V30 7912 O 711.82 0.880699 -1.73418 0
M  V30 7913 C 712.103 -2.52763 -2.56482 0
M  V30 7914 C 711.956 -3.99032 -2.07589 0
M  V30 7915 C 713.275 -2.55031 -3.58674 0
M  V30 7916 H 710.394 -0.53537 -0.506506 0
M  V30 7917 H 713.036 -1.75898 -0.718317 0
M  V30 7918 H 711.186 -2.28284 -3.14354 0
M  V30 7919 H 712.858 -4.3463 -1.54577 0
M  V30 7920 H 711.101 -4.10994 -1.38804 0
M  V30 7921 H 711.772 -4.68649 -2.91671 0
M  V30 7922 H 714.248 -2.76893 -3.10595 0
M  V30 7923 H 713.124 -3.30916 -4.37934 0
M  V30 7924 H 713.385 -1.59085 -4.12486 0
M  V30 7925 N 712.444 0.87505 -1.31075 0
M  V30 7926 C 713.407 1.96333 -1.18263 0
M  V30 7927 C 714.407 1.60416 -0.111106 0
M  V30 7928 O 715.597 1.7044 -0.359987 0
M  V30 7929 C 712.729 3.31036 -0.81414 0
M  V30 7930 H 713.922 2.09125 -2.14958 0
M  V30 7931 H 711.475 1.06271 -1.14614 0
M  V30 7932 H 712.21 3.23944 0.151875 0
M  V30 7933 H 711.995 3.58476 -1.58862 0
M  V30 7934 H 713.485 4.10842 -0.748249 0
M  V30 7935 N 713.922 1.13953 1.08869 0
M  V30 7936 C 715.168 0.906151 1.8143 0
M  V30 7937 C 715.501 -0.566089 1.85766 0
M  V30 7938 O 714.776 -1.41915 1.33006 0
M  V30 7939 C 715.059 1.50183 3.27287 0
M  V30 7940 C 714.912 3.04359 3.31189 0
M  V30 7941 C 716.231 1.17477 4.24131 0
M  V30 7942 H 713.35 0.330624 0.658678 0
M  V30 7943 H 715.992 1.40873 1.27495 0
M  V30 7944 H 714.142 1.07442 3.73348 0
M  V30 7945 H 715.814 3.55896 2.93488 0
M  V30 7946 H 714.057 3.39053 2.70602 0
M  V30 7947 H 714.728 3.41141 4.33966 0
M  V30 7948 H 717.204 1.5442 3.86385 0
M  V30 7949 H 716.08 1.61795 5.24513 0
M  V30 7950 H 716.341 0.0893312 4.4201 0
M  V30 7951 N 715.4 -1.26948 0.933913 0
M  V30 7952 C 716.363 -2.24889 0.442457 0
M  V30 7953 C 717.363 -1.54594 -0.442426 0
M  V30 7954 O 718.553 -1.72502 -0.242629 0
M  V30 7955 C 715.685 -3.3896 -0.363173 0
M  V30 7956 H 716.878 -2.69879 1.30787 0
M  V30 7957 H 714.431 -1.38978 0.715187 0
M  V30 7958 H 715.166 -2.99361 -1.24714 0
M  V30 7959 H 714.951 -3.9116 0.271366 0
M  V30 7960 H 716.441 -4.11739 -0.697186 0
M  V30 7961 N 716.879 -0.700114 -1.41195 0
M  V30 7962 C 718.295 -0.372114 -1.55201 0
M  V30 7963 C 718.495 1.12053 -1.6747 0
M  V30 7964 O 717.551 1.90642 -1.65566 0
M  V30 7965 C 718.864 -1.12462 -2.78878 0
M  V30 7966 C 720.412 -1.10941 -2.92679 0
M  V30 7967 C 720.887 -1.84376 -4.19249 0
M  V30 7968 N 722.378 -1.81368 -4.26216 0
M  V30 7969 C 723.113 -2.35024 -5.23021 0
M  V30 7970 N 722.609 -2.9717 -6.25829 0
M  V30 7971 N 724.402 -2.25254 -5.14992 0
M  V30 7972 H 716.553 -1.66816 -1.31477 0
M  V30 7973 H 718.816 -0.704223 -0.634644 0
M  V30 7974 H 718.522 -2.17937 -2.76037 0
M  V30 7975 H 718.396 -0.706152 -3.70531 0
M  V30 7976 H 720.783 -0.062911 -2.95033 0
M  V30 7977 H 720.864 -1.56698 -2.02187 0
M  V30 7978 H 720.508 -2.89008 -4.17656 0
M  V30 7979 H 720.438 -1.3605 -5.08722 0
M  V30 7980 H 722.929 -1.36062 -3.52556 0
M  V30 7981 H 723.242 -3.35668 -6.96094 0
M  V30 7982 H 721.587 -3.01249 -6.26318 0
M  V30 7983 H 724.778 -1.76372 -4.33602 0
M  V30 7984 H 724.951 -2.67373 -5.90268 0
M  V30 7985 N 718.357 1.51182 -0.445186 0
M  V30 7986 C 719.267 2.31692 0.368255 0
M  V30 7987 C 720.283 1.40942 1.02036 0
M  V30 7988 O 721.459 1.74011 1.01401 0
M  V30 7989 C 718.524 3.14903 1.45041 0
M  V30 7990 C 717.585 4.21442 0.817615 0
M  V30 7991 C 716.818 5.00677 1.8482 0
M  V30 7992 O 717.041 4.80644 3.07145 0
M  V30 7993 O 715.975 5.84559 1.43438 0
M  V30 7994 H 719.801 3.0232 -0.289219 0
M  V30 7995 H 717.386 1.47951 -0.207555 0
M  V30 7996 H 719.268 3.66612 2.07783 0
M  V30 7997 H 717.943 2.47031 2.09182 0
M  V30 7998 H 716.85 3.73791 0.151931 0
M  V30 7999 H 718.183 4.9171 0.219564 0
M  V30 8000 N 719.835 0.176821 1.56605 0
M  V30 8001 C 720.765 -0.746841 2.21234 0
M  V30 8002 C 721.746 -1.23502 1.16967 0
M  V30 8003 O 722.931 -1.28718 1.45414 0
M  V30 8004 C 720.061 -1.97407 2.8574 0
M  V30 8005 C 719.015 -1.62153 3.96094 0
M  V30 8006 C 718.341 -2.92387 4.47676 0
M  V30 8007 C 719.641 -0.845353 5.15413 0
M  V30 8008 H 721.335 -0.208116 2.98676 0
M  V30 8009 H 718.881 -0.0986594 1.43662 0
M  V30 8010 H 720.834 -2.62531 3.2963 0
M  V30 8011 H 719.558 -2.53703 2.05676 0
M  V30 8012 H 718.217 -0.993964 3.52868 0
M  V30 8013 H 717.865 -3.46734 3.64396 0
M  V30 8014 H 717.565 -2.69551 5.22127 0
M  V30 8015 H 719.089 -3.5853 4.94255 0
M  V30 8016 H 720.503 -1.39929 5.55961 0
M  V30 8017 H 718.9 -0.715814 5.95815 0
M  V30 8018 H 719.97 0.157239 4.84645 0
M  V30 8019 N 721.313 -1.57302 -0.09688 0
M  V30 8020 C 722.223 -2.05258 -1.13606 0
M  V30 8021 C 723.239 -0.977137 -1.43972 0
M  V30 8022 O 724.415 -1.29018 -1.54649 0
M  V30 8023 C 721.48 -2.46593 -2.43706 0
M  V30 8024 C 720.541 -3.68322 -2.20538 0
M  V30 8025 C 719.774 -4.07676 -3.44435 0
M  V30 8026 O 719.997 -3.47141 -4.52603 0
M  V30 8027 O 718.931 -5.00641 -3.34129 0
M  V30 8028 H 722.757 -2.94069 -0.758752 0
M  V30 8029 H 720.342 -1.46164 -0.309263 0
M  V30 8030 H 722.224 -2.73814 -3.20318 0
M  V30 8031 H 720.899 -1.6092 -2.80867 0
M  V30 8032 H 719.806 -3.4622 -1.41713 0
M  V30 8033 H 721.139 -4.54769 -1.88271 0
M  V30 8034 N 722.791 0.367657 -1.53252 0
M  V30 8035 C 723.754 1.43308 -1.78873 0
M  V30 8036 C 724.754 1.46671 -0.659115 0
M  V30 8037 O 725.944 1.47468 -0.927306 0
M  V30 8038 C 723.076 2.82442 -1.90892 0
M  V30 8039 H 724.269 1.21864 -2.74024 0
M  V30 8040 H 721.822 0.600668 -1.44297 0
M  V30 8041 H 722.557 3.09202 -0.978 0
M  V30 8042 H 722.342 2.81399 -2.73051 0
M  V30 8043 H 723.832 3.59601 -2.12314 0
M  V30 8044 N 724.269 1.44576 0.627338 0
M  V30 8045 C 725.179 1.54232 1.76776 0
M  V30 8046 C 726.195 0.427782 1.6866 0
M  V30 8047 O 727.371 0.685671 1.89369 0
M  V30 8048 C 724.436 1.48738 3.13174 0
M  V30 8049 C 723.497 2.71074 3.32893 0
M  V30 8050 C 722.73 2.65832 4.62784 0
M  V30 8051 O 722.953 1.72048 5.43834 0
M  V30 8052 O 721.887 3.56742 4.84787 0
M  V30 8053 H 725.713 2.50586 1.71582 0
M  V30 8054 H 723.298 1.26865 0.789028 0
M  V30 8055 H 725.18 1.48211 3.94476 0
M  V30 8056 H 723.855 0.555292 3.18902 0
M  V30 8057 H 722.762 2.77168 2.51254 0
M  V30 8058 H 724.095 3.63342 3.32029 0
M  V30 8059 N 725.747 -0.868086 1.31537 0
M  V30 8060 C 726.695 -1.99688 1.1928 0
M  V30 8061 C 727.689 -1.69101 0.100656 0
M  V30 8062 O 728.895 -1.78073 0.262677 0
M  V30 8063 H 725.27 -0.655032 0.369374 0
M  V30 8064 H 727.241 -2.07157 2.14776 0
M  V30 8065 C 725.99 -3.35338 0.918892 0
M  V30 8066 H 725.313 -3.59396 1.75142 0
M  V30 8067 H 726.753 -4.14909 0.873311 0
M  V30 8068 C 725.212 -3.34769 -0.378366 0
M  V30 8069 O 725.742 -3.76716 -1.39456 0
M  V30 8070 N 723.948 -2.87895 -0.39557 0
M  V30 8071 H 723.495 -2.53954 0.431889 0
M  V30 8072 H 723.453 -2.87897 -1.26344 0
M  V30 8073 N 727.225 -1.14528 -1.08264 0
M  V30 8074 C 728.455 -0.936604 -1.8415 0
M  V30 8075 C 728.863 0.518298 -1.81962 0
M  V30 8076 O 728.206 1.37096 -1.22272 0
M  V30 8077 C 728.268 -1.36182 -3.32708 0
M  V30 8078 C 727.932 -2.83257 -3.58629 0
M  V30 8079 C 728.929 -3.81366 -3.5335 0
M  V30 8080 C 726.614 -3.20704 -3.86593 0
M  V30 8081 C 728.608 -5.14929 -3.75668 0
M  V30 8082 C 726.295 -4.54443 -4.08564 0
M  V30 8083 C 727.293 -5.51365 -4.03095 0
M  V30 8084 O 726.981 -6.8269 -4.24488 0
M  V30 8085 H 726.713 -0.333254 -0.588148 0
M  V30 8086 H 729.267 -1.5247 -1.3763 0
M  V30 8087 H 727.497 -0.717063 -3.79994 0
M  V30 8088 H 729.186 -1.12372 -3.90035 0
M  V30 8089 H 729.952 -3.53781 -3.31759 0
M  V30 8090 H 725.831 -2.45857 -3.89969 0
M  V30 8091 H 729.375 -5.90568 -3.71315 0
M  V30 8092 H 725.272 -4.81747 -4.29639 0
M  V30 8093 H 726.04 -6.8897 -4.41886 0
M  V30 8094 N 728.703 1.26451 -0.940633 0
M  V30 8095 C 729.653 2.24086 -0.420669 0
M  V30 8096 C 730.637 1.53501 0.482301 0
M  V30 8097 O 731.829 1.74127 0.317636 0
M  V30 8098 C 728.958 3.41866 0.313452 0
M  V30 8099 C 728.044 4.19737 -0.606779 0
M  V30 8100 N 728.435 4.7521 -1.73232 0
M  V30 8101 C 726.733 4.44091 -0.41226 0
M  V30 8102 C 727.434 5.34052 -2.30572 0
M  V30 8103 N 726.41 5.1971 -1.59381 0
M  V30 8104 H 730.212 2.64569 -1.27986 0
M  V30 8105 H 727.726 1.4153 -0.796436 0
M  V30 8106 H 729.723 4.1093 0.702991 0
M  V30 8107 H 728.383 3.0291 1.16942 0
M  V30 8108 H 729.394 4.72769 -2.11447 0
M  V30 8109 H 726.071 4.1556 0.401984 0
M  V30 8110 H 727.461 5.87845 -3.25404 0
M  V30 8111 N 730.181 0.707592 1.40822 0
M  V30 8112 C 731.458 0.171172 1.9485 0
M  V30 8113 C 731.838 -1.32143 1.64625 0
M  V30 8114 O 731.186 -2.07372 0.959647 0
M  V30 8115 C 731.396 0.475334 3.45748 0
M  V30 8116 C 732.744 0.409625 4.22619 0
M  V30 8117 O 733.768 0.410934 3.53822 0
M  V30 8118 O 732.627 0.380185 5.45176 0
M  V30 8119 H 729.721 0.022015 0.826707 0
M  V30 8120 H 732.267 0.784577 1.50474 0
M  V30 8121 H 731.039 1.50801 3.61075 0
M  V30 8122 H 730.662 -0.168439 3.97243 0
M  V30 8123 N 731.66 -1.50943 0.453197 0
M  V30 8124 C 732.909 -2.01402 -0.10951 0
M  V30 8125 C 733.222 -1.3411 -1.42386 0
M  V30 8126 O 734.428 -1.75626 -2.07045 0
M  V30 8127 C 732.884 -3.5906 -0.245693 0
M  V30 8128 C 732.492 -4.353 1.05916 0
M  V30 8129 C 734.236 -4.17617 -0.761318 0
M  V30 8130 C 732.143 -5.84699 0.887752 0
M  V30 8131 H 731.073 -0.752674 -0.0447013 0
M  V30 8132 H 733.724 -1.73913 0.585375 0
M  V30 8133 H 732.106 -3.83062 -1.00395 0
M  V30 8134 H 733.28 -4.23034 1.82698 0
M  V30 8135 H 731.595 -3.88269 1.50452 0
M  V30 8136 H 734.192 -5.26963 -0.906306 0
M  V30 8137 H 734.535 -3.77824 -1.74799 0
M  V30 8138 H 735.068 -3.97753 -0.0609416 0
M  V30 8139 H 731.807 -6.28933 1.84726 0
M  V30 8140 H 731.327 -5.99587 0.160006 0
M  V30 8141 H 733.006 -6.44682 0.547223 0
M  V30 8142 N 733.138 -0.185124 -1.56509 0
M  V30 8143 C 734.085 0.739729 -2.18624 0
M  V30 8144 C 735.055 1.217 -1.13042 0
M  V30 8145 O 736.24 1.28268 -1.41251 0
M  V30 8146 C 733.38 1.95787 -2.84186 0
M  V30 8147 C 732.493 1.52289 -4.04267 0
M  V30 8148 C 731.628 2.69576 -4.57714 0
M  V30 8149 C 730.667 2.22636 -5.70175 0
M  V30 8150 N 729.804 3.33065 -6.18071 0
M  V30 8151 H 734.644 0.203269 -2.97306 0
M  V30 8152 H 732.181 0.0885946 -1.46833 0
M  V30 8153 H 734.139 2.67253 -3.20361 0
M  V30 8154 H 732.769 2.4678 -2.08085 0
M  V30 8155 H 731.821 0.704458 -3.7382 0
M  V30 8156 H 733.133 1.13843 -4.85635 0
M  V30 8157 H 732.287 3.4918 -4.96143 0
M  V30 8158 H 731.026 3.1129 -3.75433 0
M  V30 8159 H 730.031 1.41483 -5.31284 0
M  V30 8160 H 731.256 1.81964 -6.54267 0
M  V30 8161 H 729.202 3.74328 -5.38715 0
M  V30 8162 H 729.119 2.98756 -6.94464 0
M  V30 8163 H 730.387 4.12912 -6.61153 0
M  V30 8164 N 734.616 1.57351 0.0885366 0
M  V30 8165 C 736.032 1.53331 0.442916 0
M  V30 8166 C 736.232 0.902831 1.80142 0
M  V30 8167 O 735.288 0.498147 2.47537 0
M  V30 8168 C 736.601 2.98036 0.399372 0
M  V30 8169 C 738.149 3.09286 0.480759 0
M  V30 8170 C 738.624 4.5561 0.467296 0
M  V30 8171 N 740.115 4.60182 0.52786 0
M  V30 8172 C 740.85 5.70857 0.539388 0
M  V30 8173 N 740.346 6.90944 0.506729 0
M  V30 8174 N 742.139 5.59051 0.584691 0
M  V30 8175 H 734.29 1.96709 -0.801215 0
M  V30 8176 H 736.553 0.899639 -0.298922 0
M  V30 8177 H 736.259 3.47656 -0.531806 0
M  V30 8178 H 736.133 3.57066 1.21589 0
M  V30 8179 H 738.52 2.5965 1.40236 0
M  V30 8180 H 738.601 2.53197 -0.364023 0
M  V30 8181 H 738.245 5.05899 -0.450384 0
M  V30 8182 H 738.175 5.09544 1.32938 0
M  V30 8183 H 740.666 3.73757 0.558028 0
M  V30 8184 H 740.979 7.71055 0.518989 0
M  V30 8185 H 739.324 6.93384 0.473675 0
M  V30 8186 H 742.515 4.64138 0.607781 0
M  V30 8187 H 742.688 6.45307 0.590206 0
M  V30 8188 N 736.094 -0.359525 1.53444 0
M  V30 8189 C 737.343 -1.09886 1.69139 0
M  V30 8190 C 737.656 -1.90285 0.452863 0
M  V30 8191 O 738.862 -2.67033 0.490459 0
M  V30 8192 C 737.318 -2.0028 2.99025 0
M  V30 8193 C 736.926 -1.25164 4.30161 0
M  V30 8194 C 738.67 -2.74168 3.24086 0
M  V30 8195 C 736.577 -2.14494 5.51132 0
M  V30 8196 H 735.507 -0.413936 0.630217 0
M  V30 8197 H 738.158 -0.359434 1.79945 0
M  V30 8198 H 736.54 -2.77978 2.82036 0
M  V30 8199 H 737.714 -0.524867 4.57801 0
M  V30 8200 H 736.029 -0.631116 4.11589 0
M  V30 8201 H 738.626 -3.41243 4.11652 0
M  V30 8202 H 738.969 -3.39868 2.40407 0
M  V30 8203 H 739.502 -2.0355 3.41778 0
M  V30 8204 H 736.241 -1.53362 6.37307 0
M  V30 8205 H 735.761 -2.85004 5.27762 0
M  V30 8206 H 737.44 -2.73914 5.86157 0
M  V30 8207 N 737.572 -1.44907 -0.619662 0
M  V30 8208 C 738.8 -1.51795 -1.40591 0
M  V30 8209 C 739.215 -0.146553 -1.8823 0
M  V30 8210 O 738.572 0.849698 -1.61513 0
M  V30 8211 C 738.623 -2.49229 -2.61853 0
M  V30 8212 O 738.344 -3.81039 -2.16197 0
M  V30 8213 C 739.845 -2.65696 -3.54853 0
M  V30 8214 H 737.065 -0.514463 -0.430777 0
M  V30 8215 H 739.609 -1.8998 -0.756813 0
M  V30 8216 H 737.764 -2.14149 -3.2283 0
M  V30 8217 H 738.178 -4.33747 -2.94896 0
M  V30 8218 H 739.652 -3.37874 -4.36515 0
M  V30 8219 H 740.129 -1.71316 -4.0441 0
M  V30 8220 H 740.735 -3.01724 -2.99737 0
M  V30 8221 N 739.05 0.861098 -1.31996 0
M  V30 8222 C 740.013 1.95068 -1.20338 0
M  V30 8223 C 741.013 1.60289 -0.128114 0
M  V30 8224 O 742.203 1.70048 -0.378044 0
M  V30 8225 C 739.335 3.30153 -0.849205 0
M  V30 8226 H 740.528 2.06833 -2.17164 0
M  V30 8227 H 738.081 1.05049 -1.15734 0
M  V30 8228 H 738.816 3.24087 0.117508 0
M  V30 8229 H 738.601 3.56771 -1.62655 0
M  V30 8230 H 740.091 4.10025 -0.791782 0
M  V30 8231 N 740.528 1.15101 1.07655 0
M  V30 8232 C 741.944 0.893004 1.32279 0
M  V30 8233 C 742.144 -0.461701 1.96139 0
M  V30 8234 O 741.2 -1.20431 2.21929 0
M  V30 8235 C 742.513 2.03161 2.21689 0
M  V30 8236 C 744.061 2.06579 2.35147 0
M  V30 8237 C 744.536 3.19754 3.27905 0
M  V30 8238 N 746.027 3.19382 3.35484 0
M  V30 8239 C 746.762 4.03592 4.07309 0
M  V30 8240 N 746.258 4.97859 4.81776 0
M  V30 8241 N 748.051 3.91626 4.03219 0
M  V30 8242 H 740.202 2.02341 0.645886 0
M  V30 8243 H 742.465 0.882127 0.347211 0
M  V30 8244 H 742.171 3.00934 1.82021 0
M  V30 8245 H 742.045 1.96132 3.22199 0
M  V30 8246 H 744.432 1.09408 2.74069 0
M  V30 8247 H 744.513 2.17676 1.34353 0
M  V30 8248 H 744.157 4.17175 2.89702 0
M  V30 8249 H 744.087 3.05893 4.28645 0
M  V30 8250 H 746.578 2.51112 2.82403 0
M  V30 8251 H 746.891 5.58563 5.34067 0
M  V30 8252 H 745.236 5.0185 4.80803 0
M  V30 8253 H 748.427 3.17295 3.44154 0
M  V30 8254 H 748.6 4.57479 4.5893 0
M  V30 8255 N 742.006 -1.2595 0.947325 0
M  V30 8256 C 742.953 -2.26159 0.460497 0
M  V30 8257 C 743.923 -1.58919 -0.483125 0
M  V30 8258 O 745.108 -1.86603 -0.397983 0
M  V30 8259 C 742.248 -3.441 -0.26247 0
M  V30 8260 C 741.361 -4.25999 0.717539 0
M  V30 8261 C 740.496 -5.31193 -0.0272486 0
M  V30 8262 C 739.535 -6.04774 0.944177 0
M  V30 8263 N 738.672 -7.01721 0.230741 0
M  V30 8264 H 743.512 -2.67173 1.31995 0
M  V30 8265 H 741.049 -1.31358 0.662088 0
M  V30 8266 H 743.007 -4.11317 -0.698137 0
M  V30 8267 H 741.637 -3.03983 -1.08602 0
M  V30 8268 H 740.689 -3.58513 1.27171 0
M  V30 8269 H 742.001 -4.76981 1.45913 0
M  V30 8270 H 741.155 -6.04451 -0.521903 0
M  V30 8271 H 739.894 -4.81066 -0.801682 0
M  V30 8272 H 738.899 -5.30338 1.4499 0
M  V30 8273 H 740.124 -6.56991 1.71872 0
M  V30 8274 H 738.07 -6.53895 -0.525088 0
M  V30 8275 H 737.987 -7.50484 0.911556 0
M  V30 8276 H 739.255 -7.79122 -0.242616 0
M  V30 8277 N 743.484 -0.715051 -1.40445 0
M  V30 8278 C 744.761 -0.181503 -1.94756 0
M  V30 8279 C 745.141 1.31268 -1.65324 0
M  V30 8280 O 744.489 2.0686 -0.970631 0
M  V30 8281 C 744.699 -0.493663 -3.45491 0
M  V30 8282 C 746.047 -0.432032 -4.22396 0
M  V30 8283 O 747.071 -0.429692 -3.53599 0
M  V30 8284 O 745.93 -0.409091 -5.44967 0
M  V30 8285 H 743.024 -0.0263989 -0.826579 0
M  V30 8286 H 745.57 -0.792546 -1.50056 0
M  V30 8287 H 744.342 -1.52713 -3.6027 0
M  V30 8288 H 743.965 0.14737 -3.97327 0
M  V30 8289 N 744.962 1.50701 -0.461195 0
M  V30 8290 C 745.91 2.29918 0.352231 0
M  V30 8291 C 746.904 1.36778 0.999403 0
M  V30 8292 O 748.11 1.54015 0.931639 0
M  V30 8293 H 744.485 0.740249 0.132423 0
M  V30 8294 H 746.456 2.96497 -0.336424 0
M  V30 8295 C 745.205 3.17052 1.42736 0
M  V30 8296 H 744.528 3.88623 0.938747 0
M  V30 8297 H 745.968 3.75493 1.96928 0
M  V30 8298 C 744.427 2.3399 2.42384 0
M  V30 8299 O 744.957 2.01608 3.47444 0
M  V30 8300 N 743.163 1.96758 2.13857 0
M  V30 8301 H 742.71 2.23292 1.28447 0
M  V30 8302 H 742.668 1.41484 2.80766 0
M  V30 8303 N 746.441 0.193421 1.56409 0
M  V30 8304 C 747.687 -0.446449 1.97825 0
M  V30 8305 C 748.02 -1.61386 1.08019 0
M  V30 8306 O 747.295 -1.94053 0.131839 0
M  V30 8307 C 747.578 -0.908199 3.48459 0
M  V30 8308 C 747.431 0.260914 4.49043 0
M  V30 8309 C 748.75 -1.77428 4.0275 0
M  V30 8310 H 745.869 -0.160807 0.719243 0
M  V30 8311 H 748.511 0.284006 1.87865 0
M  V30 8312 H 746.661 -1.53062 3.57077 0
M  V30 8313 H 748.333 0.898548 4.52464 0
M  V30 8314 H 746.576 0.912949 4.24085 0
M  V30 8315 H 747.247 -0.104657 5.51901 0
M  V30 8316 H 749.723 -1.24936 3.96901 0
M  V30 8317 H 748.599 -2.06633 5.08521 0
M  V30 8318 H 748.86 -2.72788 3.47907 0
M  V30 8319 N 747.919 -1.57396 -0.0801906 0
M  V30 8320 C 749.168 -1.8602 -0.779702 0
M  V30 8321 C 749.481 -0.784864 -1.79163 0
M  V30 8322 O 750.687 -0.958691 -2.54011 0
M  V30 8323 C 749.143 -3.29942 -1.43758 0
M  V30 8324 C 748.751 -4.45584 -0.464654 0
M  V30 8325 C 750.495 -3.67775 -2.11995 0
M  V30 8326 C 748.402 -5.80544 -1.12797 0
M  V30 8327 H 747.332 -0.69392 -0.294943 0
M  V30 8328 H 749.983 -1.83471 -0.0328527 0
M  V30 8329 H 748.365 -3.27078 -2.2324 0
M  V30 8330 H 749.539 -4.59824 0.299749 0
M  V30 8331 H 747.854 -4.16247 0.112813 0
M  V30 8332 H 750.451 -4.65896 -2.62383 0
M  V30 8333 H 750.794 -2.9715 -2.91561 0
M  V30 8334 H 751.327 -3.72593 -1.39354 0
M  V30 8335 H 748.066 -6.54439 -0.372807 0
M  V30 8336 H 747.586 -5.70119 -1.86344 0
M  V30 8337 H 749.265 -6.25602 -1.6502 0
M  V30 8338 N 749.397 0.351382 -1.53633 0
M  V30 8339 C 750.813 0.693987 -1.43722 0
M  V30 8340 C 751.013 1.9274 -0.587669 0
M  V30 8341 O 750.069 2.52387 -0.0756082 0
M  V30 8342 C 751.382 0.893937 -2.87105 0
M  V30 8343 C 752.93 0.993051 -2.96829 0
M  V30 8344 C 753.405 1.22537 -4.41303 0
M  V30 8345 N 754.896 1.29275 -4.44795 0
M  V30 8346 C 755.631 1.48988 -5.53706 0
M  V30 8347 N 755.127 1.65924 -6.72637 0
M  V30 8348 N 756.92 1.51472 -5.41306 0
M  V30 8349 H 749.071 -0.459688 -2.07366 0
M  V30 8350 H 751.334 -0.143684 -0.937048 0
M  V30 8351 H 751.04 0.0592517 -3.5165 0
M  V30 8352 H 750.914 1.79795 -3.31592 0
M  V30 8353 H 753.301 1.81827 -2.32429 0
M  V30 8354 H 753.382 0.0661119 -2.55715 0
M  V30 8355 H 753.026 0.405117 -5.06282 0
M  V30 8356 H 752.956 2.16575 -4.80003 0
M  V30 8357 H 755.447 1.17743 -3.59089 0
M  V30 8358 H 755.76 1.80578 -7.51406 0
M  V30 8359 H 754.105 1.63075 -6.75597 0
M  V30 8360 H 757.296 1.37818 -4.47352 0
M  V30 8361 H 757.469 1.66493 -6.26246 0
M  V30 8362 N 750.875 1.45233 0.611969 0
M  V30 8363 C 751.805 1.5641 1.73373 0
M  V30 8364 C 752.786 0.415896 1.64937 0
M  V30 8365 O 753.971 0.638478 1.83404 0
M  V30 8366 C 751.101 1.52627 3.11965 0
M  V30 8367 C 750.055 2.66119 3.35208 0
M  V30 8368 C 749.381 2.4739 4.74028 0
M  V30 8369 C 750.681 4.08157 3.25891 0
M  V30 8370 H 752.375 2.50307 1.64277 0
M  V30 8371 H 749.921 1.20467 0.788904 0
M  V30 8372 H 751.874 1.59043 3.90235 0
M  V30 8373 H 750.598 0.552564 3.21892 0
M  V30 8374 H 749.257 2.59123 2.59327 0
M  V30 8375 H 748.905 1.48168 4.80682 0
M  V30 8376 H 748.605 3.23494 4.90536 0
M  V30 8377 H 750.129 2.55653 5.54503 0
M  V30 8378 H 751.543 4.1642 3.9404 0
M  V30 8379 H 749.94 4.84617 3.5393 0
M  V30 8380 H 751.01 4.30374 2.23397 0
M  V30 8381 N 752.353 -0.854086 1.3245 0
M  V30 8382 C 753.599 -1.6105 1.24235 0
M  V30 8383 C 753.954 -1.91421 -0.193877 0
M  V30 8384 O 753.247 -1.54599 -1.1318 0
M  V30 8385 C 753.441 -2.93746 2.03587 0
M  V30 8386 C 753.27 -2.76335 3.54781 0
M  V30 8387 C 752.04 -2.74687 4.24117 0
M  V30 8388 C 754.238 -2.50052 4.4942 0
M  V30 8389 N 752.22 -2.48493 5.6136 0
M  V30 8390 C 753.591 -2.33269 5.74444 0
M  V30 8391 C 755.646 -2.35525 4.38671 0
M  V30 8392 C 754.349 -2.03434 6.89933 0
M  V30 8393 C 756.375 -2.07081 5.5396 0
M  V30 8394 C 755.737 -1.91098 6.77983 0
M  V30 8395 H 751.836 -0.593008 0.50977 0
M  V30 8396 H 754.42 -1.00392 1.66822 0
M  V30 8397 H 752.591 -3.52382 1.63345 0
M  V30 8398 H 754.323 -3.58768 1.87263 0
M  V30 8399 H 751.078 -2.87647 3.7624 0
M  V30 8400 H 751.502 -2.38322 6.33665 0
M  V30 8401 H 756.144 -2.46602 3.43435 0
M  V30 8402 H 753.862 -1.91095 7.85181 0
M  V30 8403 H 757.448 -1.96618 5.4757 0
M  V30 8404 H 756.328 -1.69402 7.65684 0
M  V30 8405 N 753.831 -1.1567 -1.07043 0
M  V30 8406 C 754.741 -0.870435 -2.17855 0
M  V30 8407 C 755.757 0.154452 -1.73313 0
M  V30 8408 O 756.933 -0.0203759 -2.0139 0
M  V30 8409 C 753.998 -0.367219 -3.4475 0
M  V30 8410 C 753.059 -1.45639 -4.03841 0
M  V30 8411 C 752.292 -0.977092 -5.2468 0
M  V30 8412 O 752.515 0.176127 -5.70128 0
M  V30 8413 O 751.449 -1.76215 -5.75527 0
M  V30 8414 H 755.275 -1.79687 -2.44839 0
M  V30 8415 H 752.86 -0.936064 -1.1644 0
M  V30 8416 H 754.742 -0.0931947 -4.21297 0
M  V30 8417 H 753.417 0.53131 -3.1931 0
M  V30 8418 H 752.324 -1.78406 -3.28819 0
M  V30 8419 H 753.657 -2.32995 -4.3356 0
M  V30 8420 N 755.309 1.25446 -0.953992 0
M  V30 8421 C 756.539 1.96929 -0.624688 0
M  V30 8422 C 756.947 1.71112 0.807292 0
M  V30 8423 O 756.29 0.983512 1.55154 0
M  V30 8424 C 756.352 3.50425 -0.802676 0
M  V30 8425 C 756.016 3.99916 -2.21169 0
M  V30 8426 C 757.013 4.10662 -3.18831 0
M  V30 8427 C 754.698 4.33598 -2.53571 0
M  V30 8428 C 756.692 4.54401 -4.46988 0
M  V30 8429 C 754.379 4.77024 -3.81958 0
M  V30 8430 C 755.377 4.87388 -4.78478 0
M  V30 8431 O 755.065 5.29851 -6.04577 0
M  V30 8432 H 754.797 0.634511 -0.233179 0
M  V30 8433 H 757.351 1.60591 -1.28061 0
M  V30 8434 H 755.581 3.86596 -0.0896044 0
M  V30 8435 H 757.27 4.03117 -0.47452 0
M  V30 8436 H 758.036 3.84872 -2.95124 0
M  V30 8437 H 753.915 4.24757 -1.79171 0
M  V30 8438 H 757.459 4.62406 -5.22328 0
M  V30 8439 H 753.356 5.02258 -4.05471 0
M  V30 8440 H 754.124 5.48039 -6.07944 0
M  V30 8441 N 756.787 0.722489 1.40064 0
M  V30 8442 C 757.717 0.0892452 2.33329 0
M  V30 8443 C 758.698 -0.737992 1.53257 0
M  V30 8444 O 759.883 -0.685516 1.81698 0
M  V30 8445 C 757.013 -0.828139 3.37282 0
M  V30 8446 C 755.967 -0.106005 4.27869 0
M  V30 8447 C 755.293 -1.13957 5.22415 0
M  V30 8448 C 756.593 1.04395 5.11761 0
M  V30 8449 H 758.287 0.868269 2.86534 0
M  V30 8450 H 755.833 0.418982 1.3777 0
M  V30 8451 H 757.786 -1.28058 4.01471 0
M  V30 8452 H 756.51 -1.63914 2.82489 0
M  V30 8453 H 755.169 0.326683 3.65142 0
M  V30 8454 H 754.817 -1.9438 4.63924 0
M  V30 8455 H 754.517 -0.661233 5.83868 0
M  V30 8456 H 756.041 -1.59197 5.89482 0
M  V30 8457 H 757.455 0.670541 5.69365 0
M  V30 8458 H 755.852 1.4511 5.82291 0
M  V30 8459 H 756.922 1.87144 4.47331 0
M  V30 8460 N 758.265 -1.50454 0.469181 0
M  V30 8461 C 759.195 -2.31353 -0.31592 0
M  V30 8462 C 760.176 -1.38172 -0.992094 0
M  V30 8463 O 761.361 -1.67093 -0.989633 0
M  V30 8464 C 758.491 -3.1786 -1.39937 0
M  V30 8465 C 757.445 -4.19578 -0.844909 0
M  V30 8466 C 756.771 -4.9481 -2.0265 0
M  V30 8467 C 758.071 -5.22106 0.142499 0
M  V30 8468 H 759.765 -2.97237 0.359269 0
M  V30 8469 H 757.311 -1.42942 0.174224 0
M  V30 8470 H 759.264 -3.7325 -1.95607 0
M  V30 8471 H 757.988 -2.49858 -2.1033 0
M  V30 8472 H 756.647 -3.65285 -0.310189 0
M  V30 8473 H 756.295 -4.23282 -2.71737 0
M  V30 8474 H 755.995 -5.63613 -1.66174 0
M  V30 8475 H 757.519 -5.53035 -2.58815 0
M  V30 8476 H 758.933 -5.72378 -0.324966 0
M  V30 8477 H 757.33 -5.98618 0.421441 0
M  V30 8478 H 758.4 -4.7297 1.06901 0
M  V30 8479 N 759.743 -0.201713 -1.56304 0
M  V30 8480 C 760.653 0.728296 -2.23009 0
M  V30 8481 C 761.669 1.22945 -1.23128 0
M  V30 8482 O 762.845 1.27523 -1.55884 0
M  V30 8483 C 759.91 1.92792 -2.88153 0
M  V30 8484 C 758.971 1.47068 -4.03323 0
M  V30 8485 C 758.204 2.61312 -4.65351 0
M  V30 8486 O 758.427 3.7896 -4.26317 0
M  V30 8487 O 757.361 2.33646 -5.54701 0
M  V30 8488 H 761.187 0.190166 -3.03104 0
M  V30 8489 H 758.772 0.0278725 -1.49374 0
M  V30 8490 H 760.654 2.6289 -3.29343 0
M  V30 8491 H 759.329 2.45452 -2.11033 0
M  V30 8492 H 758.236 0.738299 -3.66742 0
M  V30 8493 H 759.569 0.990666 -4.82127 0
M  V30 8494 N 761.222 1.57436 0.0718424 0
M  V30 8495 C 762.152 2.06724 1.08571 0
M  V30 8496 C 763.133 0.960731 1.40371 0
M  V30 8497 O 764.318 1.23345 1.49999 0
M  V30 8498 C 761.448 2.51112 2.39916 0
M  V30 8499 C 760.402 3.65639 2.22469 0
M  V30 8500 C 759.728 3.96082 3.59198 0
M  V30 8501 C 761.028 4.95687 1.64596 0
M  V30 8502 H 762.722 2.91679 0.675569 0
M  V30 8503 H 760.268 1.40319 0.32352 0
M  V30 8504 H 762.221 2.84206 3.11135 0
M  V30 8505 H 760.945 1.63186 2.8291 0
M  V30 8506 H 759.604 3.32828 1.53691 0
M  V30 8507 H 759.252 3.05287 3.99761 0
M  V30 8508 H 758.952 4.73199 3.48362 0
M  V30 8509 H 760.476 4.31672 4.31847 0
M  V30 8510 H 761.89 5.27011 2.25681 0
M  V30 8511 H 760.287 5.77126 1.64457 0
M  V30 8512 H 761.357 4.8108 0.60744 0
M  V30 8513 N 762.7 -0.34323 1.53817 0
M  V30 8514 C 763.63 -1.42709 1.84814 0
M  V30 8515 C 764.611 -1.5488 0.703297 0
M  V30 8516 O 765.796 -1.69082 0.955237 0
M  V30 8517 C 762.926 -2.79756 2.05801 0
M  V30 8518 C 761.88 -2.82392 3.21619 0
M  V30 8519 C 761.206 -4.22326 3.2794 0
M  V30 8520 C 762.506 -2.479 4.59721 0
M  V30 8521 H 764.2 -1.17018 2.75585 0
M  V30 8522 H 761.746 -0.561485 1.32602 0
M  V30 8523 H 763.699 -3.55627 2.26069 0
M  V30 8524 H 762.423 -3.06883 1.11761 0
M  V30 8525 H 761.082 -2.08974 3.01207 0
M  V30 8526 H 760.73 -4.46564 2.31494 0
M  V30 8527 H 760.43 -4.25001 4.05768 0
M  V30 8528 H 761.954 -5.00039 3.50419 0
M  V30 8529 H 763.368 -3.13484 4.80001 0
M  V30 8530 H 761.765 -2.61857 5.39954 0
M  V30 8531 H 762.835 -1.43087 4.63308 0
M  V30 8532 N 764.178 -1.45556 -0.604258 0
M  V30 8533 C 765.594 -1.30035 -0.925368 0
M  V30 8534 C 765.794 -0.255833 -1.99869 0
M  V30 8535 O 764.85 0.349076 -2.50075 0
M  V30 8536 C 766.163 -2.68028 -1.36314 0
M  V30 8537 C 767.711 -2.75951 -1.47717 0
M  V30 8538 C 768.186 -4.14476 -1.94868 0
M  V30 8539 N 769.677 -4.16787 -2.02097 0
M  V30 8540 C 770.412 -5.20845 -2.39809 0
M  V30 8541 N 769.908 -6.35246 -2.76467 0
M  V30 8542 N 771.701 -5.08204 -2.40177 0
M  V30 8543 H 763.852 -2.1214 0.10512 0
M  V30 8544 H 766.115 -0.947871 -0.0156303 0
M  V30 8545 H 765.821 -3.45667 -0.648628 0
M  V30 8546 H 765.695 -2.96711 -2.329 0
M  V30 8547 H 768.082 -1.98613 -2.18258 0
M  V30 8548 H 768.163 -2.50977 -0.494371 0
M  V30 8549 H 767.807 -4.923 -1.24912 0
M  V30 8550 H 767.737 -4.36843 -2.94068 0
M  V30 8551 H 770.228 -3.34233 -1.76343 0
M  V30 8552 H 770.541 -7.10438 -3.04134 0
M  V30 8553 H 768.886 -6.38642 -2.74155 0
M  V30 8554 H 772.077 -4.17874 -2.10947 0
M  V30 8555 H 772.25 -5.89417 -2.69242 0
M  V30 8556 N 765.656 0.84705 -1.32902 0
M  V30 8557 C 766.619 1.9378 -1.224 0
M  V30 8558 C 767.619 1.60144 -0.145108 0
M  V30 8559 O 768.809 1.69638 -0.396058 0
M  V30 8560 C 765.941 3.29234 -0.884174 0
M  V30 8561 H 767.134 2.04518 -2.19345 0
M  V30 8562 H 764.687 1.03816 -1.16842 0
M  V30 8563 H 765.422 3.24193 0.0831277 0
M  V30 8564 H 765.207 3.55026 -1.6643 0
M  V30 8565 H 766.697 4.09162 -0.835226 0
M  V30 8566 N 767.134 1.16236 1.06428 0
M  V30 8567 C 768.55 0.906983 1.31324 0
M  V30 8568 C 768.75 -0.440872 1.96618 0
M  V30 8569 O 767.806 -1.1807 2.23194 0
M  V30 8570 C 769.119 2.05501 2.19522 0
M  V30 8571 C 770.667 2.09061 2.32943 0
M  V30 8572 C 771.142 3.23214 3.24495 0
M  V30 8573 N 772.633 3.22922 3.32078 0
M  V30 8574 C 773.368 4.07889 4.03006 0
M  V30 8575 N 772.864 5.02941 4.76469 0
M  V30 8576 N 774.657 3.95881 3.99043 0
M  V30 8577 H 766.808 2.03015 0.624388 0
M  V30 8578 H 769.071 0.88576 0.337835 0
M  V30 8579 H 768.777 3.02847 1.78819 0
M  V30 8580 H 768.651 1.99538 3.201 0
M  V30 8581 H 771.038 1.12308 2.72893 0
M  V30 8582 H 771.119 2.19089 1.32037 0
M  V30 8583 H 770.763 4.20225 2.85261 0
M  V30 8584 H 770.693 3.10423 4.25377 0
M  V30 8585 H 773.184 2.54093 2.79724 0
M  V30 8586 H 773.497 5.64196 5.28112 0
M  V30 8587 H 771.842 5.06922 4.75453 0
M  V30 8588 H 775.033 3.20927 3.40769 0
M  V30 8589 H 775.206 4.62321 4.54052 0
M  V30 8590 N 768.612 -1.24939 0.960631 0
M  V30 8591 C 770.028 -1.45039 0.666018 0
M  V30 8592 C 770.228 -1.86021 -0.774501 0
M  V30 8593 O 769.284 -1.99392 -1.54916 0
M  V30 8594 C 770.597 -2.51775 1.64408 0
M  V30 8595 C 772.145 -2.6561 1.65592 0
M  V30 8596 C 772.62 -3.75536 2.62177 0
M  V30 8597 N 774.111 -3.82954 2.60577 0
M  V30 8598 C 774.846 -4.67517 3.31987 0
M  V30 8599 N 774.342 -5.56321 4.1289 0
M  V30 8600 N 776.135 -4.61535 3.20845 0
M  V30 8601 H 768.286 -0.96632 1.89145 0
M  V30 8602 H 770.549 -0.486034 0.813926 0
M  V30 8603 H 770.255 -2.28534 2.67329 0
M  V30 8604 H 770.129 -3.49804 1.41128 0
M  V30 8605 H 772.516 -2.88212 0.633846 0
M  V30 8606 H 772.597 -1.67962 1.92931 0
M  V30 8607 H 772.241 -3.53684 3.64514 0
M  V30 8608 H 772.171 -4.72682 2.32119 0
M  V30 8609 H 774.662 -3.19478 2.01847 0
M  V30 8610 H 774.975 -6.17787 4.64283 0
M  V30 8611 H 773.32 -5.5601 4.16987 0
M  V30 8612 H 776.511 -3.91169 2.57108 0
M  V30 8613 H 776.684 -5.27214 3.76762 0
M  V30 8614 N 770.09 -0.729906 -1.39679 0
M  V30 8615 C 771.022 -0.0470588 -2.29152 0
M  V30 8616 C 772.035 0.708808 -1.4656 0
M  V30 8617 O 773.224 0.553815 -1.69691 0
M  V30 8618 C 770.324 0.957612 -3.25089 0
M  V30 8619 C 769.497 0.264321 -4.36601 0
M  V30 8620 C 768.556 1.17638 -5.12882 0
M  V30 8621 O 767.582 0.655777 -5.6541 0
M  V30 8622 N 768.784 2.50649 -5.23598 0
M  V30 8623 H 771.549 -0.815364 -2.88395 0
M  V30 8624 H 769.11 -0.578707 -1.51204 0
M  V30 8625 H 771.102 1.57026 -3.72995 0
M  V30 8626 H 769.672 1.62716 -2.66912 0
M  V30 8627 H 768.892 -0.528732 -3.90638 0
M  V30 8628 H 770.18 -0.216344 -5.0834 0
M  V30 8629 H 769.578 2.95427 -4.82431 0
M  V30 8630 H 768.135 3.07022 -5.74961 0
M  V30 8631 N 771.568 1.50203 -0.477153 0
M  V30 8632 C 772.984 1.59056 -0.131663 0
M  V30 8633 C 773.184 1.48473 1.36227 0
M  V30 8634 O 772.24 1.34635 2.13611 0
M  V30 8635 C 773.553 2.92741 -0.687254 0
M  V30 8636 C 775.101 3.0615 -0.651223 0
M  V30 8637 C 775.576 4.42419 -1.18446 0
M  V30 8638 N 777.067 4.48847 -1.14413 0
M  V30 8639 C 777.802 5.52689 -1.52717 0
M  V30 8640 N 777.298 6.63754 -1.98499 0
M  V30 8641 N 779.091 5.43267 -1.44282 0
M  V30 8642 H 771.242 1.55325 -1.44872 0
M  V30 8643 H 773.505 0.734395 -0.599473 0
M  V30 8644 H 773.211 3.0598 -1.73405 0
M  V30 8645 H 773.085 3.76961 -0.134215 0
M  V30 8646 H 775.472 2.92556 0.386677 0
M  V30 8647 H 775.553 2.23673 -1.24114 0
M  V30 8648 H 775.197 4.56763 -2.22103 0
M  V30 8649 H 775.127 5.23498 -0.570709 0
M  V30 8650 H 777.618 3.69152 -0.808416 0
M  V30 8651 H 777.931 7.39059 -2.25859 0
M  V30 8652 H 776.276 6.64858 -2.02456 0
M  V30 8653 H 779.467 4.55387 -1.08352 0
M  V30 8654 H 779.64 6.24074 -1.74459 0
M  V30 8655 N 773.046 0.209999 1.56195 0
M  V30 8656 C 773.976 -0.699746 2.22769 0
M  V30 8657 C 774.957 -1.20993 1.1956 0
M  V30 8658 O 776.142 -1.25605 1.48112 0
M  V30 8659 C 773.272 -1.91302 2.89863 0
M  V30 8660 C 772.226 -1.53715 3.99444 0
M  V30 8661 C 771.552 -2.82826 4.53777 0
M  V30 8662 C 772.852 -0.735836 5.17091 0
M  V30 8663 H 774.546 -0.144716 2.9905 0
M  V30 8664 H 772.092 -0.0681645 1.43839 0
M  V30 8665 H 774.045 -2.5548 3.35124 0
M  V30 8666 H 772.769 -2.49283 2.11011 0
M  V30 8667 H 771.428 -0.918892 3.54897 0
M  V30 8668 H 771.076 -3.38927 3.71669 0
M  V30 8669 H 770.776 -2.58415 5.27727 0
M  V30 8670 H 772.3 -3.47966 5.01749 0
M  V30 8671 H 773.714 -1.28105 5.58804 0
M  V30 8672 H 772.111 -0.589272 5.972 0
M  V30 8673 H 773.181 0.260004 4.84202 0
M  V30 8674 N 774.524 -1.57472 -0.0634922 0
M  V30 8675 C 775.434 -2.07621 -1.09227 0
M  V30 8676 C 776.45 -1.00746 -1.41867 0
M  V30 8677 O 777.626 -1.32269 -1.51878 0
M  V30 8678 C 774.691 -2.51707 -2.38421 0
M  V30 8679 C 773.752 -3.72917 -2.12676 0
M  V30 8680 C 772.985 -4.14891 -3.3571 0
M  V30 8681 O 773.208 -3.56663 -4.45137 0
M  V30 8682 O 772.142 -5.07616 -3.23434 0
M  V30 8683 H 775.968 -2.95612 -0.696205 0
M  V30 8684 H 773.553 -1.46787 -0.27819 0
M  V30 8685 H 775.435 -2.80547 -3.14438 0
M  V30 8686 H 774.11 -1.66842 -2.77391 0
M  V30 8687 H 773.017 -3.49148 -1.34337 0
M  V30 8688 H 774.35 -4.5866 -1.78583 0
M  V30 8689 N 776.003 0.335068 -1.53997 0
M  V30 8690 C 776.936 1.43533 -1.77407 0
M  V30 8691 C 777.914 1.5017 -0.623529 0
M  V30 8692 O 779.098 1.67756 -0.85966 0
M  V30 8693 C 776.225 2.81712 -1.88033 0
M  V30 8694 C 775.271 2.92661 -3.10245 0
M  V30 8695 S 776.104 2.58254 -4.69111 0
M  V30 8696 C 777.26 3.98525 -4.82627 0
M  V30 8697 H 777.493 1.2346 -2.70453 0
M  V30 8698 H 775.026 0.531234 -1.44973 0
M  V30 8699 H 776.984 3.61314 -1.9484 0
M  V30 8700 H 775.645 2.99075 -0.959849 0
M  V30 8701 H 774.838 3.93931 -3.14379 0
M  V30 8702 H 774.44 2.21017 -3.01708 0
M  V30 8703 H 776.732 4.93146 -4.64557 0
M  V30 8704 H 777.675 3.9938 -5.84723 0
M  V30 8705 H 778.083 3.86945 -4.11016 0
M  V30 8706 N 777.481 1.45874 0.596531 0
M  V30 8707 C 778.429 1.55739 1.72766 0
M  V30 8708 C 779.423 0.426666 1.63939 0
M  V30 8709 O 780.629 0.60301 1.69599 0
M  V30 8710 H 777.004 0.489386 0.570968 0
M  V30 8711 H 778.975 2.50871 1.61575 0
M  V30 8712 C 777.724 1.55174 3.11153 0
M  V30 8713 H 777.047 2.41511 3.1861 0
M  V30 8714 H 778.487 1.66133 3.90097 0
M  V30 8715 C 776.946 0.278001 3.35751 0
M  V30 8716 O 777.476 -0.637557 3.96608 0
M  V30 8717 N 775.682 0.170227 2.90101 0
M  V30 8718 H 775.229 0.916159 2.40758 0
M  V30 8719 H 775.187 -0.68117 3.06932 0
M  V30 8720 N 778.959 -0.83999 1.33349 0
M  V30 8721 C 779.889 -1.965 1.26135 0
M  V30 8722 C 780.87 -1.69505 0.142152 0
M  V30 8723 O 782.055 -1.91346 0.331743 0
M  V30 8724 C 779.185 -3.32632 0.99866 0
M  V30 8725 C 778.139 -3.74021 2.08068 0
M  V30 8726 C 777.465 -5.07947 1.67014 0
M  V30 8727 C 778.765 -3.87925 3.49731 0
M  V30 8728 H 780.459 -2.02793 2.20262 0
M  V30 8729 H 778.005 -0.974297 1.06035 0
M  V30 8730 H 779.958 -4.10903 0.934696 0
M  V30 8731 H 778.682 -3.26593 0.0217759 0
M  V30 8732 H 777.341 -2.98012 2.13505 0
M  V30 8733 H 776.989 -4.98378 0.680316 0
M  V30 8734 H 776.689 -5.36611 2.39422 0
M  V30 8735 H 778.213 -5.88695 1.62082 0
M  V30 8736 H 779.627 -4.5651 3.46802 0
M  V30 8737 H 778.024 -4.28023 4.20614 0
M  V30 8738 H 779.094 -2.90407 3.88319 0
M  V30 8739 N 780.437 -1.16799 -1.0581 0
M  V30 8740 C 781.685 -0.950642 -1.78346 0
M  V30 8741 C 782.006 0.522524 -1.87869 0
M  V30 8742 O 781.276 1.3795 -1.39092 0
M  V30 8743 H 779.856 -0.348736 -0.6606 0
M  V30 8744 H 782.518 -1.47158 -1.27791 0
M  V30 8745 H 781.614 -1.37359 -2.80248 0
M  V30 8746 N 781.915 1.24427 -0.967243 0
M  V30 8747 C 782.845 2.2773 -0.515899 0
M  V30 8748 C 783.826 1.64197 0.444227 0
M  V30 8749 O 785.011 1.91193 0.340451 0
M  V30 8750 C 782.141 3.46751 0.195149 0
M  V30 8751 C 781.095 4.22548 -0.680953 0
M  V30 8752 C 780.421 5.34456 0.161561 0
M  V30 8753 C 781.721 4.83914 -1.96532 0
M  V30 8754 H 783.415 2.65735 -1.37933 0
M  V30 8755 H 780.961 1.27742 -0.664681 0
M  V30 8756 H 782.914 4.18153 0.522117 0
M  V30 8757 H 781.638 3.07771 1.09292 0
M  V30 8758 H 780.297 3.52946 -0.991186 0
M  V30 8759 H 779.945 4.91716 1.05947 0
M  V30 8760 H 779.645 5.86087 -0.421418 0
M  V30 8761 H 781.169 6.08685 0.483211 0
M  V30 8762 H 782.583 5.47392 -1.70396 0
M  V30 8763 H 780.98 5.45775 -2.49499 0
M  V30 8764 H 782.05 4.05393 -2.66053 0
M  V30 8765 N 783.393 0.737304 1.3929 0
M  V30 8766 C 784.325 0.0592106 2.29124 0
M  V30 8767 C 785.338 -0.701026 1.46934 0
M  V30 8768 O 786.527 -0.544808 1.69983 0
M  V30 8769 C 783.627 -0.940358 3.25592 0
M  V30 8770 C 782.8 -0.241163 4.36735 0
M  V30 8771 C 781.859 -1.14916 5.13498 0
M  V30 8772 O 780.885 -0.625783 5.6575 0
M  V30 8773 N 782.087 -2.47869 5.2492 0
M  V30 8774 H 784.852 0.830647 2.87959 0
M  V30 8775 H 782.413 0.586718 1.50895 0
M  V30 8776 H 784.405 -1.55046 3.73822 0
M  V30 8777 H 782.975 -1.61299 2.67771 0
M  V30 8778 H 782.195 0.549441 3.90352 0
M  V30 8779 H 783.483 0.243299 5.08218 0
M  V30 8780 H 782.881 -2.92864 4.83991 0
M  V30 8781 H 781.438 -3.03969 5.76581 0
M  V30 8782 N 784.871 -1.49948 0.485112 0
M  V30 8783 C 785.818 -2.28819 -0.301729 0
M  V30 8784 C 786.788 -1.34496 -0.974683 0
M  V30 8785 O 787.973 -1.63444 -0.984418 0
M  V30 8786 C 785.113 -3.16758 -1.36961 0
M  V30 8787 C 784.226 -4.26125 -0.710027 0
M  V30 8788 C 783.361 -5.01302 -1.75699 0
M  V30 8789 C 782.4 -6.02525 -1.07841 0
M  V30 8790 N 781.537 -6.70927 -2.06886 0
M  V30 8791 H 786.377 -2.95604 0.377127 0
M  V30 8792 H 783.914 -1.45764 0.197826 0
M  V30 8793 H 785.872 -3.66106 -2.00056 0
M  V30 8794 H 784.502 -2.51991 -2.01744 0
M  V30 8795 H 783.554 -3.80385 0.0338278 0
M  V30 8796 H 784.866 -4.98493 -0.175079 0
M  V30 8797 H 784.02 -5.54438 -2.46339 0
M  V30 8798 H 782.759 -4.28672 -2.32577 0
M  V30 8799 H 781.764 -5.48635 -0.357706 0
M  V30 8800 H 782.989 -6.77134 -0.516345 0
M  V30 8801 H 780.935 -6.01079 -2.62755 0
M  V30 8802 H 780.852 -7.39216 -1.58414 0
M  V30 8803 H 782.12 -7.28675 -2.76863 0
M  V30 8804 N 786.349 -0.21828 -1.56081 0
M  V30 8805 C 787.598 0.414644 -1.97392 0
M  V30 8806 C 787.911 1.61132 -1.10887 0
M  V30 8807 O 789.117 2.31355 -1.42082 0
M  V30 8808 C 787.573 0.789099 -3.51143 0
M  V30 8809 C 787.181 -0.384578 -4.46346 0
M  V30 8810 C 788.925 1.38781 -4.01173 0
M  V30 8811 C 786.832 0.0121288 -5.91399 0
M  V30 8812 H 785.762 0.158691 -0.737111 0
M  V30 8813 H 788.413 -0.313974 -1.80794 0
M  V30 8814 H 786.795 1.57505 -3.6333 0
M  V30 8815 H 787.969 -1.16212 -4.45905 0
M  V30 8816 H 786.284 -0.896306 -4.06639 0
M  V30 8817 H 788.881 1.69746 -5.07041 0
M  V30 8818 H 789.224 2.30245 -3.46833 0
M  V30 8819 H 789.757 0.665364 -3.92196 0
M  V30 8820 H 786.496 -0.868917 -6.49715 0
M  V30 8821 H 786.016 0.754053 -5.95041 0
M  V30 8822 H 787.695 0.439949 -6.45502 0
M  V30 8823 N 787.827 1.57504 0.0551401 0
M  V30 8824 C 789.074 1.88055 0.751104 0
M  V30 8825 C 789.402 0.812231 1.76729 0
M  V30 8826 O 788.657 -0.189918 1.94776 0
M  V30 8827 C 788.956 3.25311 1.48013 0
M  V30 8828 C 788.622 4.46858 0.602375 0
M  V30 8829 C 787.284 4.79847 0.360536 0
M  V30 8830 C 789.636 5.212 -0.00524047 0
M  V30 8831 C 786.964 5.84582 -0.498127 0
M  V30 8832 C 789.316 6.26844 -0.851453 0
M  V30 8833 C 787.98 6.58324 -1.103 0
M  V30 8834 H 787.25 0.688142 0.274848 0
M  V30 8835 H 789.897 1.91497 0.0114795 0
M  V30 8836 H 788.202 3.17737 2.29239 0
M  V30 8837 H 789.899 3.46189 2.02371 0
M  V30 8838 H 786.489 4.21049 0.801007 0
M  V30 8839 H 790.673 4.96013 0.168682 0
M  V30 8840 H 785.929 6.07361 -0.701594 0
M  V30 8841 H 790.103 6.83603 -1.32893 0
M  V30 8842 H 787.73 7.39304 -1.77011 0
M  V30 8843 N 789.305 -0.326896 1.54172 0
M  V30 8844 C 790.237 -1.42319 1.79661 0
M  V30 8845 C 791.25 -1.47989 0.678456 0
M  V30 8846 O 792.439 -1.50773 0.955503 0
M  V30 8847 C 789.539 -2.80876 1.89636 0
M  V30 8848 C 788.712 -2.98449 3.19761 0
M  V30 8849 C 787.771 -4.17347 3.2048 0
M  V30 8850 O 786.797 -4.10667 3.94134 0
M  V30 8851 N 787.999 -5.26717 2.44027 0
M  V30 8852 H 790.764 -1.20819 2.74268 0
M  V30 8853 H 788.325 -0.516866 1.53428 0
M  V30 8854 H 790.317 -3.58619 1.87549 0
M  V30 8855 H 788.887 -2.95442 1.02141 0
M  V30 8856 H 788.107 -2.08035 3.34836 0
M  V30 8857 H 789.395 -3.07083 4.05681 0
M  V30 8858 H 788.793 -5.35019 1.8377 0
M  V30 8859 H 787.35 -6.02891 2.47721 0
M  V30 8860 N 790.784 -1.46188 -0.588786 0
M  V30 8861 C 791.694 -1.58865 -1.72624 0
M  V30 8862 C 792.71 -0.472348 -1.67466 0
M  V30 8863 O 793.886 -0.735638 -1.87484 0
M  V30 8864 C 790.951 -1.56989 -3.0912 0
M  V30 8865 C 790.012 -2.79804 -3.25589 0
M  V30 8866 C 789.245 -2.78009 -4.55573 0
M  V30 8867 O 789.468 -1.86406 -5.39082 0
M  V30 8868 O 788.402 -3.6947 -4.75159 0
M  V30 8869 H 792.228 -2.55047 -1.64878 0
M  V30 8870 H 789.813 -1.28912 -0.755115 0
M  V30 8871 H 791.695 -1.58618 -3.90408 0
M  V30 8872 H 790.37 -0.639648 -3.17317 0
M  V30 8873 H 789.277 -2.83732 -2.43818 0
M  V30 8874 H 790.61 -3.72017 -3.22279 0
M  V30 8875 N 792.262 0.832906 -1.33792 0
M  V30 8876 C 793.195 1.94788 -1.18882 0
M  V30 8877 C 794.173 1.62389 -0.0828426 0
M  V30 8878 O 795.357 1.86886 -0.246175 0
M  V30 8879 C 792.484 3.28506 -0.824728 0
M  V30 8880 C 791.53 3.79872 -1.93905 0
M  V30 8881 S 792.363 4.00832 -3.55097 0
M  V30 8882 C 793.519 5.37492 -3.20708 0
M  V30 8883 H 793.752 2.07137 -2.13264 0
M  V30 8884 H 791.285 0.987362 -1.18704 0
M  V30 8885 H 793.243 4.05769 -0.621442 0
M  V30 8886 H 791.904 3.13939 0.100587 0
M  V30 8887 H 791.097 4.76647 -1.6378 0
M  V30 8888 H 790.699 3.09524 -2.09931 0
M  V30 8889 H 792.991 6.20544 -2.71903 0
M  V30 8890 H 793.934 5.72593 -4.16584 0
M  V30 8891 H 794.342 5.02529 -2.57148 0
M  V30 8892 N 793.74 1.17359 1.05189 0
M  V30 8893 C 794.67 0.91365 2.14883 0
M  V30 8894 C 795.651 -0.144365 1.69486 0
M  V30 8895 O 796.836 0.00587861 1.94199 0
M  V30 8896 C 793.966 0.426196 3.44675 0
M  V30 8897 C 792.92 1.4234 4.03638 0
M  V30 8898 C 792.246 0.793902 5.28773 0
M  V30 8899 C 793.546 2.7966 4.41121 0
M  V30 8900 H 795.24 1.831 2.36885 0
M  V30 8901 H 792.786 0.881781 1.13845 0
M  V30 8902 H 794.739 0.231767 4.20762 0
M  V30 8903 H 793.463 -0.526693 3.22325 0
M  V30 8904 H 792.122 1.60457 3.2962 0
M  V30 8905 H 791.77 -0.165824 5.02727 0
M  V30 8906 H 791.47 1.45959 5.69183 0
M  V30 8907 H 792.994 0.609747 6.07548 0
M  V30 8908 H 794.408 2.6526 5.08242 0
M  V30 8909 H 792.805 3.42807 4.92548 0
M  V30 8910 H 793.875 3.34068 3.51464 0
M  V30 8911 N 795.218 -1.23913 0.973828 0
M  V30 8912 C 796.448 -1.95911 0.655938 0
M  V30 8913 C 796.856 -1.72375 -0.779967 0
M  V30 8914 O 796.199 -1.00807 -1.5357 0
M  V30 8915 C 796.261 -3.49103 0.858324 0
M  V30 8916 C 795.925 -3.96347 2.27504 0
M  V30 8917 C 796.922 -4.05537 3.25324 0
M  V30 8918 C 794.607 -4.29509 2.60437 0
M  V30 8919 C 796.601 -4.47233 4.5416 0
M  V30 8920 C 794.288 -4.70887 3.89498 0
M  V30 8921 C 795.286 -4.79714 4.86172 0
M  V30 8922 O 794.974 -5.20166 6.1293 0
M  V30 8923 H 794.706 -0.630721 0.243244 0
M  V30 8924 H 797.26 -1.58534 1.30599 0
M  V30 8925 H 795.49 -3.86405 0.151097 0
M  V30 8926 H 797.179 -4.02311 0.538592 0
M  V30 8927 H 797.945 -3.80128 3.0121 0
M  V30 8928 H 793.824 -4.21853 1.85906 0
M  V30 8929 H 797.368 -4.54038 5.29618 0
M  V30 8930 H 793.265 -4.95744 4.1341 0
M  V30 8931 H 794.033 -5.38298 6.16586 0
M  V30 8932 N 796.696 -0.74468 -1.38897 0
M  V30 8933 C 797.945 -0.293716 -1.9955 0
M  V30 8934 C 798.258 1.12831 -1.59777 0
M  V30 8935 O 799.464 1.67929 -2.13336 0
M  V30 8936 C 797.92 -0.474188 -3.56762 0
M  V30 8937 C 797.528 -1.90472 -4.05493 0
M  V30 8938 C 799.272 -0.0854875 -4.24414 0
M  V30 8939 C 797.179 -2.03423 -5.55314 0
M  V30 8940 H 796.109 -0.106066 -0.746502 0
M  V30 8941 H 798.76 -0.919948 -1.58774 0
M  V30 8942 H 797.142 0.221092 -3.95382 0
M  V30 8943 H 798.316 -2.63274 -3.78184 0
M  V30 8944 H 796.631 -2.24752 -3.50536 0
M  V30 8945 H 799.228 -0.161133 -5.34457 0
M  V30 8946 H 799.571 0.96066 -4.05064 0
M  V30 8947 H 800.104 -0.732286 -3.91002 0
M  V30 8948 H 796.843 -3.0626 -5.79556 0
M  V30 8949 H 796.363 -1.3507 -5.84394 0
M  V30 8950 H 798.042 -1.81996 -6.20876 0
M  V30 8951 N 798.174 1.49689 -0.493057 0
M  V30 8952 C 799.107 2.25712 0.336062 0
M  V30 8953 C 800.085 1.29953 0.977294 0
M  V30 8954 O 801.269 1.59225 1.00895 0
M  V30 8955 C 798.396 3.0501 1.47263 0
M  V30 8956 C 797.442 4.15863 0.946575 0
M  V30 8957 S 798.275 5.35272 -0.156323 0
M  V30 8958 C 799.431 6.18123 0.983601 0
M  V30 8959 H 799.664 2.95688 -0.309215 0
M  V30 8960 H 797.197 1.51872 -0.278238 0
M  V30 8961 H 799.155 3.51284 2.12391 0
M  V30 8962 H 797.816 2.34519 2.08949 0
M  V30 8963 H 797.009 4.70834 1.7981 0
M  V30 8964 H 796.611 3.72139 0.372647 0
M  V30 8965 H 798.903 6.50588 1.89056 0
M  V30 8966 H 799.846 7.06521 0.472687 0
M  V30 8967 H 800.254 5.50547 1.24735 0
M  V30 8968 N 799.652 0.226554 1.55963 0
M  V30 8969 C 800.929 -0.453058 1.90281 0
M  V30 8970 C 801.309 -1.77377 1.14458 0
M  V30 8971 O 800.657 -2.27067 0.255496 0
M  V30 8972 C 800.867 -0.641108 3.43061 0
M  V30 8973 C 802.215 -0.946265 4.13921 0
M  V30 8974 O 803.239 -0.727713 3.48687 0
M  V30 8975 O 802.098 -1.36131 5.29274 0
M  V30 8976 H 799.192 -0.240242 0.791336 0
M  V30 8977 H 801.738 0.26911 1.67553 0
M  V30 8978 H 800.51 0.290283 3.90222 0
M  V30 8979 H 800.133 -1.41458 3.71585 0
M  V30 8980 N 801.13 -1.57531 -0.0467866 0
M  V30 8981 C 802.376 -1.89584 -0.736837 0
M  V30 8982 C 802.731 -0.82317 -1.73901 0
M  V30 8983 O 802.024 0.170098 -1.90843 0
M  V30 8984 C 802.218 -3.26091 -1.46285 0
M  V30 8985 C 802.047 -4.46536 -0.532502 0
M  V30 8986 C 800.817 -5.05046 -0.160109 0
M  V30 8987 C 803.015 -5.13979 0.181555 0
M  V30 8988 N 800.997 -6.09009 0.773349 0
M  V30 8989 C 802.368 -6.12345 0.971297 0
M  V30 8990 C 804.423 -4.9727 0.250382 0
M  V30 8991 C 803.126 -6.95802 1.82351 0
M  V30 8992 C 805.152 -5.81275 1.08965 0
M  V30 8993 C 804.514 -6.79197 1.86737 0
M  V30 8994 H 800.613 -0.742868 -0.244277 0
M  V30 8995 H 803.197 -1.947 0.0025481 0
M  V30 8996 H 801.368 -3.21938 -2.1728 0
M  V30 8997 H 803.1 -3.45715 -2.10389 0
M  V30 8998 H 799.855 -4.70754 -0.518457 0
M  V30 8999 H 800.279 -6.65658 1.23406 0
M  V30 9000 H 804.921 -4.21458 -0.336578 0
M  V30 9001 H 802.639 -7.70971 2.42134 0
M  V30 9002 H 806.225 -5.70397 1.14621 0
M  V30 9003 H 805.105 -7.4307 2.50631 0
M  V30 9004 N 802.608 0.318715 -1.54344 0
M  V30 9005 C 803.541 1.41644 -1.7892 0
M  V30 9006 C 804.519 1.495 -0.639421 0
M  V30 9007 O 805.703 1.66835 -0.877404 0
M  V30 9008 C 802.83 2.79701 -1.9101 0
M  V30 9009 C 801.876 2.89354 -3.13331 0
M  V30 9010 S 802.709 2.53264 -4.71824 0
M  V30 9011 C 803.865 3.93384 -4.86826 0
M  V30 9012 H 804.098 1.20585 -2.71747 0
M  V30 9013 H 801.631 0.515828 -1.45529 0
M  V30 9014 H 803.589 3.59227 -1.98661 0
M  V30 9015 H 802.25 2.9804 -0.991516 0
M  V30 9016 H 801.443 3.90574 -3.1854 0
M  V30 9017 H 801.045 2.17805 -3.04035 0
M  V30 9018 H 803.337 4.88191 -4.69761 0
M  V30 9019 H 804.28 3.93156 -5.88926 0
M  V30 9020 H 804.688 3.82564 -4.15097 0
M  V30 9021 N 804.086 1.46499 0.581025 0
M  V30 9022 C 805.363 1.42372 1.34125 0
M  V30 9023 C 805.743 0.108073 2.10823 0
M  V30 9024 O 805.091 -0.910366 2.09582 0
M  V30 9025 C 805.301 2.65445 2.26583 0
M  V30 9026 C 806.649 3.11664 2.88359 0
M  V30 9027 O 807.673 2.66006 2.36896 0
M  V30 9028 O 806.532 3.90974 3.81839 0
M  V30 9029 H 803.626 0.566262 0.602724 0
M  V30 9030 H 806.172 1.58667 0.601903 0
M  V30 9031 H 804.944 3.52756 1.69348 0
M  V30 9032 H 804.567 2.51618 3.07854 0
M  V30 9033 N 805.565 -0.825799 1.34232 0
M  V30 9034 C 806.475 -1.9684 1.27638 0
M  V30 9035 C 807.491 -1.73018 0.184569 0
M  V30 9036 O 808.667 -1.97172 0.410525 0
M  V30 9037 C 805.732 -3.31084 1.02879 0
M  V30 9038 C 804.793 -3.67933 2.21188 0
M  V30 9039 C 804.026 -4.95772 1.976 0
M  V30 9040 O 804.249 -5.62721 0.93281 0
M  V30 9041 O 803.183 -5.30431 2.84477 0
M  V30 9042 H 807.009 -2.05346 2.23756 0
M  V30 9043 H 804.594 -0.960772 1.1441 0
M  V30 9044 H 806.476 -4.11492 0.908406 0
M  V30 9045 H 805.151 -3.23552 0.0979821 0
M  V30 9046 H 804.058 -2.87981 2.38784 0
M  V30 9047 H 805.391 -3.80147 3.12648 0
M  V30 9048 N 807.043 -1.17915 -1.04565 0
M  V30 9049 C 807.976 -0.845021 -2.11978 0
M  V30 9050 C 808.954 0.19089 -1.61476 0
M  V30 9051 O 810.138 0.0709905 -1.88366 0
M  V30 9052 C 807.265 -0.261657 -3.37688 0
M  V30 9053 C 806.311 -1.27396 -4.07029 0
M  V30 9054 S 807.144 -2.82783 -4.54746 0
M  V30 9055 C 808.3 -2.25944 -5.83695 0
M  V30 9056 H 808.533 -1.75472 -2.39993 0
M  V30 9057 H 806.066 -1.00447 -1.17259 0
M  V30 9058 H 808.024 0.0684257 -4.10443 0
M  V30 9059 H 806.685 0.626082 -3.07797 0
M  V30 9060 H 805.878 -0.814557 -4.97374 0
M  V30 9061 H 805.48 -1.55002 -3.40368 0
M  V30 9062 H 807.772 -1.63892 -6.57378 0
M  V30 9063 H 808.715 -3.14569 -6.34391 0
M  V30 9064 H 809.123 -1.69155 -5.3856 0
M  V30 9065 N 808.521 1.23394 -0.980386 0
M  V30 9066 C 809.468 2.24859 -0.520298 0
M  V30 9067 C 810.438 1.60144 0.440821 0
M  V30 9068 O 811.623 1.87593 0.348369 0
M  V30 9069 C 808.763 3.44675 0.171145 0
M  V30 9070 C 807.876 4.23947 -0.830233 0
M  V30 9071 C 807.011 5.31079 -0.113597 0
M  V30 9072 C 806.05 6.02058 -1.10419 0
M  V30 9073 N 805.187 7.00862 -0.416709 0
M  V30 9074 H 810.027 2.63579 -1.39032 0
M  V30 9075 H 807.564 1.29556 -0.696682 0
M  V30 9076 H 809.522 4.13024 0.588838 0
M  V30 9077 H 808.152 3.06755 1.00504 0
M  V30 9078 H 807.204 3.55016 -1.36631 0
M  V30 9079 H 808.516 4.72945 -1.58508 0
M  V30 9080 H 807.67 6.05622 0.36146 0
M  V30 9081 H 806.409 4.83022 0.673854 0
M  V30 9082 H 805.414 5.26307 -1.59 0
M  V30 9083 H 806.639 6.52203 -1.8923 0
M  V30 9084 H 804.585 6.55057 0.351535 0
M  V30 9085 H 804.502 7.47804 -1.11021 0
M  V30 9086 H 805.77 7.79492 0.0359606 0
M  V30 9087 N 809.999 0.752036 1.385 0
M  V30 9088 C 811.245 0.307958 2.00448 0
M  V30 9089 C 811.578 -1.10702 1.59558 0
M  V30 9090 O 810.853 -1.75788 0.832391 0
M  V30 9091 C 811.136 0.429092 3.57534 0
M  V30 9092 C 810.989 1.88507 4.08393 0
M  V30 9093 C 812.308 -0.178442 4.39738 0
M  V30 9094 H 809.427 0.113373 0.728228 0
M  V30 9095 H 812.069 0.951389 1.64465 0
M  V30 9096 H 810.219 -0.118695 3.88319 0
M  V30 9097 H 811.891 2.49104 3.88259 0
M  V30 9098 H 810.134 2.40066 3.61318 0
M  V30 9099 H 810.805 1.92099 5.17496 0
M  V30 9100 H 813.281 0.28872 4.15097 0
M  V30 9101 H 812.157 -0.0634349 5.48863 0
M  V30 9102 H 812.418 -1.26655 4.23569 0
M  V30 9103 N 811.477 -1.49425 0.500989 0
M  V30 9104 C 812.407 -2.31971 -0.266775 0
M  V30 9105 C 813.388 -1.40245 -0.962563 0
M  V30 9106 O 814.573 -1.69154 -0.953968 0
M  V30 9107 C 811.703 -3.20757 -1.33163 0
M  V30 9108 C 810.657 -4.21275 -0.75572 0
M  V30 9109 C 809.983 -4.98997 -1.92109 0
M  V30 9110 C 811.283 -5.21686 0.253213 0
M  V30 9111 H 812.977 -2.96408 0.422237 0
M  V30 9112 H 810.523 -1.4254 0.204505 0
M  V30 9113 H 812.476 -3.77315 -1.87646 0
M  V30 9114 H 811.2 -2.54263 -2.04983 0
M  V30 9115 H 809.859 -3.65861 -0.232637 0
M  V30 9116 H 809.507 -4.28951 -2.62698 0
M  V30 9117 H 809.207 -5.67011 -1.54182 0
M  V30 9118 H 810.731 -5.584 -2.47026 0
M  V30 9119 H 812.145 -5.72939 -0.203483 0
M  V30 9120 H 810.542 -5.9759 0.548322 0
M  V30 9121 H 811.612 -4.70596 1.16909 0
M  V30 9122 N 812.955 -0.234822 -1.55841 0
M  V30 9123 C 814.201 0.393843 -1.98939 0
M  V30 9124 C 814.534 1.58466 -1.1226 0
M  V30 9125 O 813.809 1.93635 -0.183242 0
M  V30 9126 C 814.092 0.815492 -3.50745 0
M  V30 9127 C 813.945 -0.379878 -4.48193 0
M  V30 9128 C 815.264 1.66687 -4.07312 0
M  V30 9129 H 812.383 0.141681 -0.723253 0
M  V30 9130 H 815.025 -0.333716 -1.87046 0
M  V30 9131 H 813.175 1.43541 -3.6101 0
M  V30 9132 H 814.847 -1.0182 -4.49923 0
M  V30 9133 H 813.09 -1.02507 -4.21515 0
M  V30 9134 H 813.761 -0.0417069 -5.51984 0
M  V30 9135 H 816.237 1.14369 -4.00074 0
M  V30 9136 H 815.113 1.93078 -5.13821 0
M  V30 9137 H 815.374 2.63468 -3.55017 0
M  V30 9138 N 814.433 1.57553 0.0384317 0
M  V30 9139 C 815.363 2.0898 1.04161 0
M  V30 9140 C 816.344 0.99029 1.38301 0
M  V30 9141 O 817.529 1.26499 1.47349 0
M  V30 9142 C 814.659 2.56145 2.34536 0
M  V30 9143 C 813.613 3.70275 2.14663 0
M  V30 9144 C 812.939 4.03612 3.50715 0
M  V30 9145 C 814.239 4.99067 1.54045 0
M  V30 9146 H 815.933 2.93046 0.613548 0
M  V30 9147 H 813.479 1.40973 0.293684 0
M  V30 9148 H 815.432 2.90741 3.05037 0
M  V30 9149 H 814.156 1.6915 2.79385 0
M  V30 9150 H 812.815 3.36013 1.46597 0
M  V30 9151 H 812.463 3.13698 3.93195 0
M  V30 9152 H 812.163 4.80482 3.38247 0
M  V30 9153 H 813.687 4.40735 4.22593 0
M  V30 9154 H 815.101 5.3168 2.14451 0
M  V30 9155 H 813.498 5.80484 1.52178 0
M  V30 9156 H 814.568 4.8226 0.505259 0
M  V30 9157 N 815.911 -0.310526 1.54511 0
M  V30 9158 C 817.136 -1.07046 1.7764 0
M  V30 9159 C 817.561 -1.80488 0.529696 0
M  V30 9160 O 816.919 -1.73702 -0.519361 0
M  V30 9161 C 816.967 -2.03411 2.97752 0
M  V30 9162 O 816.071 -3.11545 2.7021 0
M  V30 9163 H 815.412 -0.307994 0.588248 0
M  V30 9164 H 817.942 -0.350848 2.01569 0
M  V30 9165 H 817.952 -2.46048 3.2546 0
M  V30 9166 H 816.627 -1.49361 3.88155 0
M  V30 9167 H 815.204 -2.7349 2.53491 0
M  V30 9168 N 817.389 -1.46805 -0.573248 0
M  V30 9169 C 818.321 -1.54127 -1.6964 0
M  V30 9170 C 819.334 -0.428778 -1.57052 0
M  V30 9171 O 820.523 -0.697612 -1.64303 0
M  V30 9172 C 817.623 -1.41438 -3.07975 0
M  V30 9173 C 816.796 -2.66974 -3.46474 0
M  V30 9174 C 815.855 -2.48349 -4.63906 0
M  V30 9175 O 814.881 -3.22109 -4.69292 0
M  V30 9176 N 816.083 -1.55129 -5.59388 0
M  V30 9177 H 818.848 -2.50971 -1.6381 0
M  V30 9178 H 816.409 -1.42981 -0.759479 0
M  V30 9179 H 818.401 -1.26737 -3.84343 0
M  V30 9180 H 816.971 -0.527388 -3.08119 0
M  V30 9181 H 816.191 -2.9655 -2.59715 0
M  V30 9182 H 817.479 -3.50347 -3.68964 0
M  V30 9183 H 816.877 -0.94324 -5.57781 0
M  V30 9184 H 815.434 -1.46387 -6.35149 0
M  V30 9185 N 818.867 0.818669 -1.34668 0
M  V30 9186 C 820.144 1.56118 -1.17841 0
M  V30 9187 C 820.524 2.09646 0.24731 0
M  V30 9188 O 819.872 1.91329 1.24922 0
M  V30 9189 C 820.082 2.67922 -2.23649 0
M  V30 9190 C 821.43 3.36579 -2.58843 0
M  V30 9191 O 822.454 2.78182 -2.22471 0
M  V30 9192 O 821.313 4.42045 -3.21339 0
M  V30 9193 H 818.407 0.689216 -0.457067 0
M  V30 9194 H 820.953 0.859674 -1.46314 0
M  V30 9195 H 819.725 2.26153 -3.19328 0
M  V30 9196 H 819.348 3.45719 -1.96377 0
M  V30 9197 N 820.346 1.18468 1.03938 0
M  V30 9198 C 821.576 1.0043 1.80547 0
M  V30 9199 C 821.984 -0.450407 1.83761 0
M  V30 9200 O 821.327 -1.32463 1.27276 0
M  V30 9201 C 821.389 1.48437 3.27424 0
M  V30 9202 C 821.053 2.96372 3.47869 0
M  V30 9203 C 822.05 3.94217 3.38953 0
M  V30 9204 C 819.735 3.34831 3.74424 0
M  V30 9205 C 821.729 5.28517 3.56298 0
M  V30 9206 C 819.416 4.69294 3.91416 0
M  V30 9207 C 820.414 5.65946 3.82354 0
M  V30 9208 O 820.102 6.97974 3.98858 0
M  V30 9209 H 819.834 0.354853 0.575374 0
M  V30 9210 H 822.388 1.57473 1.31876 0
M  V30 9211 H 820.618 0.857601 3.7707 0
M  V30 9212 H 822.307 1.2677 3.85596 0
M  V30 9213 H 823.073 3.6585 3.184 0
M  V30 9214 H 818.952 2.60161 3.80575 0
M  V30 9215 H 822.496 6.03943 3.49141 0
M  V30 9216 H 818.393 4.97361 4.11463 0
M  V30 9217 H 819.161 7.04895 4.1601 0
M  V30 9218 N 821.824 -1.22873 0.986916 0
M  V30 9219 C 823.072 -1.91084 0.658121 0
M  V30 9220 C 823.393 -1.77304 -0.811675 0
M  V30 9221 O 822.663 -1.15649 -1.58121 0
M  V30 9222 H 821.243 -0.707251 0.240427 0
M  V30 9223 H 823.905 -1.49357 1.25213 0
M  V30 9224 H 823.001 -2.98373 0.915428 0
M  V30 9225 N 823.302 -0.75937 -1.38099 0
M  V30 9226 C 824.249 -0.135508 -2.30402 0
M  V30 9227 C 825.219 0.703356 -1.50473 0
M  V30 9228 O 826.404 0.658287 -1.79084 0
M  V30 9229 C 823.544 0.747228 -3.36913 0
M  V30 9230 C 822.657 -0.106893 -4.31868 0
M  V30 9231 C 821.792 0.779388 -5.25451 0
M  V30 9232 C 820.831 -0.0780179 -6.1205 0
M  V30 9233 N 819.968 0.765545 -6.97914 0
M  V30 9234 H 824.808 -0.9282 -2.83176 0
M  V30 9235 H 822.345 -0.46935 -1.39411 0
M  V30 9236 H 824.303 1.27371 -3.97281 0
M  V30 9237 H 822.933 1.50565 -2.85535 0
M  V30 9238 H 821.985 -0.751063 -3.72912 0
M  V30 9239 H 823.297 -0.768798 -4.9284 0
M  V30 9240 H 822.451 1.37282 -5.90964 0
M  V30 9241 H 821.19 1.47501 -4.6486 0
M  V30 9242 H 820.195 -0.684078 -5.45528 0
M  V30 9243 H 821.42 -0.770786 -6.74712 0
M  V30 9244 H 819.366 1.44601 -6.39864 0
M  V30 9245 H 819.283 0.160666 -7.55829 0
M  V30 9246 H 820.551 1.34377 -7.6783 0
M  V30 9247 N 824.78 1.49157 -0.508906 0
M  V30 9248 C 825.73 2.26215 0.284705 0
M  V30 9249 C 826.714 1.31401 0.928586 0
M  V30 9250 O 827.906 1.56073 0.834877 0
M  V30 9251 C 825.035 3.15906 1.34382 0
M  V30 9252 C 824.121 4.18186 0.705785 0
M  V30 9253 N 824.512 5.05419 -0.196214 0
M  V30 9254 C 822.81 4.35425 0.965457 0
M  V30 9255 C 823.511 5.78977 -0.562222 0
M  V30 9256 N 822.487 5.43553 0.0717389 0
M  V30 9257 H 826.289 2.91033 -0.409543 0
M  V30 9258 H 823.803 1.59104 -0.325508 0
M  V30 9259 H 825.8 3.6975 1.92589 0
M  V30 9260 H 824.46 2.52642 2.03966 0
M  V30 9261 H 825.471 5.14781 -0.567526 0
M  V30 9262 H 822.148 3.83363 1.65346 0
M  V30 9263 H 823.538 6.59192 -1.30062 0
M  V30 9264 N 826.258 0.243083 1.55714 0
M  V30 9265 C 827.188 -0.652336 2.24203 0
M  V30 9266 C 828.169 -1.1843 1.221 0
M  V30 9267 O 829.354 -1.22435 1.50743 0
M  V30 9268 C 826.484 -1.85111 2.93856 0
M  V30 9269 C 825.438 -1.45208 4.02615 0
M  V30 9270 C 824.764 -2.73137 4.59674 0
M  V30 9271 C 826.064 -0.625988 5.18535 0
M  V30 9272 H 827.758 -0.0812504 2.9929 0
M  V30 9273 H 825.304 -0.0376388 1.43951 0
M  V30 9274 H 827.257 -2.48314 3.40468 0
M  V30 9275 H 825.981 -2.44751 2.16251 0
M  V30 9276 H 824.64 -0.843406 3.56766 0
M  V30 9277 H 824.288 -3.30967 3.78774 0
M  V30 9278 H 823.988 -2.47163 5.33089 0
M  V30 9279 H 825.512 -3.37245 5.09017 0
M  V30 9280 H 826.926 -1.16223 5.61396 0
M  V30 9281 H 825.323 -0.462465 5.98315 0
M  V30 9282 H 826.393 0.362652 4.83542 0
M  V30 9283 N 827.736 -1.57571 -0.0300757 0
M  V30 9284 C 828.666 -2.0953 -1.03051 0
M  V30 9285 C 829.647 -0.99761 -1.37774 0
M  V30 9286 O 830.832 -1.27279 -1.46676 0
M  V30 9287 C 827.962 -2.57385 -2.33174 0
M  V30 9288 C 826.916 -3.71409 -2.12696 0
M  V30 9289 C 826.242 -4.05467 -3.4857 0
M  V30 9290 C 827.542 -4.99877 -1.51396 0
M  V30 9291 H 829.236 -2.93367 -0.597999 0
M  V30 9292 H 826.782 -1.41127 -0.286203 0
M  V30 9293 H 828.735 -2.92355 -3.03491 0
M  V30 9294 H 827.459 -1.70629 -2.78484 0
M  V30 9295 H 826.118 -3.36786 -1.44813 0
M  V30 9296 H 825.766 -3.15779 -3.91526 0
M  V30 9297 H 825.466 -4.82269 -3.35694 0
M  V30 9298 H 826.99 -4.4297 -4.2025 0
M  V30 9299 H 828.404 -5.3281 -2.11629 0
M  V30 9300 H 826.801 -5.81283 -1.49098 0
M  V30 9301 H 827.871 -4.82522 -0.479676 0
M  V30 9302 N 829.214 0.302327 -1.54673 0
M  V30 9303 C 830.462 1.03565 -1.73547 0
M  V30 9304 C 830.783 1.87843 -0.523448 0
M  V30 9305 O 830.053 1.90367 0.462295 0
M  V30 9306 H 828.633 0.385358 -0.639928 0
M  V30 9307 H 831.295 0.333632 -1.92023 0
M  V30 9308 H 830.391 1.68952 -2.62415 0
M  V30 9309 N 830.692 1.47107 0.565454 0
M  V30 9310 C 831.938 1.53535 1.32495 0
M  V30 9311 C 832.271 0.193537 1.93233 0
M  V30 9312 O 831.546 -0.796956 1.77423 0
M  V30 9313 C 831.829 2.64712 2.4413 0
M  V30 9314 C 831.682 4.08482 1.88314 0
M  V30 9315 C 833.001 2.71853 3.46098 0
M  V30 9316 H 830.12 0.558926 0.480386 0
M  V30 9317 H 832.762 1.79125 0.633575 0
M  V30 9318 H 830.912 2.43023 3.03104 0
M  V30 9319 H 832.584 4.4151 1.33665 0
M  V30 9320 H 830.827 4.17148 1.19037 0
M  V30 9321 H 831.498 4.82032 2.68978 0
M  V30 9322 H 833.974 2.91397 2.97031 0
M  V30 9323 H 832.85 3.51433 4.21646 0
M  V30 9324 H 833.111 1.78584 4.04426 0
M  V30 9325 N 832.17 -0.811516 1.35101 0
M  V30 9326 C 833.08 -1.95475 1.29718 0
M  V30 9327 C 834.096 -1.72813 0.202909 0
M  V30 9328 O 835.272 -1.96725 0.431414 0
M  V30 9329 C 832.337 -3.29975 1.06385 0
M  V30 9330 C 831.398 -3.65566 2.25077 0
M  V30 9331 C 830.631 -4.93648 2.02848 0
M  V30 9332 O 830.854 -5.617 0.992442 0
M  V30 9333 O 829.788 -5.27384 2.90087 0
M  V30 9334 H 833.614 -2.02961 2.25921 0
M  V30 9335 H 831.199 -0.948583 1.15422 0
M  V30 9336 H 833.081 -4.10506 0.951999 0
M  V30 9337 H 831.756 -3.2343 0.132294 0
M  V30 9338 H 830.663 -2.85432 2.41825 0
M  V30 9339 H 831.996 -3.7681 3.16662 0
M  V30 9340 N 833.648 -1.19017 -1.03309 0
M  V30 9341 C 834.925 -0.899659 -1.73682 0
M  V30 9342 C 835.305 0.595677 -2.02521 0
M  V30 9343 O 834.653 1.55263 -1.67648 0
M  V30 9344 C 834.863 -1.75508 -3.01659 0
M  V30 9345 C 836.211 -1.98679 -3.75249 0
M  V30 9346 O 837.235 -1.72624 -3.11576 0
M  V30 9347 O 836.094 -2.42587 -4.89708 0
M  V30 9348 H 833.188 -0.334903 -0.756154 0
M  V30 9349 H 835.734 -1.29809 -1.09305 0
M  V30 9350 H 834.506 -2.7684 -2.76542 0
M  V30 9351 H 834.129 -1.35565 -3.73775 0
M  V30 9352 N 835.127 1.22348 -0.993418 0
M  V30 9353 C 836.057 2.26584 -0.564088 0
M  V30 9354 C 837.038 1.65102 0.409298 0
M  V30 9355 O 838.223 1.91872 0.299819 0
M  V30 9356 C 835.353 3.47087 0.121554 0
M  V30 9357 C 834.307 4.21009 -0.770429 0
M  V30 9358 C 833.633 5.34678 0.0481586 0
M  V30 9359 C 834.933 4.79636 -2.06752 0
M  V30 9360 H 836.627 2.62749 -1.43538 0
M  V30 9361 H 834.173 1.26303 -0.691628 0
M  V30 9362 H 836.126 4.19166 0.433303 0
M  V30 9363 H 834.85 3.1002 1.0274 0
M  V30 9364 H 833.509 3.50764 -1.06583 0
M  V30 9365 H 833.157 4.93852 0.954933 0
M  V30 9366 H 832.857 5.85061 -0.545641 0
M  V30 9367 H 834.381 6.09573 0.353991 0
M  V30 9368 H 835.795 5.43654 -1.81969 0
M  V30 9369 H 834.192 5.4036 -2.61019 0
M  V30 9370 H 835.262 3.99659 -2.74592 0
M  V30 9371 N 836.605 0.766683 1.37694 0
M  V30 9372 C 837.535 0.163432 2.32927 0
M  V30 9373 C 838.516 -0.688861 1.55527 0
M  V30 9374 O 839.701 -0.627363 1.83787 0
M  V30 9375 C 836.831 -0.720416 3.39746 0
M  V30 9376 C 835.785 0.0301718 4.27989 0
M  V30 9377 C 835.111 -0.972788 5.25776 0
M  V30 9378 C 836.411 1.20623 5.0818 0
M  V30 9379 H 838.105 0.958988 2.83626 0
M  V30 9380 H 835.651 0.462601 1.36367 0
M  V30 9381 H 837.604 -1.15221 4.05342 0
M  V30 9382 H 836.328 -1.54844 2.8756 0
M  V30 9383 H 834.987 0.442685 3.63917 0
M  V30 9384 H 834.635 -1.79522 4.69873 0
M  V30 9385 H 834.335 -0.475145 5.85676 0
M  V30 9386 H 835.859 -1.40362 5.94248 0
M  V30 9387 H 837.273 0.851341 5.66944 0
M  V30 9388 H 835.67 1.63561 5.7738 0
M  V30 9389 H 836.74 2.01281 4.41151 0
M  V30 9390 N 838.083 -1.48885 0.516809 0
M  V30 9391 C 839.015 -2.27357 -0.290061 0
M  V30 9392 C 840.028 -1.34558 -0.916406 0
M  V30 9393 O 841.217 -1.59715 -0.797073 0
M  V30 9394 C 838.317 -3.07496 -1.42476 0
M  V30 9395 C 837.49 -4.27982 -0.902793 0
M  V30 9396 C 836.549 -4.90038 -1.91701 0
M  V30 9397 O 835.575 -5.49643 -1.47922 0
M  V30 9398 N 836.777 -4.811 -3.24843 0
M  V30 9399 H 839.542 -2.97244 0.382884 0
M  V30 9400 H 837.103 -1.58064 0.35032 0
M  V30 9401 H 839.095 -3.45882 -2.10113 0
M  V30 9402 H 837.665 -2.40115 -2.00159 0
M  V30 9403 H 836.885 -3.94167 -0.0508272 0
M  V30 9404 H 838.173 -5.06003 -0.532723 0
M  V30 9405 H 837.571 -4.33801 -3.63088 0
M  V30 9406 H 836.128 -5.23625 -3.8815 0
M  V30 9407 N 839.561 -0.251338 -1.55583 0
M  V30 9408 C 840.508 0.646337 -2.21565 0
M  V30 9409 C 841.478 1.16796 -1.18102 0
M  V30 9410 O 842.663 1.22162 -1.46564 0
M  V30 9411 C 839.803 1.83557 -2.92234 0
M  V30 9412 C 838.916 1.35006 -4.10363 0
M  V30 9413 C 838.051 2.4992 -4.68736 0
M  V30 9414 C 837.09 1.98253 -5.79105 0
M  V30 9415 N 836.227 3.06551 -6.31642 0
M  V30 9416 H 841.067 0.0769881 -2.97901 0
M  V30 9417 H 838.604 0.026238 -1.47077 0
M  V30 9418 H 840.562 2.53425 -3.31408 0
M  V30 9419 H 839.192 2.37733 -2.18364 0
M  V30 9420 H 838.244 0.545274 -3.76472 0
M  V30 9421 H 839.556 0.931435 -4.90026 0
M  V30 9422 H 838.71 3.27823 -5.10507 0
M  V30 9423 H 837.449 2.95086 -3.88298 0
M  V30 9424 H 836.454 1.18822 -5.36807 0
M  V30 9425 H 837.679 1.54051 -6.61396 0
M  V30 9426 H 835.625 3.51143 -5.54107 0
M  V30 9427 H 835.542 2.69033 -7.06511 0
M  V30 9428 H 836.81 3.84499 -6.78071 0
M  V30 9429 N 841.039 1.57585 0.0217189 0
M  V30 9430 C 841.989 2.03506 1.02807 0
M  V30 9431 C 842.973 0.925716 1.31603 0
M  V30 9432 O 844.165 1.18958 1.31065 0
M  V30 9433 C 841.294 2.52407 2.32693 0
M  V30 9434 C 840.38 3.70176 2.06955 0
M  V30 9435 N 840.771 4.82641 1.513 0
M  V30 9436 C 839.069 3.77691 2.37204 0
M  V30 9437 C 839.77 5.64218 1.41536 0
M  V30 9438 N 838.746 5.09557 1.89348 0
M  V30 9439 H 842.548 2.87878 0.591899 0
M  V30 9440 H 840.062 1.60793 0.227875 0
M  V30 9441 H 842.059 2.83569 3.05605 0
M  V30 9442 H 840.719 1.69444 2.76982 0
M  V30 9443 H 841.73 5.03931 1.19472 0
M  V30 9444 H 838.407 3.05542 2.84517 0
M  V30 9445 H 839.797 6.64576 0.989333 0
M  V30 9446 N 842.517 -0.29412 1.54831 0
M  V30 9447 C 843.745 -1.04724 1.78439 0
M  V30 9448 C 844.16 -1.80695 0.547239 0
M  V30 9449 O 843.517 -1.75989 -0.483141 0
M  V30 9450 C 843.568 -2.02242 2.99634 0
M  V30 9451 O 843.289 -1.29352 4.18568 0
M  V30 9452 C 844.79 -2.89537 3.35683 0
M  V30 9453 H 842.01 -0.310285 0.594949 0
M  V30 9454 H 844.554 -0.331306 2.01798 0
M  V30 9455 H 842.709 -2.69328 2.78462 0
M  V30 9456 H 843.123 -1.94901 4.86943 0
M  V30 9457 H 844.597 -3.538 4.23709 0
M  V30 9458 H 845.074 -3.58201 2.54143 0
M  V30 9459 H 845.68 -2.27973 3.59038 0
M  V30 9460 N 843.995 -1.47404 -0.557645 0
M  V30 9461 C 844.925 -1.62736 -1.67449 0
M  V30 9462 C 845.906 -0.476824 -1.6328 0
M  V30 9463 O 847.091 -0.706108 -1.80908 0
M  V30 9464 C 844.221 -1.641 -3.06086 0
M  V30 9465 C 843.175 -2.78377 -3.25101 0
M  V30 9466 C 842.501 -2.64812 -4.6452 0
M  V30 9467 C 843.801 -4.19971 -3.10518 0
M  V30 9468 H 845.495 -2.56232 -1.54873 0
M  V30 9469 H 843.041 -1.23312 -0.743649 0
M  V30 9470 H 844.994 -1.73417 -3.84063 0
M  V30 9471 H 843.718 -0.671652 -3.19619 0
M  V30 9472 H 842.377 -2.6857 -2.49531 0
M  V30 9473 H 842.025 -1.65906 -4.74852 0
M  V30 9474 H 841.725 -3.41477 -4.78191 0
M  V30 9475 H 843.249 -2.76057 -5.44633 0
M  V30 9476 H 844.663 -4.30757 -3.78313 0
M  V30 9477 H 843.06 -4.97419 -3.35699 0
M  V30 9478 H 844.13 -4.38369 -2.0727 0
M  V30 9479 N 845.473 0.80434 -1.35529 0
M  V30 9480 C 846.719 1.56385 -1.29118 0
M  V30 9481 C 847.052 1.9374 0.133536 0
M  V30 9482 O 846.327 1.6153 1.08344 0
M  V30 9483 C 846.61 2.85097 -2.19981 0
M  V30 9484 C 846.463 2.54204 -3.7108 0
M  V30 9485 C 847.782 3.86817 -2.09907 0
M  V30 9486 H 844.901 0.567382 -0.470368 0
M  V30 9487 H 847.543 0.925235 -1.6595 0
M  V30 9488 H 845.693 3.39594 -1.88701 0
M  V30 9489 H 847.365 2.05872 -4.12813 0
M  V30 9490 H 845.608 1.87364 -3.91251 0
M  V30 9491 H 846.279 3.46068 -4.30048 0
M  V30 9492 H 848.755 3.41725 -2.37409 0
M  V30 9493 H 847.631 4.7465 -2.75678 0
M  V30 9494 H 847.892 4.28663 -1.08171 0
M  V30 9495 N 846.951 1.19563 1.02676 0
M  V30 9496 C 847.861 0.950691 2.14474 0
M  V30 9497 C 848.877 -0.0900219 1.73767 0
M  V30 9498 O 850.053 0.0951063 2.01175 0
M  V30 9499 C 847.118 0.494917 3.43149 0
M  V30 9500 C 846.179 1.60527 3.98158 0
M  V30 9501 C 845.412 1.17115 5.20692 0
M  V30 9502 O 845.635 0.0355937 5.70389 0
M  V30 9503 O 844.569 1.97454 5.68591 0
M  V30 9504 H 848.395 1.88651 2.38001 0
M  V30 9505 H 845.98 0.978635 1.12885 0
M  V30 9506 H 847.862 0.249492 4.20661 0
M  V30 9507 H 846.537 -0.412434 3.21062 0
M  V30 9508 H 845.444 1.90487 3.21971 0
M  V30 9509 H 846.777 2.48925 4.24614 0
M  V30 9510 N 848.429 -1.21819 0.999893 0
M  V30 9511 C 849.392 -2.22227 0.561044 0
M  V30 9512 C 850.392 -1.56722 -0.359858 0
M  V30 9513 O 851.582 -1.73546 -0.150848 0
M  V30 9514 C 848.714 -3.40409 -0.182987 0
M  V30 9515 H 849.907 -2.62567 1.44909 0
M  V30 9516 H 847.46 -1.34991 0.78785 0
M  V30 9517 H 848.195 -3.05551 -1.08671 0
M  V30 9518 H 847.98 -3.89171 0.47833 0
M  V30 9519 H 849.47 -4.14856 -0.477952 0
M  V30 9520 N 849.908 -0.773975 -1.37286 0
M  V30 9521 C 851.185 -0.263942 -1.93811 0
M  V30 9522 C 851.565 1.24138 -1.70743 0
M  V30 9523 O 850.913 2.02557 -1.05749 0
M  V30 9524 C 851.123 -0.639753 -3.43086 0
M  V30 9525 C 852.471 -0.610796 -4.20184 0
M  V30 9526 O 853.495 -0.579278 -3.51458 0
M  V30 9527 O 852.354 -0.639862 -5.42741 0
M  V30 9528 H 849.448 -0.0614331 -0.824715 0
M  V30 9529 H 851.994 -0.855477 -1.46559 0
M  V30 9530 H 850.766 -1.67856 -3.53469 0
M  V30 9531 H 850.389 -0.0212827 -3.97594 0
M  V30 9532 N 851.386 1.48609 -0.524698 0
M  V30 9533 C 852.635 2.01696 0.0132937 0
M  V30 9534 C 852.948 1.40751 1.35825 0
M  V30 9535 O 854.154 1.85304 1.9843 0
M  V30 9536 C 852.61 3.59824 0.0741012 0
M  V30 9537 C 852.218 4.2975 -1.26564 0
M  V30 9538 C 853.962 4.20774 0.5612 0
M  V30 9539 C 851.869 5.79798 -1.16571 0
M  V30 9540 H 850.799 0.753949 0.00873931 0
M  V30 9541 H 853.45 1.70922 -0.667684 0
M  V30 9542 H 851.832 3.87416 0.820043 0
M  V30 9543 H 853.006 4.13836 -2.02674 0
M  V30 9544 H 851.321 3.80649 -1.68806 0
M  V30 9545 H 853.918 5.30687 0.653853 0
M  V30 9546 H 854.261 3.85734 1.56573 0
M  V30 9547 H 854.794 3.97591 -0.128901 0
M  V30 9548 H 851.533 6.19403 -2.14523 0
M  V30 9549 H 851.053 5.9814 -0.445894 0
M  V30 9550 H 852.732 6.41337 -0.854186 0
M  V30 9551 N 852.864 0.259585 1.55447 0
M  V30 9552 C 854.112 -0.360893 1.98852 0
M  V30 9553 C 854.433 -1.57535 1.14924 0
M  V30 9554 O 853.703 -1.94485 0.235025 0
M  V30 9555 H 852.283 -0.136332 0.734454 0
M  V30 9556 H 854.945 0.361319 1.91522 0
M  V30 9557 H 854.041 -0.661388 3.05012 0
M  V30 9558 N 854.342 -1.57594 -0.0133615 0
M  V30 9559 C 855.591 -1.8916 -0.700103 0
M  V30 9560 C 855.904 -0.860147 -1.75673 0
M  V30 9561 O 857.11 -1.06556 -2.49716 0
M  V30 9562 C 855.566 -3.35742 -1.29635 0
M  V30 9563 C 855.174 -4.47154 -0.275249 0
M  V30 9564 C 856.918 -3.76436 -1.96205 0
M  V30 9565 C 854.825 -5.84805 -0.880726 0
M  V30 9566 H 853.755 -0.705805 -0.265247 0
M  V30 9567 H 856.406 -1.83445 0.044993 0
M  V30 9568 H 854.788 -3.36252 -2.09167 0
M  V30 9569 H 855.962 -4.58139 0.494506 0
M  V30 9570 H 854.277 -4.15394 0.289256 0
M  V30 9571 H 856.874 -4.76606 -2.42386 0
M  V30 9572 H 857.217 -3.09249 -2.78695 0
M  V30 9573 H 857.75 -3.78168 -1.23426 0
M  V30 9574 H 854.489 -6.55431 -0.0949013 0
M  V30 9575 H 854.009 -5.7751 -1.61995 0
M  V30 9576 H 855.688 -6.32038 -1.38338 0
M  V30 9577 N 855.82 0.285905 -1.54985 0
M  V30 9578 C 856.752 1.37505 -1.83371 0
M  V30 9579 C 857.765 1.46138 -0.717454 0
M  V30 9580 O 858.954 1.48186 -0.995142 0
M  V30 9581 C 856.054 2.7575 -1.97016 0
M  V30 9582 C 855.227 2.89866 -3.27561 0
M  V30 9583 C 854.286 4.08704 -3.31433 0
M  V30 9584 O 853.312 4.00073 -4.04883 0
M  V30 9585 N 854.514 5.20062 -2.57907 0
M  V30 9586 H 857.279 1.13505 -2.77375 0
M  V30 9587 H 854.84 0.476006 -1.54744 0
M  V30 9588 H 856.832 3.5352 -1.96991 0
M  V30 9589 H 855.402 2.9263 -1.09938 0
M  V30 9590 H 854.622 1.99085 -3.40234 0
M  V30 9591 H 855.91 2.96219 -4.13681 0
M  V30 9592 H 855.308 5.29958 -1.97891 0
M  V30 9593 H 853.865 5.96111 -2.63619 0
M  V30 9594 N 857.298 1.47698 0.54982 0
M  V30 9595 C 858.261 1.60282 1.63837 0
M  V30 9596 C 859.261 0.477394 1.5355 0
M  V30 9597 O 860.451 0.742665 1.57576 0
M  V30 9598 C 857.583 1.55431 3.03404 0
M  V30 9599 H 858.776 2.57325 1.54026 0
M  V30 9600 H 856.329 1.35999 0.770329 0
M  V30 9601 H 857.064 0.597912 3.1874 0
M  V30 9602 H 856.849 2.37116 3.12279 0
M  V30 9603 H 858.339 1.6739 3.82584 0
M  V30 9604 N 858.776 -0.797141 1.35954 0
M  V30 9605 C 859.686 -1.94088 1.31784 0
M  V30 9606 C 860.702 -1.72588 0.221227 0
M  V30 9607 O 861.878 -1.96256 0.452255 0
M  V30 9608 C 858.943 -3.28828 1.09878 0
M  V30 9609 C 858.004 -3.63158 2.28942 0
M  V30 9610 C 857.237 -4.91469 2.08072 0
M  V30 9611 O 857.46 -5.60616 1.05196 0
M  V30 9612 O 856.394 -5.24277 2.95664 0
M  V30 9613 H 860.22 -2.00554 2.28061 0
M  V30 9614 H 857.805 -0.936288 1.16422 0
M  V30 9615 H 859.687 -4.09473 0.995485 0
M  V30 9616 H 858.362 -3.23271 0.16659 0
M  V30 9617 H 857.269 -2.82851 2.44839 0
M  V30 9618 H 858.602 -3.7343 3.20641 0
M  V30 9619 N 860.254 -1.20106 -1.0204 0
M  V30 9620 C 861.67 -0.955099 -1.27867 0
M  V30 9621 C 861.87 0.367595 -1.98119 0
M  V30 9622 O 860.926 1.09705 -2.27423 0
M  V30 9623 C 862.239 -2.13507 -2.11744 0
M  V30 9624 C 863.787 -2.17563 -2.25023 0
M  V30 9625 C 864.262 -3.35035 -3.12275 0
M  V30 9626 N 865.753 -3.35024 -3.19864 0
M  V30 9627 C 866.488 -4.22566 -3.8759 0
M  V30 9628 N 865.984 -5.20278 -4.57474 0
M  V30 9629 N 867.777 -4.10418 -3.84075 0
M  V30 9630 H 859.928 -2.05193 -0.54861 0
M  V30 9631 H 862.191 -0.897689 -0.304728 0
M  V30 9632 H 861.897 -3.09275 -1.67456 0
M  V30 9633 H 861.771 -2.11281 -3.12474 0
M  V30 9634 H 864.158 -1.22359 -2.68537 0
M  V30 9635 H 864.239 -2.23838 -1.23815 0
M  V30 9636 H 863.883 -4.30522 -2.69468 0
M  V30 9637 H 863.813 -3.25996 -4.13563 0
M  V30 9638 H 866.304 -2.64299 -2.701 0
M  V30 9639 H 866.617 -5.83408 -5.06809 0
M  V30 9640 H 864.962 -5.24219 -4.56311 0
M  V30 9641 H 868.153 -3.33353 -3.28623 0
M  V30 9642 H 868.326 -4.78854 -4.36581 0
M  V30 9643 N 861.732 1.21287 -1.00634 0
M  V30 9644 C 862.978 1.90671 -0.690822 0
M  V30 9645 C 863.311 1.77996 0.776592 0
M  V30 9646 O 862.586 1.15748 1.5631 0
M  V30 9647 C 862.869 3.42426 -1.11428 0
M  V30 9648 C 862.722 3.64086 -2.64124 0
M  V30 9649 C 864.041 4.34851 -0.677686 0
M  V30 9650 H 861.16 0.692419 -0.252439 0
M  V30 9651 H 863.802 1.42893 -1.25226 0
M  V30 9652 H 861.952 3.83249 -0.636586 0
M  V30 9653 H 863.624 3.32582 -3.19667 0
M  V30 9654 H 861.867 3.07906 -3.05576 0
M  V30 9655 H 862.538 4.7042 -2.88806 0
M  V30 9656 H 865.014 4.01619 -1.0882 0
M  V30 9657 H 863.89 5.39675 -1.00213 0
M  V30 9658 H 864.151 4.4009 0.421125 0
M  V30 9659 N 863.21 0.781244 1.36873 0
M  V30 9660 C 864.626 0.461968 1.52768 0
M  V30 9661 C 864.826 -1.02099 1.73719 0
M  V30 9662 O 863.882 -1.80665 1.76399 0
M  V30 9663 C 865.195 1.2853 2.71846 0
M  V30 9664 C 866.743 1.27817 2.85713 0
M  V30 9665 C 867.218 2.08506 4.07786 0
M  V30 9666 N 868.709 2.05909 4.14917 0
M  V30 9667 C 869.444 2.65118 5.08429 0
M  V30 9668 N 868.94 3.33152 6.07438 0
M  V30 9669 N 870.733 2.54896 5.00983 0
M  V30 9670 H 862.884 1.74198 1.21527 0
M  V30 9671 H 865.147 0.740027 0.592506 0
M  V30 9672 H 864.853 2.3366 2.62861 0
M  V30 9673 H 864.727 0.920981 3.65784 0
M  V30 9674 H 867.114 0.234817 2.94164 0
M  V30 9675 H 867.195 1.68219 1.92707 0
M  V30 9676 H 866.839 3.12867 4.00096 0
M  V30 9677 H 866.769 1.65479 4.99924 0
M  V30 9678 H 869.26 1.56386 3.44023 0
M  V30 9679 H 869.573 3.75681 6.75339 0
M  V30 9680 H 867.918 3.37253 6.07689 0
M  V30 9681 H 871.109 2.01352 4.22581 0
M  V30 9682 H 871.282 3.01332 5.73675 0
M  V30 9683 N 864.689 -1.48329 0.532571 0
M  V30 9684 C 865.937 -2.021 -0.000581206 0
M  V30 9685 C 866.258 -1.4117 -1.34522 0
M  V30 9686 O 865.528 -0.578005 -1.87179 0
M  V30 9687 H 864.108 -0.746993 -0.00320281 0
M  V30 9688 H 866.77 -1.82011 0.696991 0
M  V30 9689 H 865.866 -3.11917 -0.106991 0
M  V30 9690 N 866.167 -0.267825 -1.55308 0
M  V30 9691 C 867.413 0.351556 -1.9973 0
M  V30 9692 C 867.746 1.56049 -1.15596 0
M  V30 9693 O 867.021 1.93203 -0.224274 0
M  V30 9694 C 867.304 0.74091 -3.52395 0
M  V30 9695 C 867.157 -0.474861 -4.47286 0
M  V30 9696 C 868.476 1.5801 -4.10756 0
M  V30 9697 H 865.595 0.126308 -0.726096 0
M  V30 9698 H 868.237 -0.373316 -1.86296 0
M  V30 9699 H 866.387 1.35851 -3.63973 0
M  V30 9700 H 868.059 -1.1134 -4.47662 0
M  V30 9701 H 866.302 -1.11425 -4.19246 0
M  V30 9702 H 866.973 -0.158782 -5.51772 0
M  V30 9703 H 869.449 1.05857 -4.0241 0
M  V30 9704 H 868.325 1.82135 -5.17801 0
M  V30 9705 H 868.586 2.55878 -3.60526 0
M  V30 9706 N 867.645 1.57599 0.00500368 0
M  V30 9707 C 868.593 2.09223 1.01628 0
M  V30 9708 C 869.587 1.01113 1.35913 0
M  V30 9709 O 870.793 1.19583 1.34536 0
M  V30 9710 H 867.168 0.667999 0.345372 0
M  V30 9711 H 869.139 2.93188 0.555274 0
M  V30 9712 C 867.888 2.60674 2.30097 0
M  V30 9713 H 867.211 3.43491 2.04582 0
M  V30 9714 H 868.651 3.00479 2.99146 0
M  V30 9715 C 867.11 1.51862 3.00731 0
M  V30 9716 O 867.64 0.898651 3.91519 0
M  V30 9717 N 865.846 1.24729 2.62471 0
M  V30 9718 H 865.393 1.7533 1.88725 0
M  V30 9719 H 865.351 0.521437 3.10046 0
M  V30 9720 N 869.123 -0.277682 1.55134 0
M  V30 9721 C 870.086 -1.32635 1.86924 0
M  V30 9722 C 871.086 -1.42578 0.743507 0
M  V30 9723 O 872.276 -1.4181 1.01171 0
M  V30 9724 C 869.408 -2.70832 2.07034 0
M  V30 9725 H 870.601 -1.0568 2.80663 0
M  V30 9726 H 868.154 -0.515517 1.47554 0
M  V30 9727 H 868.889 -3.02974 1.15661 0
M  V30 9728 H 868.674 -2.65001 2.88993 0
M  V30 9729 H 870.164 -3.46611 2.32918 0
M  V30 9730 N 870.601 -1.47988 -0.541979 0
M  V30 9731 C 871.826 -1.59286 -1.32826 0
M  V30 9732 C 872.251 -0.24894 -1.86445 0
M  V30 9733 O 871.609 0.777581 -1.63778 0
M  V30 9734 C 871.657 -2.6334 -2.46343 0
M  V30 9735 O 870.761 -2.19667 -3.49028 0
M  V30 9736 H 870.102 -0.534543 -0.393903 0
M  V30 9737 H 872.632 -1.93885 -0.653427 0
M  V30 9738 H 872.642 -2.84238 -2.92699 0
M  V30 9739 H 871.317 -3.60913 -2.06675 0
M  V30 9740 H 869.894 -2.08932 -3.08872 0
M  V30 9741 N 872.079 0.78992 -1.36375 0
M  V30 9742 C 873.042 1.88414 -1.30509 0
M  V30 9743 C 874.042 1.59384 -0.2129 0
M  V30 9744 O 875.232 1.67805 -0.467651 0
M  V30 9745 C 872.364 3.25188 -1.02302 0
M  V30 9746 H 873.557 1.95031 -2.27822 0
M  V30 9747 H 871.11 0.987664 -1.2114 0
M  V30 9748 H 871.845 3.24254 -0.0544486 0
M  V30 9749 H 871.63 3.47647 -1.81338 0
M  V30 9750 H 873.12 4.05252 -1.00801 0
M  V30 9751 N 873.557 1.20646 1.01402 0
M  V30 9752 C 874.489 0.915392 2.10127 0
M  V30 9753 C 875.502 -0.0978705 1.62506 0
M  V30 9754 O 876.691 0.133477 1.78 0
M  V30 9755 C 873.791 0.351304 3.37074 0
M  V30 9756 C 872.964 1.41673 4.13821 0
M  V30 9757 C 872.023 0.8635 5.19067 0
M  V30 9758 O 871.049 1.54481 5.47836 0
M  V30 9759 N 872.251 -0.325799 5.79585 0
M  V30 9760 H 875.016 1.85132 2.35682 0
M  V30 9761 H 872.577 1.11048 1.17813 0
M  V30 9762 H 874.569 -0.032996 4.04687 0
M  V30 9763 H 873.139 -0.489242 3.08748 0
M  V30 9764 H 872.359 1.97526 3.41141 0
M  V30 9765 H 873.647 2.1342 4.61876 0
M  V30 9766 H 873.045 -0.896534 5.58551 0
M  V30 9767 H 871.602 -0.651708 6.48534 0
M  V30 9768 N 875.035 -1.20752 1.01276 0
M  V30 9769 C 875.982 -2.234 0.579732 0
M  V30 9770 C 876.952 -1.61256 -0.398206 0
M  V30 9771 O 878.137 -1.8845 -0.29851 0
M  V30 9772 C 875.277 -3.45008 -0.0797006 0
M  V30 9773 C 874.39 -4.21597 0.942343 0
M  V30 9774 C 873.525 -5.30591 0.254364 0
M  V30 9775 C 872.564 -5.98919 1.26343 0
M  V30 9776 N 871.701 -6.99511 0.602384 0
M  V30 9777 H 876.541 -2.59801 1.45971 0
M  V30 9778 H 874.078 -1.27663 0.730787 0
M  V30 9779 H 876.036 -4.1444 -0.479125 0
M  V30 9780 H 874.666 -3.09312 -0.923354 0
M  V30 9781 H 873.718 -3.51268 1.45996 0
M  V30 9782 H 875.03 -4.68576 1.70992 0
M  V30 9783 H 874.184 -6.06368 -0.200763 0
M  V30 9784 H 872.923 -4.84639 -0.545553 0
M  V30 9785 H 871.928 -5.21906 1.72898 0
M  V30 9786 H 873.153 -6.46957 2.06456 0
M  V30 9787 H 871.099 -6.55759 -0.177734 0
M  V30 9788 H 871.016 -7.44597 1.30809 0
M  V30 9789 H 872.284 -7.79313 0.17072 0
M  V30 9790 N 876.513 -0.788492 -1.36457 0
M  V30 9791 C 877.76 -0.360461 -1.99266 0
M  V30 9792 C 878.088 1.0676 -1.62581 0
M  V30 9793 O 877.343 1.75205 -0.871884 0
M  V30 9794 C 877.642 -0.470255 -3.54293 0
M  V30 9795 C 877.308 -1.85899 -4.10795 0
M  V30 9796 C 875.97 -2.23896 -4.25939 0
M  V30 9797 C 878.322 -2.76836 -4.41601 0
M  V30 9798 C 875.65 -3.52235 -4.69199 0
M  V30 9799 C 878.002 -4.04602 -4.86292 0
M  V30 9800 C 876.666 -4.42623 -4.99641 0
M  V30 9801 H 875.936 -0.131902 -0.729166 0
M  V30 9802 H 878.583 -1.00577 -1.62962 0
M  V30 9803 H 876.888 0.258559 -3.90946 0
M  V30 9804 H 878.585 -0.120119 -4.0082 0
M  V30 9805 H 875.175 -1.55372 -3.99447 0
M  V30 9806 H 879.359 -2.48735 -4.2947 0
M  V30 9807 H 874.615 -3.81565 -4.77722 0
M  V30 9808 H 878.789 -4.75182 -5.09092 0
M  V30 9809 H 876.416 -5.42125 -5.32921 0
M  V30 9810 N 877.991 1.48044 -0.54043 0
M  V30 9811 C 878.954 2.28273 0.205966 0
M  V30 9812 C 879.954 1.35983 0.858209 0
M  V30 9813 O 881.144 1.58776 0.716651 0
M  V30 9814 C 878.276 3.15174 1.29917 0
M  V30 9815 H 879.469 2.95727 -0.498555 0
M  V30 9816 H 877.022 1.53457 -0.296745 0
M  V30 9817 H 877.757 2.52374 2.03661 0
M  V30 9818 H 877.542 3.83074 0.836475 0
M  V30 9819 H 879.032 3.75666 1.82387 0
M  V30 9820 N 879.47 0.276058 1.55163 0
M  V30 9821 C 880.698 -0.343772 2.04024 0
M  V30 9822 C 881.113 -1.49397 1.15438 0
M  V30 9823 O 880.47 -1.81662 0.174692 0
M  V30 9824 C 880.521 -0.823885 3.51986 0
M  V30 9825 O 880.242 0.280507 4.37201 0
M  V30 9826 C 881.743 -1.51143 4.16738 0
M  V30 9827 H 878.963 -0.07828 0.666418 0
M  V30 9828 H 881.507 0.408427 2.0038 0
M  V30 9829 H 879.662 -1.52617 3.56071 0
M  V30 9830 H 880.076 -0.0887831 5.24425 0
M  V30 9831 H 881.55 -1.79878 5.2187 0
M  V30 9832 H 882.027 -2.44327 3.64967 0
M  V30 9833 H 882.633 -0.852975 4.16659 0
M  V30 9834 N 880.948 -1.576 0.00335426 0
M  V30 9835 C 882.225 -1.81945 -0.718015 0
M  V30 9836 C 882.605 -0.881788 -1.91801 0
M  V30 9837 O 881.953 0.0687118 -2.28397 0
M  V30 9838 C 882.163 -3.30521 -1.12058 0
M  V30 9839 C 883.511 -3.96345 -1.52303 0
M  V30 9840 O 884.535 -3.34864 -1.21428 0
M  V30 9841 O 883.394 -5.04655 -2.09728 0
M  V30 9842 H 880.488 -0.749328 -0.34991 0
M  V30 9843 H 883.034 -1.69675 0.0290654 0
M  V30 9844 H 881.806 -3.90399 -0.265378 0
M  V30 9845 H 881.429 -3.47802 -1.92665 0
M  V30 9846 N 882.426 0.269451 -1.5528 0
M  V30 9847 C 883.674 0.998604 -1.75705 0
M  V30 9848 C 883.995 1.86691 -0.563175 0
M  V30 9849 O 883.265 1.91305 0.421811 0
M  V30 9850 H 881.845 0.371698 -0.647958 0
M  V30 9851 H 884.507 0.292826 -1.92688 0
M  V30 9852 H 883.603 1.63348 -2.6594 0
M  V30 9853 N 883.904 1.48273 0.534124 0
M  V30 9854 C 884.814 1.65162 1.66609 0
M  V30 9855 C 885.83 0.534177 1.65598 0
M  V30 9856 O 887.006 0.804715 1.84625 0
M  V30 9857 C 884.071 1.68354 3.03081 0
M  V30 9858 C 883.132 2.91696 3.1498 0
M  V30 9859 C 882.365 2.94725 4.44941 0
M  V30 9860 O 882.588 2.06285 5.31792 0
M  V30 9861 O 881.522 3.8685 4.61119 0
M  V30 9862 H 885.348 2.60991 1.55298 0
M  V30 9863 H 882.933 1.31626 0.706749 0
M  V30 9864 H 884.815 1.72998 3.84252 0
M  V30 9865 H 883.49 0.756978 3.14725 0
M  V30 9866 H 882.397 2.92586 2.33119 0
M  V30 9867 H 883.73 3.83722 3.0825 0
M  V30 9868 N 885.382 -0.782676 1.36792 0
M  V30 9869 C 886.63 -1.53778 1.31136 0
M  V30 9870 C 886.951 -1.94706 -0.107014 0
M  V30 9871 O 886.221 -1.65465 -1.04872 0
M  V30 9872 H 884.801 -0.570328 0.482426 0
M  V30 9873 H 887.463 -0.932181 1.71162 0
M  V30 9874 H 886.559 -2.44224 1.94321 0
M  V30 9875 N 886.86 -1.21182 -1.00761 0
M  V30 9876 C 888.09 -1.05182 -1.77821 0
M  V30 9877 C 888.498 0.401527 -1.8489 0
M  V30 9878 O 887.841 1.29042 -1.30743 0
M  V30 9879 C 887.903 -1.57066 -3.23374 0
M  V30 9880 C 887.567 -3.05491 -3.39889 0
M  V30 9881 C 888.564 -4.03065 -3.28381 0
M  V30 9882 C 886.249 -3.44641 -3.65415 0
M  V30 9883 C 888.243 -5.37778 -3.4216 0
M  V30 9884 C 885.93 -4.79507 -3.78836 0
M  V30 9885 C 886.928 -5.75884 -3.67214 0
M  V30 9886 O 886.616 -7.08304 -3.80212 0
M  V30 9887 H 886.348 -0.369983 -0.565763 0
M  V30 9888 H 888.902 -1.60914 -1.27655 0
M  V30 9889 H 887.132 -0.957273 -3.74664 0
M  V30 9890 H 888.821 -1.36949 -3.82099 0
M  V30 9891 H 889.587 -3.74163 -3.08588 0
M  V30 9892 H 885.466 -2.7016 -3.73544 0
M  V30 9893 H 889.01 -6.12987 -3.33005 0
M  V30 9894 H 884.907 -5.08096 -3.98132 0
M  V30 9895 H 885.675 -7.15677 -3.97175 0
M  V30 9896 N 888.338 1.20213 -1.01915 0
M  V30 9897 C 889.285 2.2309 -0.591571 0
M  V30 9898 C 890.255 1.61465 0.389649 0
M  V30 9899 O 891.44 1.88606 0.288511 0
M  V30 9900 C 888.58 3.45045 0.0614028 0
M  V30 9901 C 887.693 4.21091 -0.964688 0
M  V30 9902 C 886.828 5.30448 -0.282499 0
M  V30 9903 C 885.867 5.98241 -1.29517 0
M  V30 9904 N 885.004 6.99182 -0.639472 0
M  V30 9905 H 889.844 2.59023 -1.47347 0
M  V30 9906 H 887.381 1.27274 -0.737547 0
M  V30 9907 H 889.339 4.14688 0.45714 0
M  V30 9908 H 887.969 3.09797 0.906937 0
M  V30 9909 H 887.021 3.50489 -1.47857 0
M  V30 9910 H 888.333 4.67662 -1.73475 0
M  V30 9911 H 887.487 6.06466 0.168603 0
M  V30 9912 H 886.226 4.84922 0.519843 0
M  V30 9913 H 885.231 5.20982 -1.75663 0
M  V30 9914 H 886.456 6.45853 -2.09884 0
M  V30 9915 H 884.402 6.55844 0.142955 0
M  V30 9916 H 884.319 7.43893 -1.34756 0
M  V30 9917 H 885.587 7.79212 -0.212047 0
M  V30 9918 N 889.816 0.795718 1.36037 0
M  V30 9919 C 891.227 0.433379 1.816 0
M  V30 9920 C 891.578 -1.04341 1.66155 0
M  V30 9921 O 890.703 -1.81004 1.18603 0
M  V30 9922 C 891.298 0.77985 3.29703 0
M  V30 9923 C 889.857 0.470256 3.73451 0
M  V30 9924 C 889.004 1.01119 2.58206 0
M  V30 9925 H 891.955 0.988317 1.24169 0
M  V30 9926 H 891.976 0.0732898 3.80429 0
M  V30 9927 H 891.488 1.85473 3.40913 0
M  V30 9928 H 889.589 -0.596332 3.67797 0
M  V30 9929 H 889.702 0.995276 4.68648 0
M  V30 9930 H 888.066 0.434077 2.50974 0
M  V30 9931 H 888.849 2.09196 2.72198 0
M  V30 9932 N 891.294 -1.47756 0.548274 0
M  V30 9933 C 892.534 -2.04387 0.0231354 0
M  V30 9934 C 892.898 -1.41438 -1.29843 0
M  V30 9935 O 894.099 -1.89064 -1.91072 0
M  V30 9936 C 892.37 -3.57316 -0.077482 0
M  V30 9937 S 893.929 -4.35339 -0.550038 0
M  V30 9938 H 890.747 -0.710694 0.0208428 0
M  V30 9939 H 893.349 -1.81239 0.732984 0
M  V30 9940 H 892.053 -4.00658 0.88888 0
M  V30 9941 H 891.584 -3.84947 -0.811157 0
M  V30 9942 H 893.599 -4.61957 -1.81135 0
M  V30 9943 N 892.772 -0.284283 -1.55015 0
M  V30 9944 C 894.049 0.382125 -1.91831 0
M  V30 9945 C 894.429 1.73007 -1.20962 0
M  V30 9946 O 893.777 2.25962 -0.339594 0
M  V30 9947 C 893.987 0.513341 -3.45204 0
M  V30 9948 C 895.335 0.791989 -4.17148 0
M  V30 9949 O 896.359 0.597799 -3.51148 0
M  V30 9950 O 895.218 1.16394 -5.33961 0
M  V30 9951 H 892.312 0.210707 -0.799707 0
M  V30 9952 H 894.858 -0.331111 -1.66438 0
M  V30 9953 H 893.63 -0.434911 -3.88876 0
M  V30 9954 H 893.253 1.27569 -3.76579 0
M  V30 9955 N 894.251 1.57596 -0.0117121 0
M  V30 9956 C 895.662 1.79033 0.529521 0
M  V30 9957 C 896.013 0.920299 1.73277 0
M  V30 9958 O 895.138 0.125934 2.16033 0
M  V30 9959 C 895.733 3.24695 0.967405 0
M  V30 9960 C 894.292 3.47188 1.45387 0
M  V30 9961 C 893.439 2.74245 0.410466 0
M  V30 9962 H 896.39 1.56908 -0.237836 0
M  V30 9963 H 896.411 3.33451 1.83278 0
M  V30 9964 H 895.923 3.87992 0.0914605 0
M  V30 9965 H 894.024 2.89121 2.35032 0
M  V30 9966 H 894.137 4.55886 1.47325 0
M  V30 9967 H 892.501 2.39209 0.874721 0
M  V30 9968 H 893.284 3.40248 -0.456713 0
M  V30 9969 N 895.729 -0.261212 1.5542 0
M  V30 9970 C 896.661 -1.34571 1.85535 0
M  V30 9971 C 897.674 -1.44979 0.740612 0
M  V30 9972 O 898.863 -1.46584 1.01859 0
M  V30 9973 C 895.963 -2.7258 2.01378 0
M  V30 9974 C 895.136 -2.84618 3.32131 0
M  V30 9975 C 894.195 -4.03379 3.37893 0
M  V30 9976 O 893.221 -3.93581 4.11197 0
M  V30 9977 N 894.423 -5.15893 2.66148 0
M  V30 9978 H 897.188 -1.09078 2.79145 0
M  V30 9979 H 894.749 -0.451327 1.55482 0
M  V30 9980 H 896.741 -3.50342 2.0259 0
M  V30 9981 H 895.311 -2.90844 1.14579 0
M  V30 9982 H 894.531 -1.93647 3.43358 0
M  V30 9983 H 895.819 -2.896 4.18341 0
M  V30 9984 H 895.217 -5.26743 2.06297 0
M  V30 9985 H 893.774 -5.91842 2.73069 0
M  V30 9986 N 897.207 -1.48554 -0.526253 0
M  V30 9987 C 898.453 -1.56994 -1.28378 0
M  V30 9988 C 898.786 -0.244701 -1.92652 0
M  V30 9989 O 898.061 0.749636 -1.79473 0
M  V30 9990 C 898.344 -2.71092 -2.37026 0
M  V30 9991 C 898.197 -4.13331 -1.77418 0
M  V30 9992 C 899.516 -2.80934 -3.38769 0
M  V30 9993 H 896.635 -0.571466 -0.465398 0
M  V30 9994 H 899.277 -1.80742 -0.585861 0
M  V30 9995 H 897.427 -2.50973 -2.96555 0
M  V30 9996 H 899.099 -4.44899 -1.21912 0
M  V30 9997 H 897.342 -4.20158 -1.07936 0
M  V30 9998 H 898.013 -4.88994 -2.56104 0
M  V30 9999 H 900.489 -2.9917 -2.892 0
M  V30 10000 H 899.365 -3.62489 -4.12181 0
M  V30 10001 H 899.626 -1.89244 -3.99549 0
M  V30 10002 N 898.685 0.775411 -1.37205 0
M  V30 10003 C 899.934 1.52909 -1.31536 0
M  V30 10004 C 900.247 1.9535 0.0989374 0
M  V30 10005 O 901.453 2.70072 0.278079 0
M  V30 10006 C 899.909 2.761 -2.30861 0
M  V30 10007 C 899.517 2.40773 -3.77799 0
M  V30 10008 C 901.261 3.54052 -2.34195 0
M  V30 10009 C 899.168 3.60444 -4.68865 0
M  V30 10010 H 898.098 0.574061 -0.488845 0
M  V30 10011 H 900.749 0.849642 -1.62645 0
M  V30 10012 H 899.131 3.45916 -1.92764 0
M  V30 10013 H 900.305 1.78764 -4.24712 0
M  V30 10014 H 898.62 1.76004 -3.77375 0
M  V30 10015 H 901.217 4.42992 -2.99437 0
M  V30 10016 H 901.56 3.93649 -1.35449 0
M  V30 10017 H 902.093 2.91229 -2.7098 0
M  V30 10018 H 898.832 3.25932 -5.68725 0
M  V30 10019 H 898.352 4.21571 -4.26659 0
M  V30 10020 H 900.031 4.27302 -4.85821 0
M  V30 10021 N 900.163 1.21714 1.00117 0
M  V30 10022 C 901.579 0.97532 1.26332 0
M  V30 10023 C 901.779 -0.336029 1.98678 0
M  V30 10024 O 900.835 -1.06073 2.29139 0
M  V30 10025 C 902.148 2.16848 2.0832 0
M  V30 10026 C 903.696 2.21115 2.21533 0
M  V30 10027 C 904.171 3.3996 3.06906 0
M  V30 10028 N 905.662 3.40071 3.14494 0
M  V30 10029 C 906.397 4.28678 3.80818 0
M  V30 10030 N 905.893 5.2749 4.49139 0
M  V30 10031 N 907.686 4.16476 3.77497 0
M  V30 10032 H 899.837 2.06039 0.515897 0
M  V30 10033 H 902.1 0.902423 0.290408 0
M  V30 10034 H 901.806 3.119 1.62515 0
M  V30 10035 H 901.68 2.16226 3.09073 0
M  V30 10036 H 904.067 1.26616 2.66557 0
M  V30 10037 H 904.148 2.2578 1.20238 0
M  V30 10038 H 903.792 4.34755 2.62585 0
M  V30 10039 H 903.722 3.32534 4.08324 0
M  V30 10040 H 906.213 2.68563 2.65861 0
M  V30 10041 H 906.526 5.91397 4.97463 0
M  V30 10042 H 904.871 5.31412 4.47914 0
M  V30 10043 H 908.062 3.38539 3.23278 0
M  V30 10044 H 908.235 4.85739 4.28908 0
M  V30 10045 N 901.641 -1.19671 1.02551 0
M  V30 10046 C 902.918 -1.85014 0.634771 0
M  V30 10047 C 903.298 -1.91574 -0.886706 0
M  V30 10048 O 902.646 -1.43022 -1.78205 0
M  V30 10049 C 902.856 -3.24167 1.29292 0
M  V30 10050 C 904.204 -4.00363 1.41402 0
M  V30 10051 O 905.228 -3.33553 1.24983 0
M  V30 10052 O 904.087 -5.2003 1.6802 0
M  V30 10053 H 901.181 -0.797147 0.220196 0
M  V30 10054 H 903.727 -1.27188 1.12345 0
M  V30 10055 H 902.499 -3.14208 2.33215 0
M  V30 10056 H 902.122 -3.89634 0.791895 0
M  V30 10057 N 903.119 -0.802921 -1.35613 0
M  V30 10058 C 904.535 -0.486214 -1.52014 0
M  V30 10059 C 904.735 0.993219 -1.75321 0
M  V30 10060 O 903.791 1.77835 -1.79251 0
M  V30 10061 C 905.104 -1.32839 -2.69767 0
M  V30 10062 C 906.652 -1.32346 -2.83643 0
M  V30 10063 C 907.127 -2.14967 -4.04417 0
M  V30 10064 N 908.618 -2.12484 -4.11588 0
M  V30 10065 C 909.353 -2.73173 -5.04147 0
M  V30 10066 N 908.849 -3.42774 -6.02061 0
M  V30 10067 N 910.642 -2.62834 -4.96865 0
M  V30 10068 H 902.793 -1.76109 -1.18741 0
M  V30 10069 H 905.056 -0.74936 -0.580658 0
M  V30 10070 H 904.762 -2.37813 -2.5911 0
M  V30 10071 H 904.636 -0.979058 -3.64272 0
M  V30 10072 H 907.023 -0.281586 -2.93753 0
M  V30 10073 H 907.104 -1.71264 -1.90006 0
M  V30 10074 H 906.748 -3.19193 -3.95068 0
M  V30 10075 H 906.678 -1.73411 -4.97228 0
M  V30 10076 H 909.169 -1.61839 -3.41492 0
M  V30 10077 H 909.482 -3.86378 -6.69277 0
M  V30 10078 H 907.827 -3.46878 -6.02246 0
M  V30 10079 H 911.018 -2.08049 -4.19325 0
M  V30 10080 H 911.191 -3.10421 -5.68808 0
M  V30 10081 N 904.597 1.47463 -0.556102 0
M  V30 10082 C 905.843 2.02775 -0.0316806 0
M  V30 10083 C 906.176 1.42967 1.3143 0
M  V30 10084 O 905.451 0.584847 1.85499 0
M  V30 10085 C 905.734 3.60046 0.0625742 0
M  V30 10086 C 905.587 4.30288 -1.31043 0
M  V30 10087 C 906.906 4.33195 0.776553 0
M  V30 10088 H 904.025 0.736886 -0.0129869 0
M  V30 10089 H 906.667 1.75904 -0.718177 0
M  V30 10090 H 904.817 3.83071 0.647231 0
M  V30 10091 H 906.489 4.18607 -1.9382 0
M  V30 10092 H 904.732 3.90685 -1.8854 0
M  V30 10093 H 905.403 5.38861 -1.1972 0
M  V30 10094 H 907.879 4.15156 0.280147 0
M  V30 10095 H 906.755 5.42869 0.81146 0
M  V30 10096 H 907.016 4.02336 1.83244 0
M  V30 10097 N 906.075 0.2925 1.54862 0
M  V30 10098 C 907.038 -0.574423 2.21885 0
M  V30 10099 C 908.038 -1.06791 1.20218 0
M  V30 10100 O 909.228 -0.9653 1.45009 0
M  V30 10101 C 906.36 -1.79438 2.89853 0
M  V30 10102 H 907.553 0.0110319 2.99898 0
M  V30 10103 H 905.106 0.043256 1.5624 0
M  V30 10104 H 905.841 -2.4199 2.15897 0
M  V30 10105 H 905.626 -1.44827 3.64373 0
M  V30 10106 H 907.116 -2.41048 3.41007 0
M  V30 10107 N 907.553 -1.57587 0.0200696 0
M  V30 10108 C 908.503 -2.0616 -0.973751 0
M  V30 10109 C 909.487 -0.960282 -1.29102 0
M  V30 10110 O 910.679 -1.22391 -1.27865 0
M  V30 10111 C 907.808 -2.58487 -2.25919 0
M  V30 10112 C 906.894 -3.75533 -1.97068 0
M  V30 10113 N 907.285 -4.86482 -1.38451 0
M  V30 10114 C 905.583 -3.83847 -2.27107 0
M  V30 10115 C 906.284 -5.67773 -1.26527 0
M  V30 10116 N 905.26 -5.14398 -1.75772 0
M  V30 10117 H 909.062 -2.89346 -0.515365 0
M  V30 10118 H 906.576 -1.61341 -0.185163 0
M  V30 10119 H 908.573 -2.91572 -2.97979 0
M  V30 10120 H 907.233 -1.76728 -2.72392 0
M  V30 10121 H 908.244 -5.06922 -1.06069 0
M  V30 10122 H 904.921 -3.12978 -2.76316 0
M  V30 10123 H 906.311 -6.66966 -0.812785 0
M  V30 10124 N 909.032 0.252966 -1.55557 0
M  V30 10125 C 909.965 1.33928 -1.84766 0
M  V30 10126 C 910.943 1.46653 -0.702254 0
M  V30 10127 O 912.127 1.62963 -0.947375 0
M  V30 10128 C 909.254 2.71348 -2.02701 0
M  V30 10129 C 908.3 2.75804 -3.25322 0
M  V30 10130 S 909.133 2.33025 -4.82141 0
M  V30 10131 C 910.289 3.72382 -5.03073 0
M  V30 10132 H 910.522 1.08951 -2.76617 0
M  V30 10133 H 908.055 0.45364 -1.47585 0
M  V30 10134 H 910.013 3.50478 -2.13718 0
M  V30 10135 H 908.674 2.93566 -1.11703 0
M  V30 10136 H 907.867 3.76713 -3.34819 0
M  V30 10137 H 907.469 2.04713 -3.12999 0
M  V30 10138 H 909.761 4.67828 -4.90044 0
M  V30 10139 H 910.704 3.67824 -6.05071 0
M  V30 10140 H 911.112 3.64614 -4.30949 0
M  V30 10141 N 910.51 1.48831 0.518367 0
M  V30 10142 C 911.42 1.6692 1.64848 0
M  V30 10143 C 912.436 0.551711 1.65022 0
M  V30 10144 O 913.612 0.824251 1.83761 0
M  V30 10145 C 910.677 1.71559 3.01278 0
M  V30 10146 C 909.738 2.9502 3.11868 0
M  V30 10147 C 908.971 2.99428 4.4179 0
M  V30 10148 O 909.194 2.11914 5.29574 0
M  V30 10149 O 908.128 3.91719 4.5699 0
M  V30 10150 H 911.954 2.62623 1.52521 0
M  V30 10151 H 909.539 1.32368 0.692749 0
M  V30 10152 H 911.421 1.77064 3.82396 0
M  V30 10153 H 910.096 0.790316 3.13904 0
M  V30 10154 H 909.003 2.95042 2.30003 0
M  V30 10155 H 910.336 3.8697 3.04163 0
M  V30 10156 N 911.988 -0.768124 1.37614 0
M  V30 10157 C 913.235 -1.5268 1.33022 0
M  V30 10158 C 913.563 -1.94318 -0.0841918 0
M  V30 10159 O 912.818 -1.64623 -1.0582 0
M  V30 10160 C 913.117 -2.80204 2.21856 0
M  V30 10161 C 912.783 -2.57602 3.7007 0
M  V30 10162 C 911.445 -2.51146 4.10462 0
M  V30 10163 C 913.797 -2.37482 4.63952 0
M  V30 10164 C 911.125 -2.22566 5.42846 0
M  V30 10165 C 913.477 -2.10425 5.96577 0
M  V30 10166 C 912.141 -2.02416 6.36069 0
M  V30 10167 H 911.411 -0.558697 0.486763 0
M  V30 10168 H 914.058 -0.88447 1.69851 0
M  V30 10169 H 912.363 -3.49014 1.78034 0
M  V30 10170 H 914.06 -3.38099 2.15615 0
M  V30 10171 H 910.65 -2.63491 3.38039 0
M  V30 10172 H 914.834 -2.41457 4.33604 0
M  V30 10173 H 910.09 -2.14863 5.72402 0
M  V30 10174 H 914.264 -1.93857 6.68874 0
M  V30 10175 H 911.891 -1.80034 7.38574 0
M  V30 10176 N 913.466 -1.22244 -0.994698 0
M  V30 10177 C 914.706 -1.05747 -1.7492 0
M  V30 10178 C 915.07 0.4007 -1.87772 0
M  V30 10179 O 916.271 0.686469 -2.59887 0
M  V30 10180 C 914.542 -1.7471 -3.11787 0
M  V30 10181 S 916.101 -1.73604 -4.02998 0
M  V30 10182 H 912.919 -0.378731 -0.601734 0
M  V30 10183 H 915.521 -1.55155 -1.18942 0
M  V30 10184 H 914.225 -2.79972 -3.00073 0
M  V30 10185 H 913.756 -1.25525 -3.72836 0
M  V30 10186 H 915.771 -0.784445 -4.8996 0
M  V30 10187 N 914.944 1.19125 -1.03184 0
M  V30 10188 C 916.174 1.92558 -0.748663 0
M  V30 10189 C 916.582 1.759 0.696837 0
M  V30 10190 O 915.925 1.08019 1.48585 0
M  V30 10191 C 915.987 3.4461 -1.02391 0
M  V30 10192 C 915.651 3.85041 -2.46155 0
M  V30 10193 C 916.648 3.89554 -3.44302 0
M  V30 10194 C 914.333 4.16594 -2.80633 0
M  V30 10195 C 916.327 4.25055 -4.74981 0
M  V30 10196 C 914.014 4.51767 -4.11521 0
M  V30 10197 C 915.012 4.55972 -5.08506 0
M  V30 10198 O 914.7 4.9033 -6.37049 0
M  V30 10199 H 914.432 0.618397 -0.273059 0
M  V30 10200 H 916.986 1.52122 -1.38015 0
M  V30 10201 H 915.216 3.85244 -0.335284 0
M  V30 10202 H 916.905 3.99283 -0.729927 0
M  V30 10203 H 917.671 3.65324 -3.19003 0
M  V30 10204 H 913.55 4.12503 -2.05821 0
M  V30 10205 H 917.094 4.28252 -5.50678 0
M  V30 10206 H 912.991 4.75455 -4.36592 0
M  V30 10207 H 913.759 5.08266 -6.41566 0
M  V30 10208 N 916.422 0.810101 1.35185 0
M  V30 10209 C 917.354 0.180581 2.28488 0
M  V30 10210 C 918.367 -0.622154 1.50443 0
M  V30 10211 O 919.556 -0.453938 1.72632 0
M  V30 10212 C 916.656 -0.766447 3.30119 0
M  V30 10213 C 915.829 -0.00932028 4.37399 0
M  V30 10214 C 914.888 -0.875354 5.18868 0
M  V30 10215 O 913.914 -0.325012 5.68271 0
M  V30 10216 N 915.116 -2.19695 5.37321 0
M  V30 10217 H 917.881 0.98212 2.83151 0
M  V30 10218 H 915.442 0.665879 1.47573 0
M  V30 10219 H 917.434 -1.35012 3.81515 0
M  V30 10220 H 916.004 -1.46878 2.75945 0
M  V30 10221 H 915.224 0.755585 3.86891 0
M  V30 10222 H 916.512 0.512352 5.06214 0
M  V30 10223 H 915.91 -2.66797 4.98834 0
M  V30 10224 H 914.467 -2.72978 5.91884 0
M  V30 10225 N 917.9 -1.47166 0.563914 0
M  V30 10226 C 918.81 -2.33885 -0.182977 0
M  V30 10227 C 919.826 -1.48605 -0.905132 0
M  V30 10228 O 921.002 -1.81518 -0.872527 0
M  V30 10229 C 918.067 -3.25433 -1.19558 0
M  V30 10230 C 917.128 -4.26607 -0.480129 0
M  V30 10231 C 916.361 -5.1378 -1.44449 0
M  V30 10232 O 916.584 -5.03531 -2.67979 0
M  V30 10233 O 915.518 -5.94109 -0.965321 0
M  V30 10234 H 919.344 -2.99065 0.528544 0
M  V30 10235 H 916.929 -1.45834 0.324468 0
M  V30 10236 H 918.811 -3.81964 -1.77993 0
M  V30 10237 H 917.486 -2.62873 -1.8889 0
M  V30 10238 H 916.393 -3.73817 0.145583 0
M  V30 10239 H 917.726 -4.919 0.171868 0
M  V30 10240 N 919.378 -0.300708 -1.54705 0
M  V30 10241 C 920.308 0.568675 -2.26469 0
M  V30 10242 C 921.289 1.13817 -1.26411 0
M  V30 10243 O 922.474 1.16756 -1.55183 0
M  V30 10244 C 919.604 1.74077 -3.00524 0
M  V30 10245 C 918.558 1.30165 -4.07727 0
M  V30 10246 C 917.884 2.55888 -4.69495 0
M  V30 10247 C 919.184 0.433106 -5.20501 0
M  V30 10248 H 920.878 -0.0298851 -2.99385 0
M  V30 10249 H 918.424 -0.0158135 -1.43991 0
M  V30 10250 H 920.377 2.35506 -3.49449 0
M  V30 10251 H 919.101 2.36556 -2.25186 0
M  V30 10252 H 917.76 0.710414 -3.59651 0
M  V30 10253 H 917.408 3.16681 -3.90797 0
M  V30 10254 H 917.108 2.27207 -5.41895 0
M  V30 10255 H 918.632 3.18121 -5.21183 0
M  V30 10256 H 920.046 0.95307 -5.65322 0
M  V30 10257 H 918.443 0.240085 -5.9962 0
M  V30 10258 H 919.513 -0.541866 -4.81863 0
M  V30 10259 N 920.856 1.57574 -0.0284266 0
M  V30 10260 C 922.096 1.93637 0.65453 0
M  V30 10261 C 922.46 0.905015 1.69332 0
M  V30 10262 O 923.661 1.15181 2.42872 0
M  V30 10263 C 921.932 3.3462 1.25555 0
M  V30 10264 S 923.491 3.92609 1.95968 0
M  V30 10265 H 920.309 0.67755 0.215516 0
M  V30 10266 H 922.911 1.95284 -0.0919257 0
M  V30 10267 H 921.615 4.07499 0.487069 0
M  V30 10268 H 921.146 3.36415 2.03933 0
M  V30 10269 H 923.161 3.75988 3.23802 0
M  V30 10270 N 922.334 -0.244713 1.55689 0
M  V30 10271 C 923.266 -1.32595 1.86952 0
M  V30 10272 C 924.279 -1.44185 0.755948 0
M  V30 10273 O 925.468 -1.45496 1.03408 0
M  V30 10274 C 922.568 -2.70429 2.04258 0
M  V30 10275 C 921.741 -2.8108 3.35131 0
M  V30 10276 C 920.8 -3.99773 3.42152 0
M  V30 10277 O 919.826 -3.89197 4.15348 0
M  V30 10278 N 921.028 -5.13041 2.71604 0
M  V30 10279 H 923.793 -1.06111 2.80287 0
M  V30 10280 H 921.354 -0.434811 1.55952 0
M  V30 10281 H 923.346 -3.48173 2.06295 0
M  V30 10282 H 921.916 -2.89612 1.17658 0
M  V30 10283 H 921.136 -1.89994 3.45392 0
M  V30 10284 H 922.424 -2.85147 4.21389 0
M  V30 10285 H 921.822 -5.24525 2.11872 0
M  V30 10286 H 920.379 -5.88912 2.79331 0
M  V30 10287 N 923.813 -1.49104 -0.510467 0
M  V30 10288 C 924.743 -1.67981 -1.62187 0
M  V30 10289 C 925.724 -0.528529 -1.6168 0
M  V30 10290 O 926.909 -0.763305 -1.7857 0
M  V30 10291 C 924.039 -1.73755 -3.0071 0
M  V30 10292 C 922.993 -2.88579 -3.1608 0
M  V30 10293 C 922.319 -2.79457 -4.5586 0
M  V30 10294 C 923.619 -4.29638 -2.97 0
M  V30 10295 H 925.313 -2.61029 -1.46643 0
M  V30 10296 H 922.859 -1.25615 -0.704042 0
M  V30 10297 H 924.812 -1.85548 -3.78352 0
M  V30 10298 H 923.536 -0.772996 -3.17321 0
M  V30 10299 H 922.195 -2.76372 -2.40861 0
M  V30 10300 H 921.843 -1.80929 -4.69333 0
M  V30 10301 H 921.543 -3.56518 -4.67086 0
M  V30 10302 H 923.067 -2.93245 -5.35574 0
M  V30 10303 H 924.481 -4.42575 -3.64418 0
M  V30 10304 H 922.878 -5.07847 -3.19704 0
M  V30 10305 H 923.948 -4.44741 -1.93219 0
M  V30 10306 N 925.291 0.760815 -1.38019 0
M  V30 10307 C 926.254 1.85604 -1.34476 0
M  V30 10308 C 927.254 1.58897 -0.24666 0
M  V30 10309 O 928.444 1.66776 -0.50314 0
M  V30 10310 C 925.576 3.22945 -1.09176 0
M  V30 10311 H 926.769 1.90155 -2.31908 0
M  V30 10312 H 924.322 0.961746 -1.23208 0
M  V30 10313 H 925.057 3.24066 -0.123216 0
M  V30 10314 H 924.842 3.43723 -1.88672 0
M  V30 10315 H 926.332 4.03022 -1.09375 0
M  V30 10316 N 926.769 1.22769 0.988202 0
M  V30 10317 C 927.732 1.00325 2.06076 0
M  V30 10318 C 928.732 -0.0320618 1.60768 0
M  V30 10319 O 929.922 0.206912 1.72967 0
M  V30 10320 C 927.054 0.516376 3.36966 0
M  V30 10321 H 928.247 1.95499 2.27421 0
M  V30 10322 H 925.8 1.04704 1.16047 0
M  V30 10323 H 926.535 -0.439498 3.21308 0
M  V30 10324 H 926.32 1.26337 3.71189 0
M  V30 10325 H 927.81 0.37974 4.1587 0
M  V30 10326 N 928.247 -1.18576 1.03814 0
M  V30 10327 C 929.157 -2.25778 0.637311 0
M  V30 10328 C 930.173 -1.7074 -0.335248 0
M  V30 10329 O 931.349 -2.00494 -0.19081 0
M  V30 10330 C 928.414 -3.467 0.00386953 0
M  V30 10331 C 927.475 -4.16881 1.02511 0
M  V30 10332 C 926.708 -5.32031 0.421802 0
M  V30 10333 O 926.931 -5.65142 -0.772699 0
M  V30 10334 O 925.865 -5.90826 1.14925 0
M  V30 10335 H 929.691 -2.62323 1.53037 0
M  V30 10336 H 927.276 -1.25609 0.80887 0
M  V30 10337 H 929.158 -4.19953 -0.348873 0
M  V30 10338 H 927.833 -3.11983 -0.863047 0
M  V30 10339 H 926.74 -3.45707 1.4296 0
M  V30 10340 H 928.073 -4.55592 1.86271 0
M  V30 10341 N 929.725 -0.817259 -1.34754 0
M  V30 10342 C 931.141 -0.502309 -1.51489 0
M  V30 10343 C 931.341 0.974568 -1.76364 0
M  V30 10344 O 930.397 1.75924 -1.81127 0
M  V30 10345 C 931.71 -1.35693 -2.68343 0
M  V30 10346 C 933.258 -1.35347 -2.82224 0
M  V30 10347 C 933.733 -2.19244 -4.02114 0
M  V30 10348 N 935.224 -2.16837 -4.09311 0
M  V30 10349 C 935.959 -2.78505 -5.01221 0
M  V30 10350 N 935.455 -3.4914 -5.98392 0
M  V30 10351 N 937.248 -2.68089 -4.94049 0
M  V30 10352 H 929.399 -1.77359 -1.16866 0
M  V30 10353 H 931.662 -0.755476 -0.572678 0
M  V30 10354 H 931.368 -2.40548 -2.56573 0
M  V30 10355 H 931.242 -1.01764 -3.63213 0
M  V30 10356 H 933.629 -0.312727 -2.93438 0
M  V30 10357 H 933.71 -1.7327 -1.88179 0
M  V30 10358 H 933.354 -3.23365 -3.9166 0
M  V30 10359 H 933.284 -1.78675 -4.95361 0
M  V30 10360 H 935.775 -1.65452 -3.39756 0
M  V30 10361 H 936.088 -3.93455 -6.65141 0
M  V30 10362 H 934.433 -3.53246 -5.98533 0
M  V30 10363 H 937.624 -2.12485 -4.17094 0
M  V30 10364 H 937.797 -3.16436 -5.65484 0
M  V30 10365 N 931.203 1.46865 -0.571711 0
M  V30 10366 C 932.619 1.57897 -0.23255 0
M  V30 10367 C 932.819 1.56836 1.26509 0
M  V30 10368 O 931.875 1.47947 2.04617 0
M  V30 10369 C 933.188 2.87778 -0.872036 0
M  V30 10370 C 934.736 3.01389 -0.844605 0
M  V30 10371 C 935.211 4.33991 -1.46343 0
M  V30 10372 N 936.702 4.40662 -1.42727 0
M  V30 10373 C 937.437 5.41858 -1.87557 0
M  V30 10374 N 936.933 6.49787 -2.4031 0
M  V30 10375 N 938.726 5.32992 -1.7854 0
M  V30 10376 H 930.877 1.45798 -1.54457 0
M  V30 10377 H 933.14 0.694785 -0.644964 0
M  V30 10378 H 932.846 2.94332 -1.92513 0
M  V30 10379 H 932.72 3.75345 -0.373677 0
M  V30 10380 H 935.107 2.94423 0.19984 0
M  V30 10381 H 935.188 2.15327 -1.38087 0
M  V30 10382 H 934.832 4.41714 -2.50701 0
M  V30 10383 H 934.762 5.18809 -0.902479 0
M  V30 10384 H 937.253 3.63263 -1.04155 0
M  V30 10385 H 937.566 7.23199 -2.72403 0
M  V30 10386 H 935.911 6.50637 -2.44329 0
M  V30 10387 H 939.102 4.47575 -1.37093 0
M  V30 10388 H 939.275 6.11716 -2.13794 0
M  V30 10389 N 932.681 0.308908 1.54543 0
M  V30 10390 C 933.644 -0.550857 2.22482 0
M  V30 10391 C 934.644 -1.0551 1.21344 0
M  V30 10392 O 935.834 -0.949866 1.46025 0
M  V30 10393 C 932.966 -1.76354 2.9174 0
M  V30 10394 H 934.159 0.0428395 2.99869 0
M  V30 10395 H 931.712 0.059825 1.56185 0
M  V30 10396 H 932.447 -2.39686 2.18451 0
M  V30 10397 H 932.232 -1.40954 3.65889 0
M  V30 10398 H 933.722 -2.37417 3.43545 0
M  V30 10399 N 934.159 -1.57557 0.0367827 0
M  V30 10400 C 935.575 -1.56366 -0.31967 0
M  V30 10401 C 935.775 -1.04313 -1.72398 0
M  V30 10402 O 934.831 -0.693278 -2.42796 0
M  V30 10403 C 936.144 -3.00267 -0.161274 0
M  V30 10404 C 937.692 -3.12128 -0.233464 0
M  V30 10405 C 938.167 -4.57882 -0.103767 0
M  V30 10406 N 939.658 -4.62922 -0.160506 0
M  V30 10407 C 940.393 -5.73338 -0.0840493 0
M  V30 10408 N 939.889 -6.92786 0.043933 0
M  V30 10409 N 941.682 -5.61929 -0.138592 0
M  V30 10410 H 933.833 -1.8972 0.954996 0
M  V30 10411 H 936.096 -0.87304 0.369467 0
M  V30 10412 H 935.802 -3.42331 0.80639 0
M  V30 10413 H 935.676 -3.65599 -0.928304 0
M  V30 10414 H 938.063 -2.69972 -1.19159 0
M  V30 10415 H 938.144 -2.49503 0.564075 0
M  V30 10416 H 937.788 -5.0072 0.850973 0
M  V30 10417 H 937.718 -5.18496 -0.920268 0
M  V30 10418 H 940.209 -3.7701 -0.259257 0
M  V30 10419 H 940.522 -7.72741 0.095372 0
M  V30 10420 H 938.867 -6.94955 0.0788211 0
M  V30 10421 H 942.058 -4.67499 -0.237031 0
M  V30 10422 H 942.231 -6.47956 -0.075546 0
M  V30 10423 N 935.637 0.236453 -1.55816 0
M  V30 10424 C 936.567 1.29639 -1.94206 0
M  V30 10425 C 937.548 1.49667 -0.808319 0
M  V30 10426 O 938.733 1.621 -1.06945 0
M  V30 10427 C 935.863 2.64914 -2.24584 0
M  V30 10428 C 934.817 2.59565 -3.40308 0
M  V30 10429 C 934.143 3.98732 -3.56254 0
M  V30 10430 C 935.443 2.15642 -4.75706 0
M  V30 10431 H 937.137 0.977552 -2.82992 0
M  V30 10432 H 934.683 0.468804 -1.36155 0
M  V30 10433 H 936.636 3.39209 -2.50031 0
M  V30 10434 H 935.36 2.98455 -1.32636 0
M  V30 10435 H 934.019 1.87728 -3.14887 0
M  V30 10436 H 933.667 4.29556 -2.61707 0
M  V30 10437 H 933.367 3.96039 -4.34082 0
M  V30 10438 H 934.891 4.74711 -3.84033 0
M  V30 10439 H 936.305 2.79673 -5.00456 0
M  V30 10440 H 934.702 2.24039 -5.56711 0
M  V30 10441 H 935.772 1.10831 -4.72064 0
M  V30 10442 N 937.115 1.49373 0.502552 0
M  V30 10443 C 938.025 1.68659 1.63068 0
M  V30 10444 C 939.041 0.569182 1.64427 0
M  V30 10445 O 940.217 0.843695 1.82876 0
M  V30 10446 C 937.282 1.74745 2.99441 0
M  V30 10447 C 936.343 2.98311 3.08721 0
M  V30 10448 C 935.576 3.04097 4.38589 0
M  V30 10449 O 935.799 2.17519 5.27297 0
M  V30 10450 O 934.733 3.96544 4.52809 0
M  V30 10451 H 938.559 2.64226 1.49727 0
M  V30 10452 H 936.144 1.33096 0.67867 0
M  V30 10453 H 938.026 1.8111 3.80496 0
M  V30 10454 H 936.701 0.823565 3.13048 0
M  V30 10455 H 935.608 2.97465 2.2686 0
M  V30 10456 H 936.941 3.90174 3.00041 0
M  V30 10457 N 938.594 -0.753485 1.38421 0
M  V30 10458 C 939.504 -1.89797 1.37892 0
M  V30 10459 C 940.52 -1.71797 0.276023 0
M  V30 10460 O 941.696 -1.94718 0.514464 0
M  V30 10461 C 938.761 -3.25166 1.20284 0
M  V30 10462 C 937.822 -3.55691 2.4038 0
M  V30 10463 C 937.055 -4.84601 2.23602 0
M  V30 10464 O 937.278 -5.56985 1.22979 0
M  V30 10465 O 936.212 -5.14605 3.12194 0
M  V30 10466 H 940.038 -1.93197 2.34326 0
M  V30 10467 H 937.623 -0.898775 1.19342 0
M  V30 10468 H 939.505 -4.06099 1.12525 0
M  V30 10469 H 938.18 -3.22577 0.269352 0
M  V30 10470 H 937.087 -2.74919 2.53714 0
M  V30 10471 H 938.42 -3.6304 3.32359 0
M  V30 10472 N 940.072 -1.23292 -0.981677 0
M  V30 10473 C 941.297 -1.09176 -1.76339 0
M  V30 10474 C 941.722 0.352726 -1.84763 0
M  V30 10475 O 941.08 1.25509 -1.30832 0
M  V30 10476 C 941.128 -1.72046 -3.16911 0
M  V30 10477 O 940.232 -0.98174 -4.00544 0
M  V30 10478 H 939.573 -0.382755 -0.542581 0
M  V30 10479 H 942.103 -1.63319 -1.23239 0
M  V30 10480 H 942.113 -1.77232 -3.67495 0
M  V30 10481 H 940.788 -2.77154 -3.10095 0
M  V30 10482 H 939.365 -1.00672 -3.59054 0
M  V30 10483 N 941.55 1.18024 -1.04442 0
M  V30 10484 C 942.966 1.40107 -0.76435 0
M  V30 10485 C 943.166 1.90914 0.644516 0
M  V30 10486 O 942.222 2.0959 1.40813 0
M  V30 10487 C 943.535 2.39851 -1.81361 0
M  V30 10488 C 945.083 2.53571 -1.83496 0
M  V30 10489 C 945.558 3.56583 -2.87424 0
M  V30 10490 N 947.049 3.64094 -2.86339 0
M  V30 10491 C 947.784 4.43537 -3.63405 0
M  V30 10492 N 947.28 5.26557 -4.50233 0
M  V30 10493 N 949.073 4.38336 -3.51877 0
M  V30 10494 H 941.224 0.833726 -1.95353 0
M  V30 10495 H 943.487 0.42881 -0.845474 0
M  V30 10496 H 943.193 2.09576 -2.82438 0
M  V30 10497 H 943.067 3.39251 -1.6489 0
M  V30 10498 H 945.454 2.83161 -0.830883 0
M  V30 10499 H 945.535 1.54272 -2.04044 0
M  V30 10500 H 945.179 3.27733 -3.88012 0
M  V30 10501 H 945.109 4.55569 -2.6413 0
M  V30 10502 H 947.6 3.04814 -2.23376 0
M  V30 10503 H 947.913 5.84336 -5.05738 0
M  V30 10504 H 946.258 5.25964 -4.54298 0
M  V30 10505 H 949.449 3.72528 -2.83444 0
M  V30 10506 H 949.622 5.00007 -4.12186 0
M  V30 10507 N 943.028 0.824394 1.34319 0
M  V30 10508 C 944.444 0.510336 1.51221 0
M  V30 10509 C 944.644 -0.965201 1.76879 0
M  V30 10510 O 943.7 -1.74961 1.82057 0
M  V30 10511 C 945.013 1.37114 2.6762 0
M  V30 10512 C 946.561 1.36842 2.81502 0
M  V30 10513 C 947.036 2.21374 4.00946 0
M  V30 10514 N 948.527 2.19005 4.08156 0
M  V30 10515 C 949.262 2.81159 4.99737 0
M  V30 10516 N 948.758 3.52309 5.96532 0
M  V30 10517 N 950.551 2.70706 4.9262 0
M  V30 10518 H 942.702 1.77976 1.15924 0
M  V30 10519 H 944.965 0.758503 0.568663 0
M  V30 10520 H 944.671 2.41905 2.55294 0
M  V30 10521 H 944.545 1.03689 3.62669 0
M  V30 10522 H 946.932 0.328284 2.93268 0
M  V30 10523 H 947.013 1.74265 1.87257 0
M  V30 10524 H 946.657 3.25437 3.8994 0
M  V30 10525 H 946.587 1.813 4.94407 0
M  V30 10526 H 949.078 1.67252 3.38874 0
M  V30 10527 H 949.391 3.96977 6.63045 0
M  V30 10528 H 947.736 3.56415 5.96652 0
M  V30 10529 H 950.927 2.14694 4.15962 0
M  V30 10530 H 951.1 3.19431 5.63798 0
M  V30 10531 N 944.506 -1.46559 0.579492 0
M  V30 10532 C 945.436 -2.33059 -0.143437 0
M  V30 10533 C 946.417 -1.4515 -0.886868 0
M  V30 10534 O 947.602 -1.73973 -0.862961 0
M  V30 10535 C 944.732 -3.27364 -1.15973 0
M  V30 10536 C 943.686 -4.24689 -0.531348 0
M  V30 10537 C 943.012 -5.08479 -1.65388 0
M  V30 10538 C 944.312 -5.1961 0.529391 0
M  V30 10539 H 946.006 -2.93753 0.578762 0
M  V30 10540 H 943.552 -1.41256 0.279775 0
M  V30 10541 H 945.505 -3.86732 -1.67382 0
M  V30 10542 H 944.229 -2.64771 -1.91217 0
M  V30 10543 H 942.888 -3.6658 -0.0383749 0
M  V30 10544 H 942.536 -4.42273 -2.3959 0
M  V30 10545 H 942.236 -5.74387 -1.23909 0
M  V30 10546 H 943.76 -5.70709 -2.17079 0
M  V30 10547 H 945.174 -5.73212 0.100506 0
M  V30 10548 H 943.571 -5.93843 0.86432 0
M  V30 10549 H 944.641 -4.63737 1.4169 0
M  V30 10550 N 945.984 -0.3171 -1.54377 0
M  V30 10551 C 947.23 0.280631 -2.01455 0
M  V30 10552 C 947.585 1.50282 -1.20138 0
M  V30 10553 O 946.878 1.89634 -0.273785 0
M  V30 10554 C 947.072 0.672917 -3.51008 0
M  V30 10555 C 946.901 -0.509709 -4.46802 0
M  V30 10556 C 945.671 -1.00679 -4.95168 0
M  V30 10557 C 947.869 -1.35984 -4.95997 0
M  V30 10558 N 945.851 -2.1545 -5.74852 0
M  V30 10559 C 947.222 -2.35481 -5.73541 0
M  V30 10560 C 949.277 -1.38836 -4.78152 0
M  V30 10561 C 947.98 -3.37625 -6.35139 0
M  V30 10562 C 950.006 -2.39847 -5.40581 0
M  V30 10563 C 949.368 -3.38071 -6.1797 0
M  V30 10564 H 945.467 0.0667107 -0.779149 0
M  V30 10565 H 948.051 -0.450672 -1.89412 0
M  V30 10566 H 946.222 1.37336 -3.63309 0
M  V30 10567 H 947.954 1.25156 -3.84861 0
M  V30 10568 H 944.709 -0.579125 -4.70046 0
M  V30 10569 H 945.133 -2.73324 -6.19373 0
M  V30 10570 H 949.775 -0.642643 -4.17887 0
M  V30 10571 H 947.493 -4.13106 -6.94528 0
M  V30 10572 H 951.079 -2.42847 -5.28693 0
M  V30 10573 H 949.959 -4.14953 -6.6542 0
M  V30 10574 N 947.462 1.57535 -0.0451378 0
M  V30 10575 C 948.409 2.11176 0.931313 0
M  V30 10576 C 949.379 1.01765 1.31275 0
M  V30 10577 O 950.564 1.29279 1.40327 0
M  V30 10578 C 947.704 2.65639 2.20295 0
M  V30 10579 C 946.817 3.89114 1.87654 0
M  V30 10580 C 945.952 4.31914 3.09232 0
M  V30 10581 C 944.991 5.48105 2.72484 0
M  V30 10582 N 944.128 5.85986 3.86736 0
M  V30 10583 H 948.968 2.94318 0.466986 0
M  V30 10584 H 946.505 1.45462 0.218886 0
M  V30 10585 H 948.463 2.95312 2.94697 0
M  V30 10586 H 947.093 1.85303 2.64316 0
M  V30 10587 H 946.145 3.6607 1.03427 0
M  V30 10588 H 947.457 4.7358 1.56601 0
M  V30 10589 H 946.611 4.63108 3.91939 0
M  V30 10590 H 945.35 3.46247 3.43459 0
M  V30 10591 H 944.355 5.16589 1.88192 0
M  V30 10592 H 945.58 6.35482 2.39455 0
M  V30 10593 H 943.526 5.03273 4.20775 0
M  V30 10594 H 943.443 6.65129 3.5936 0
M  V30 10595 H 944.711 6.21793 4.701 0
M  V30 10596 N 948.94 -0.228186 1.55939 0
M  V30 10597 C 950.187 -0.953552 1.78644 0
M  V30 10598 C 950.515 -1.84596 0.61275 0
M  V30 10599 O 949.77 -1.91502 -0.403175 0
M  V30 10600 C 950.069 -1.82924 3.0704 0
M  V30 10601 C 949.735 -1.09062 4.37511 0
M  V30 10602 C 948.397 -0.886565 4.72962 0
M  V30 10603 C 950.749 -0.568533 5.1809 0
M  V30 10604 C 948.077 -0.148413 5.86512 0
M  V30 10605 C 950.429 0.156243 6.32407 0
M  V30 10606 C 949.093 0.371612 6.66465 0
M  V30 10607 H 948.363 -0.348929 0.653704 0
M  V30 10608 H 951.01 -0.222211 1.90206 0
M  V30 10609 H 949.315 -2.62823 2.90571 0
M  V30 10610 H 951.012 -2.3925 3.21808 0
M  V30 10611 H 947.602 -1.25963 4.09672 0
M  V30 10612 H 951.786 -0.713673 4.91142 0
M  V30 10613 H 947.042 0.0287418 6.11393 0
M  V30 10614 H 951.216 0.568333 6.94077 0
M  V30 10615 H 948.843 0.945522 7.54297 0
M  V30 10616 N 950.418 -1.49637 -0.494624 0
M  V30 10617 C 951.665 -1.59445 -1.24834 0
M  V30 10618 C 951.993 -0.284028 -1.92415 0
M  V30 10619 O 951.248 0.728519 -1.81634 0
M  V30 10620 C 951.547 -2.70749 -2.33302 0
M  V30 10621 C 951.213 -4.12034 -1.83135 0
M  V30 10622 C 949.875 -4.50482 -1.69173 0
M  V30 10623 C 952.227 -5.00432 -1.4566 0
M  V30 10624 C 949.555 -5.75093 -1.16124 0
M  V30 10625 C 951.907 -6.25568 -0.940608 0
M  V30 10626 C 950.571 -6.62839 -0.787432 0
M  V30 10627 H 949.841 -0.583451 -0.456799 0
M  V30 10628 H 952.488 -1.8349 -0.548044 0
M  V30 10629 H 950.793 -2.407 -3.09145 0
M  V30 10630 H 952.49 -2.75546 -2.91334 0
M  V30 10631 H 949.08 -3.8169 -1.94964 0
M  V30 10632 H 953.264 -4.71379 -1.55291 0
M  V30 10633 H 948.52 -6.02665 -1.02982 0
M  V30 10634 H 952.694 -6.93439 -0.641467 0
M  V30 10635 H 950.321 -7.59279 -0.374191 0
M  V30 10636 N 951.896 0.746133 -1.38819 0
M  V30 10637 C 953.142 1.50669 -1.3664 0
M  V30 10638 C 953.497 1.92356 0.0411513 0
M  V30 10639 O 952.79 1.63104 1.00537 0
M  V30 10640 C 952.984 2.76639 -2.26286 0
M  V30 10641 C 952.813 2.47268 -3.75618 0
M  V30 10642 C 951.583 2.40116 -4.44603 0
M  V30 10643 C 953.781 2.13548 -4.67869 0
M  V30 10644 N 951.763 2.03098 -5.79331 0
M  V30 10645 C 953.134 1.86883 -5.91164 0
M  V30 10646 C 955.189 1.99922 -4.56 0
M  V30 10647 C 953.892 1.47965 -7.03917 0
M  V30 10648 C 955.918 1.62406 -5.68664 0
M  V30 10649 C 955.28 1.36618 -6.91025 0
M  V30 10650 H 951.379 0.550624 -0.555282 0
M  V30 10651 H 953.963 0.868179 -1.74272 0
M  V30 10652 H 952.134 3.38287 -1.9083 0
M  V30 10653 H 953.866 3.42753 -2.1518 0
M  V30 10654 H 950.621 2.56839 -3.97908 0
M  V30 10655 H 951.045 1.87214 -6.506 0
M  V30 10656 H 955.687 2.18531 -3.61945 0
M  V30 10657 H 953.405 1.28096 -7.97883 0
M  V30 10658 H 956.991 1.52483 -5.61462 0
M  V30 10659 H 955.871 1.08021 -7.76725 0
M  V30 10660 N 953.375 1.23811 0.975125 0
M  V30 10661 C 954.285 1.0408 2.10249 0
M  V30 10662 C 955.301 -0.0162404 1.73992 0
M  V30 10663 O 956.477 0.180346 2.00591 0
M  V30 10664 C 953.542 0.640013 3.40741 0
M  V30 10665 C 952.603 1.7727 3.90991 0
M  V30 10666 C 951.836 1.39094 5.15256 0
M  V30 10667 O 952.059 0.277483 5.69725 0
M  V30 10668 O 950.993 2.21392 5.59704 0
M  V30 10669 H 954.819 1.98575 2.29786 0
M  V30 10670 H 952.404 1.02563 1.08633 0
M  V30 10671 H 954.286 0.427684 4.19224 0
M  V30 10672 H 952.961 -0.27589 3.22522 0
M  V30 10673 H 951.868 2.03971 3.13602 0
M  V30 10674 H 953.201 2.66711 4.13674 0
M  V30 10675 N 954.853 -1.17469 1.05066 0
M  V30 10676 C 955.786 -2.2031 0.594863 0
M  V30 10677 C 956.764 -1.58196 -0.375878 0
M  V30 10678 O 957.948 -1.8629 -0.287798 0
M  V30 10679 C 955.075 -3.38452 -0.129614 0
M  V30 10680 C 954.121 -4.19007 0.795943 0
M  V30 10681 S 954.954 -4.8433 2.28441 0
M  V30 10682 C 956.11 -6.05862 1.57107 0
M  V30 10683 H 956.343 -2.58632 1.46618 0
M  V30 10684 H 953.876 -1.28063 0.862511 0
M  V30 10685 H 955.834 -4.06914 -0.541416 0
M  V30 10686 H 954.495 -2.98521 -0.976948 0
M  V30 10687 H 953.688 -5.0345 0.235396 0
M  V30 10688 H 953.29 -3.55976 1.14705 0
M  V30 10689 H 955.582 -6.71895 0.86969 0
M  V30 10690 H 956.525 -6.66442 2.39292 0
M  V30 10691 H 956.933 -5.54477 1.05903 0
M  V30 10692 N 956.331 -0.831506 -1.3388 0
M  V30 10693 C 957.294 -0.264773 -2.27666 0
M  V30 10694 C 958.294 0.562273 -1.50649 0
M  V30 10695 O 959.484 0.377131 -1.70069 0
M  V30 10696 C 956.616 0.627814 -3.35069 0
M  V30 10697 H 957.809 -1.09225 -2.79303 0
M  V30 10698 H 955.362 -0.604021 -1.44157 0
M  V30 10699 H 956.097 1.47802 -2.88661 0
M  V30 10700 H 955.882 0.0361552 -3.92083 0
M  V30 10701 H 957.372 1.01786 -4.05005 0
M  V30 10702 N 957.809 1.4625 -0.587256 0
M  V30 10703 C 958.719 2.34147 0.145744 0
M  V30 10704 C 959.735 1.50026 0.881376 0
M  V30 10705 O 960.911 1.82884 0.843539 0
M  V30 10706 C 957.976 3.27294 1.14366 0
M  V30 10707 C 957.037 4.27317 0.412199 0
M  V30 10708 C 956.27 5.16013 1.36257 0
M  V30 10709 O 956.493 5.0773 2.59934 0
M  V30 10710 O 955.427 5.95569 0.870681 0
M  V30 10711 H 959.253 2.98187 -0.576055 0
M  V30 10712 H 956.838 1.45299 -0.347628 0
M  V30 10713 H 958.72 3.84747 1.71894 0
M  V30 10714 H 957.395 2.65845 1.84684 0
M  V30 10715 H 956.302 3.73538 -0.205036 0
M  V30 10716 H 957.635 4.91564 -0.250104 0
M  V30 10717 N 959.287 0.325282 1.54207 0
M  V30 10718 C 960.197 -0.548778 2.28091 0
M  V30 10719 C 961.213 -1.12772 1.32508 0
M  V30 10720 O 962.389 -1.14732 1.65525 0
M  V30 10721 C 959.454 -1.69284 3.02562 0
M  V30 10722 C 958.515 -1.14553 4.13734 0
M  V30 10723 C 957.748 -2.23506 4.84645 0
M  V30 10724 O 957.971 -3.43884 4.55082 0
M  V30 10725 O 956.905 -1.88828 5.71513 0
M  V30 10726 H 960.731 0.0512974 3.03657 0
M  V30 10727 H 958.316 0.0909159 1.49123 0
M  V30 10728 H 960.198 -2.35887 3.49192 0
M  V30 10729 H 958.873 -2.27906 2.2987 0
M  V30 10730 H 957.78 -0.444532 3.71449 0
M  V30 10731 H 959.113 -0.60441 4.88475 0
M  V30 10732 N 960.765 -1.57509 0.0534917 0
M  V30 10733 C 961.675 -2.15152 -0.935249 0
M  V30 10734 C 962.691 -1.10991 -1.34003 0
M  V30 10735 O 963.867 -1.43171 -1.41648 0
M  V30 10736 C 960.932 -2.68699 -2.19093 0
M  V30 10737 C 959.993 -3.87666 -1.84428 0
M  V30 10738 C 959.226 -4.3865 -3.0401 0
M  V30 10739 O 959.449 -3.887 -4.17455 0
M  V30 10740 O 958.383 -5.30209 -2.84889 0
M  V30 10741 H 962.209 -2.99962 -0.475009 0
M  V30 10742 H 959.794 -1.48446 -0.16854 0
M  V30 10743 H 961.676 -3.03098 -2.92762 0
M  V30 10744 H 960.351 -1.86958 -2.6425 0
M  V30 10745 H 959.258 -3.58151 -1.08068 0
M  V30 10746 H 960.591 -4.70643 -1.44068 0
M  V30 10747 N 962.243 0.219913 -1.56058 0
M  V30 10748 C 963.491 0.942199 -1.78793 0
M  V30 10749 C 963.812 1.84804 -0.622284 0
M  V30 10750 O 963.082 1.9255 0.360735 0
M  V30 10751 H 961.662 0.350895 -0.659455 0
M  V30 10752 H 964.324 0.231376 -1.93522 0
M  V30 10753 H 963.42 1.54804 -2.71002 0
M  V30 10754 N 963.721 1.49897 0.486681 0
M  V30 10755 C 964.967 1.61313 1.23893 0
M  V30 10756 C 965.322 0.302457 1.90008 0
M  V30 10757 O 964.615 -0.698466 1.78415 0
M  V30 10758 C 964.809 2.71982 2.31863 0
M  V30 10759 C 964.638 4.13685 1.76338 0
M  V30 10760 C 963.408 4.8029 1.57002 0
M  V30 10761 C 965.606 4.98446 1.26711 0
M  V30 10762 N 963.588 6.06259 0.965564 0
M  V30 10763 C 964.959 6.15011 0.784912 0
M  V30 10764 C 967.014 4.84338 1.15419 0
M  V30 10765 C 965.717 7.19019 0.200942 0
M  V30 10766 C 967.743 5.88508 0.584173 0
M  V30 10767 C 967.105 7.04311 0.112272 0
M  V30 10768 H 963.204 0.644555 0.442801 0
M  V30 10769 H 965.788 1.86959 0.543562 0
M  V30 10770 H 963.959 2.48086 2.98844 0
M  V30 10771 H 965.691 2.72842 2.98897 0
M  V30 10772 H 962.446 4.37324 1.81781 0
M  V30 10773 H 962.87 6.73554 0.6822 0
M  V30 10774 H 967.512 3.95107 1.50499 0
M  V30 10775 H 965.23 8.07937 -0.162099 0
M  V30 10776 H 968.816 5.79653 0.49938 0
M  V30 10777 H 967.696 7.83539 -0.321907 0
M  V30 10778 N 965.199 -0.738761 1.39212 0
M  V30 10779 C 966.448 -1.49368 1.35543 0
M  V30 10780 C 966.761 -1.95543 -0.0471091 0
M  V30 10781 O 967.967 -2.70714 -0.206376 0
M  V30 10782 C 966.423 -2.69882 2.381 0
M  V30 10783 C 966.031 -2.30672 3.8405 0
M  V30 10784 C 967.775 -3.47718 2.435 0
M  V30 10785 C 965.682 -3.47886 4.78256 0
M  V30 10786 H 964.612 -0.560898 0.503894 0
M  V30 10787 H 967.263 -0.806221 1.6484 0
M  V30 10788 H 965.645 -3.40684 2.01867 0
M  V30 10789 H 966.819 -1.67441 4.29302 0
M  V30 10790 H 965.134 -1.65936 3.81909 0
M  V30 10791 H 967.731 -4.34897 3.11077 0
M  V30 10792 H 968.074 -3.89919 1.45838 0
M  V30 10793 H 968.607 -2.83942 2.78606 0
M  V30 10794 H 965.346 -3.10739 5.77167 0
M  V30 10795 H 964.866 -4.10111 4.37686 0
M  V30 10796 H 966.545 -4.14271 4.96979 0
M  V30 10797 N 966.677 -1.24326 -0.968545 0
M  V30 10798 C 968.093 -1.00847 -1.23701 0
M  V30 10799 C 968.293 0.283235 -1.99499 0
M  V30 10800 O 967.349 0.999607 -2.31871 0
M  V30 10801 C 968.662 -2.22295 -2.02498 0
M  V30 10802 C 970.21 -2.26911 -2.15593 0
M  V30 10803 C 970.685 -3.47978 -2.97784 0
M  V30 10804 N 972.176 -3.48289 -3.05367 0
M  V30 10805 C 972.911 -4.38625 -3.69318 0
M  V30 10806 N 972.407 -5.39213 -4.34995 0
M  V30 10807 N 974.2 -4.26339 -3.66322 0
M  V30 10808 H 966.351 -2.07335 -0.461087 0
M  V30 10809 H 968.614 -0.909805 -0.26638 0
M  V30 10810 H 968.32 -3.161 -1.54188 0
M  V30 10811 H 968.194 -2.24344 -3.03232 0
M  V30 10812 H 970.581 -1.33639 -2.63106 0
M  V30 10813 H 970.662 -2.28888 -1.14209 0
M  V30 10814 H 970.306 -4.41564 -2.50965 0
M  V30 10815 H 970.236 -3.43244 -3.99364 0
M  V30 10816 H 972.727 -2.75517 -2.58648 0
M  V30 10817 H 973.04 -6.04378 -4.81608 0
M  V30 10818 H 971.385 -5.43101 -4.33667 0
M  V30 10819 H 974.576 -3.46991 -3.14189 0
M  V30 10820 H 974.749 -4.9694 -4.15878 0
M  V30 10821 N 968.156 1.1691 -1.05688 0
M  V30 10822 C 969.066 2.24735 -0.67315 0
M  V30 10823 C 970.082 1.71252 0.308043 0
M  V30 10824 O 971.258 2.00772 0.158889 0
M  V30 10825 C 968.323 3.4665 -0.059026 0
M  V30 10826 C 967.384 4.15198 -1.0913 0
M  V30 10827 C 966.617 5.31292 -0.50639 0
M  V30 10828 O 966.84 5.663 0.682692 0
M  V30 10829 O 965.774 5.88923 -1.2431 0
M  V30 10830 H 969.6 2.59855 -1.57191 0
M  V30 10831 H 967.185 1.24306 -0.828751 0
M  V30 10832 H 969.067 4.20455 0.282018 0
M  V30 10833 H 967.742 3.13316 0.813304 0
M  V30 10834 H 966.649 3.43389 -1.48442 0
M  V30 10835 H 967.982 4.52571 -1.93495 0
M  V30 10836 N 969.634 0.838594 1.33437 0
M  V30 10837 C 970.581 0.269609 2.2922 0
M  V30 10838 C 971.551 -0.614429 1.54318 0
M  V30 10839 O 972.736 -0.552756 1.82618 0
M  V30 10840 C 969.876 -0.549527 3.40697 0
M  V30 10841 C 968.989 0.358502 4.3051 0
M  V30 10842 C 968.124 -0.471709 5.29101 0
M  V30 10843 C 967.163 0.434728 6.10554 0
M  V30 10844 N 966.3 -0.357339 7.0119 0
M  V30 10845 H 971.14 1.09172 2.77282 0
M  V30 10846 H 968.677 0.549832 1.36438 0
M  V30 10847 H 970.635 -1.03992 4.04032 0
M  V30 10848 H 969.265 -1.33661 2.93828 0
M  V30 10849 H 968.317 0.967204 3.67899 0
M  V30 10850 H 969.629 1.05483 4.87519 0
M  V30 10851 H 968.783 -1.02594 5.97963 0
M  V30 10852 H 967.522 -1.20147 4.72669 0
M  V30 10853 H 966.527 1.00097 5.40611 0
M  V30 10854 H 967.752 1.16285 6.6907 0
M  V30 10855 H 965.698 -1.07049 6.47207 0
M  V30 10856 H 965.615 0.280277 7.5548 0
M  V30 10857 H 966.883 -0.893814 7.74359 0
M  V30 10858 N 971.112 -1.45937 0.595003 0
M  V30 10859 C 972.022 -2.34221 -0.133325 0
M  V30 10860 C 973.038 -1.50491 -0.873407 0
M  V30 10861 O 974.214 -1.83328 -0.833828 0
M  V30 10862 C 971.279 -3.27896 -1.12628 0
M  V30 10863 C 970.34 -4.27529 -0.389532 0
M  V30 10864 C 969.573 -5.16729 -1.33519 0
M  V30 10865 O 969.796 -5.09102 -2.57238 0
M  V30 10866 O 968.73 -5.96023 -0.839084 0
M  V30 10867 H 972.556 -2.97877 0.591861 0
M  V30 10868 H 970.141 -1.45113 0.355329 0
M  V30 10869 H 972.023 -3.85654 -1.69851 0
M  V30 10870 H 970.698 -2.6682 -1.83272 0
M  V30 10871 H 969.605 -3.73424 0.224843 0
M  V30 10872 H 970.938 -4.91425 0.276169 0
M  V30 10873 N 972.59 -0.333456 -1.54032 0
M  V30 10874 C 973.537 0.527981 -2.2468 0
M  V30 10875 C 974.507 1.10371 -1.24127 0
M  V30 10876 O 975.692 1.14221 -1.52834 0
M  V30 10877 C 972.832 1.67808 -3.01553 0
M  V30 10878 C 971.945 1.13064 -4.16942 0
M  V30 10879 C 971.08 2.24722 -4.81325 0
M  V30 10880 C 970.119 1.67277 -5.88799 0
M  V30 10881 N 969.256 2.72638 -6.47003 0
M  V30 10882 H 974.096 -0.0810308 -2.9789 0
M  V30 10883 H 971.633 -0.051761 -1.47009 0
M  V30 10884 H 973.591 2.35502 -3.44376 0
M  V30 10885 H 972.221 2.25823 -2.30659 0
M  V30 10886 H 971.273 0.344948 -3.78833 0
M  V30 10887 H 972.585 0.670373 -4.94275 0
M  V30 10888 H 971.739 3.00301 -5.27166 0
M  V30 10889 H 970.478 2.74089 -4.03394 0
M  V30 10890 H 969.483 0.902002 -5.4235 0
M  V30 10891 H 970.708 1.18775 -6.68632 0
M  V30 10892 H 968.654 3.21277 -5.71941 0
M  V30 10893 H 968.571 2.31204 -7.19778 0
M  V30 10894 H 969.839 3.48015 -6.97499 0
M  V30 10895 N 974.068 1.57479 -0.061844 0
M  V30 10896 C 975.317 1.92285 0.609055 0
M  V30 10897 C 975.63 0.942983 1.71369 0
M  V30 10898 O 976.836 1.18349 2.44348 0
M  V30 10899 C 975.292 3.41545 1.13468 0
M  V30 10900 C 974.9 4.47958 0.0615926 0
M  V30 10901 C 976.644 3.85368 1.78022 0
M  V30 10902 C 974.551 5.88341 0.600705 0
M  V30 10903 H 973.481 0.717656 0.23127 0
M  V30 10904 H 976.132 1.83021 -0.132466 0
M  V30 10905 H 974.514 3.45848 1.92886 0
M  V30 10906 H 975.688 4.55258 -0.712527 0
M  V30 10907 H 974.003 4.13541 -0.487116 0
M  V30 10908 H 976.6 4.87627 2.19371 0
M  V30 10909 H 976.943 3.22193 2.63623 0
M  V30 10910 H 977.476 3.83626 1.05242 0
M  V30 10911 H 974.215 6.55138 -0.217922 0
M  V30 10912 H 973.735 5.84581 1.34257 0
M  V30 10913 H 975.414 6.37918 1.08025 0
M  V30 10914 N 975.546 -0.211634 1.56173 0
M  V30 10915 C 976.476 -1.26533 1.96244 0
M  V30 10916 C 977.457 -1.48362 0.832028 0
M  V30 10917 O 978.642 -1.60378 1.0951 0
M  V30 10918 C 975.772 -2.61307 2.2877 0
M  V30 10919 C 974.726 -2.54119 3.44395 0
M  V30 10920 C 974.052 -3.93014 3.62552 0
M  V30 10921 C 975.352 -2.08046 4.79076 0
M  V30 10922 H 977.046 -0.932407 2.84511 0
M  V30 10923 H 974.592 -0.447084 1.36884 0
M  V30 10924 H 976.545 -3.35188 2.55396 0
M  V30 10925 H 975.269 -2.96307 1.37367 0
M  V30 10926 H 973.928 -1.82694 3.17834 0
M  V30 10927 H 973.576 -4.25338 2.68508 0
M  V30 10928 H 973.276 -3.89083 4.40327 0
M  V30 10929 H 974.8 -4.68542 3.91537 0
M  V30 10930 H 976.214 -2.71676 5.04842 0
M  V30 10931 H 974.611 -2.15154 5.60204 0
M  V30 10932 H 975.681 -1.03306 4.73768 0
M  V30 10933 N 977.024 -1.50153 -0.478725 0
M  V30 10934 C 978.249 -1.64776 -1.2595 0
M  V30 10935 C 978.674 -0.327794 -1.85222 0
M  V30 10936 O 978.032 0.707418 -1.66929 0
M  V30 10937 C 978.08 -2.73551 -2.34952 0
M  V30 10938 O 977.184 -2.34273 -3.39397 0
M  V30 10939 H 976.525 -0.550769 -0.370877 0
M  V30 10940 H 979.055 -1.96482 -0.570605 0
M  V30 10941 H 979.065 -2.96397 -2.8038 0
M  V30 10942 H 977.74 -3.69354 -1.91181 0
M  V30 10943 H 976.317 -2.21844 -2.99733 0
M  V30 10944 N 978.502 0.731368 -1.39602 0
M  V30 10945 C 979.727 1.52567 -1.40492 0
M  V30 10946 C 980.152 1.881 -0.00228828 0
M  V30 10947 O 979.51 1.52167 0.985643 0
M  V30 10948 C 979.558 2.78749 -2.2876 0
M  V30 10949 O 978.662 3.7482 -1.71999 0
M  V30 10950 H 978.003 0.460601 -0.478271 0
M  V30 10951 H 980.533 0.902042 -1.83642 0
M  V30 10952 H 980.543 3.27446 -2.43399 0
M  V30 10953 H 979.218 2.5222 -3.30693 0
M  V30 10954 H 977.795 3.33604 -1.66622 0
M  V30 10955 N 979.98 1.24838 0.961938 0
M  V30 10956 C 981.257 0.99939 1.68141 0
M  V30 10957 C 981.637 -0.476588 2.0565 0
M  V30 10958 O 980.985 -1.45224 1.76415 0
M  V30 10959 C 981.195 1.92797 2.90913 0
M  V30 10960 C 982.543 2.20219 3.63027 0
M  V30 10961 O 983.567 1.90496 3.00981 0
M  V30 10962 O 982.426 2.70725 4.74731 0
M  V30 10963 H 979.52 0.37842 0.735342 0
M  V30 10964 H 982.066 1.35961 1.01551 0
M  V30 10965 H 980.838 2.92492 2.59931 0
M  V30 10966 H 980.461 1.57127 3.65235 0
M  V30 10967 N 981.458 -1.16348 1.06306 0
M  V30 10968 C 982.735 -1.829 0.69331 0
M  V30 10969 C 983.115 -1.94298 -0.82531 0
M  V30 10970 O 982.463 -1.48619 -1.73565 0
M  V30 10971 C 982.673 -3.1989 1.3954 0
M  V30 10972 C 984.021 -3.95662 1.54068 0
M  V30 10973 O 985.045 -3.29408 1.35532 0
M  V30 10974 O 983.904 -5.14422 1.84479 0
M  V30 10975 H 980.998 -0.789738 0.245445 0
M  V30 10976 H 983.544 -1.23549 1.16334 0
M  V30 10977 H 982.316 -3.06629 2.43093 0
M  V30 10978 H 981.939 -3.86918 0.915453 0
M  V30 10979 N 982.937 -0.845659 -1.3299 0
M  V30 10980 C 984.167 -0.457686 -2.01467 0
M  V30 10981 C 984.575 0.947664 -1.63756 0
M  V30 10982 O 983.918 1.62841 -0.850213 0
M  V30 10983 C 983.98 -0.506589 -3.55913 0
M  V30 10984 C 983.644 -1.86924 -4.17023 0
M  V30 10985 C 984.641 -2.83344 -4.35904 0
M  V30 10986 C 982.326 -2.16394 -4.53298 0
M  V30 10987 C 984.32 -4.07391 -4.90216 0
M  V30 10988 C 982.007 -3.40695 -5.07316 0
M  V30 10989 C 983.005 -4.3601 -5.25722 0
M  V30 10990 O 982.693 -5.58112 -5.7859 0
M  V30 10991 H 982.425 -0.179258 -0.651799 0
M  V30 10992 H 984.979 -1.14172 -1.70745 0
M  V30 10993 H 983.209 0.234253 -3.8599 0
M  V30 10994 H 984.898 -0.135487 -4.05674 0
M  V30 10995 H 985.664 -2.61879 -4.08221 0
M  V30 10996 H 981.543 -1.42994 -4.38262 0
M  V30 10997 H 985.087 -4.81796 -5.04498 0
M  V30 10998 H 980.984 -3.62014 -5.3443 0
M  V30 10999 H 981.752 -5.59946 -5.96995 0
M  V30 11000 N 984.415 1.45619 -0.602734 0
M  V30 11001 C 985.663 2.01873 -0.095844 0
M  V30 11002 C 985.984 1.47427 1.27633 0
M  V30 11003 O 985.254 0.666652 1.84208 0
M  V30 11004 H 983.834 0.746295 -0.0324408 0
M  V30 11005 H 986.496 1.78478 -0.783037 0
M  V30 11006 H 985.592 3.12072 -0.0419507 0
M  V30 11007 N 985.893 0.34162 1.53853 0
M  V30 11008 C 986.84 -0.516058 2.24957 0
M  V30 11009 C 987.81 -1.09711 1.2471 0
M  V30 11010 O 988.995 -1.13409 1.53438 0
M  V30 11011 C 986.135 -1.66207 3.02439 0
M  V30 11012 C 985.248 -1.10851 4.17536 0
M  V30 11013 C 984.383 -2.22167 4.82509 0
M  V30 11014 C 983.422 -1.64152 5.89678 0
M  V30 11015 N 982.559 -2.69203 6.4844 0
M  V30 11016 H 987.399 0.0968275 2.97843 0
M  V30 11017 H 984.936 0.0595565 1.46979 0
M  V30 11018 H 986.894 -2.33672 3.4562 0
M  V30 11019 H 985.524 -2.24597 2.31853 0
M  V30 11020 H 984.576 -0.324853 3.7901 0
M  V30 11021 H 985.888 -0.644151 4.94623 0
M  V30 11022 H 985.042 -2.97501 5.28751 0
M  V30 11023 H 983.781 -2.71946 4.04842 0
M  V30 11024 H 982.786 -0.873228 5.42821 0
M  V30 11025 H 984.011 -1.15228 6.69253 0
M  V30 11026 H 981.957 -3.1824 5.73637 0
M  V30 11027 H 981.874 -2.27383 7.20994 0
M  V30 11028 H 983.142 -3.44312 6.99335 0
M  V30 11029 N 987.371 -1.57444 0.0701946 0
M  V30 11030 C 988.648 -1.84826 -0.6402 0
M  V30 11031 C 989.028 -0.962344 -1.87889 0
M  V30 11032 O 988.376 -0.0282209 -2.28483 0
M  V30 11033 C 988.586 -3.34976 -0.979382 0
M  V30 11034 C 989.934 -4.02448 -1.35355 0
M  V30 11035 O 990.958 -3.39713 -1.07116 0
M  V30 11036 O 989.817 -5.13096 -1.88136 0
M  V30 11037 H 986.911 -0.763494 -0.317813 0
M  V30 11038 H 989.457 -1.69399 0.101004 0
M  V30 11039 H 988.229 -3.91173 -0.0995576 0
M  V30 11040 H 987.852 -3.5566 -1.7774 0
M  V30 11041 N 988.849 0.203349 -1.56283 0
M  V30 11042 C 989.779 1.2549 -1.96912 0
M  V30 11043 C 990.76 1.47919 -0.839884 0
M  V30 11044 O 991.945 1.59795 -1.10359 0
M  V30 11045 C 989.075 2.6009 -2.30153 0
M  V30 11046 C 988.029 2.52289 -3.45738 0
M  V30 11047 C 987.355 3.91086 -3.64632 0
M  V30 11048 C 988.655 2.05503 -4.80173 0
M  V30 11049 H 990.349 0.917306 -2.85002 0
M  V30 11050 H 987.895 0.439818 -1.37119 0
M  V30 11051 H 989.848 3.33829 -2.5717 0
M  V30 11052 H 988.572 2.95574 -1.38937 0
M  V30 11053 H 987.231 1.81006 -3.18798 0
M  V30 11054 H 986.879 4.23908 -2.7076 0
M  V30 11055 H 986.579 3.86742 -4.42385 0
M  V30 11056 H 988.103 4.66459 -3.94016 0
M  V30 11057 H 989.517 2.68995 -5.06275 0
M  V30 11058 H 987.914 2.1218 -5.61337 0
M  V30 11059 H 988.984 1.00793 -4.74309 0
M  V30 11060 N 990.327 1.50405 0.470755 0
M  V30 11061 C 991.555 1.65168 1.24608 0
M  V30 11062 C 991.97 0.335153 1.85801 0
M  V30 11063 O 991.327 -0.682919 1.69241 0
M  V30 11064 C 991.378 2.74305 2.35455 0
M  V30 11065 O 991.099 4.00854 1.76771 0
M  V30 11066 C 992.6 3.00044 3.26326 0
M  V30 11067 H 989.82 0.555186 0.376842 0
M  V30 11068 H 992.364 1.9663 0.56187 0
M  V30 11069 H 990.519 2.45536 2.99651 0
M  V30 11070 H 990.933 4.61211 2.49769 0
M  V30 11071 H 992.407 3.8007 4.00313 0
M  V30 11072 H 992.884 2.11128 3.85126 0
M  V30 11073 H 993.49 3.30345 2.67866 0
M  V30 11074 N 991.805 -0.723954 1.39988 0
M  V30 11075 C 993.03 -1.5182 1.41299 0
M  V30 11076 C 993.455 -1.88096 0.0122636 0
M  V30 11077 O 992.813 -1.52687 -0.977559 0
M  V30 11078 C 992.861 -2.77532 2.30235 0
M  V30 11079 O 991.965 -3.73903 1.73984 0
M  V30 11080 H 991.306 -0.458058 0.480707 0
M  V30 11081 H 993.836 -0.892291 1.84118 0
M  V30 11082 H 993.846 -3.2615 2.45132 0
M  V30 11083 H 992.521 -2.50462 3.32026 0
M  V30 11084 H 991.098 -3.32715 1.68389 0
M  V30 11085 N 993.283 -1.25346 -0.955304 0
M  V30 11086 C 994.529 -1.10218 -1.70235 0
M  V30 11087 C 994.862 0.356124 -1.90907 0
M  V30 11088 O 994.137 1.26253 -1.47954 0
M  V30 11089 C 994.42 -1.85627 -3.08569 0
M  V30 11090 C 994.273 -3.39281 -2.95311 0
M  V30 11091 C 995.592 -1.63886 -4.08448 0
M  V30 11092 H 992.711 -0.401781 -0.617852 0
M  V30 11093 H 995.353 -1.5417 -1.11048 0
M  V30 11094 H 993.503 -1.48269 -3.59094 0
M  V30 11095 H 995.175 -3.8631 -2.52116 0
M  V30 11096 H 993.418 -3.67027 -2.31244 0
M  V30 11097 H 994.089 -3.87258 -3.93364 0
M  V30 11098 H 996.565 -1.96406 -3.6683 0
M  V30 11099 H 995.441 -2.19087 -5.03281 0
M  V30 11100 H 995.702 -0.580021 -4.38279 0
M  V30 11101 N 994.761 1.15782 -1.06922 0
M  V30 11102 C 995.694 2.19336 -0.629837 0
M  V30 11103 C 996.672 1.58774 0.350663 0
M  V30 11104 O 997.856 1.86724 0.258124 0
M  V30 11105 C 994.983 3.38615 0.0757526 0
M  V30 11106 C 994.029 4.17688 -0.862503 0
M  V30 11107 S 994.862 4.80634 -2.36117 0
M  V30 11108 C 996.018 6.03286 -1.66725 0
M  V30 11109 H 996.251 2.56267 -1.50714 0
M  V30 11110 H 993.784 1.26674 -0.882776 0
M  V30 11111 H 995.742 4.07724 0.476611 0
M  V30 11112 H 994.403 3.00037 0.929332 0
M  V30 11113 H 993.596 5.03012 -0.315461 0
M  V30 11114 H 993.198 3.54106 -1.20354 0
M  V30 11115 H 995.49 6.70426 -0.976472 0
M  V30 11116 H 996.433 6.62551 -2.49864 0
M  V30 11117 H 996.841 5.52722 -1.14711 0
M  V30 11118 N 996.239 0.8527 1.3254 0
M  V30 11119 C 997.655 0.542298 1.50104 0
M  V30 11120 C 997.855 -0.927465 1.78886 0
M  V30 11121 O 996.911 -1.7106 1.85728 0
M  V30 11122 C 998.224 1.4276 2.64651 0
M  V30 11123 C 999.772 1.42782 2.78536 0
M  V30 11124 C 1000.25 2.29828 3.9616 0
M  V30 11125 N 1001.74 2.27613 4.03418 0
M  V30 11126 C 1002.47 2.91696 4.93661 0
M  V30 11127 N 1001.97 3.64883 5.88925 0
M  V30 11128 N 1003.76 2.81094 4.86768 0
M  V30 11129 H 995.913 1.80395 1.12123 0
M  V30 11130 H 998.176 0.770394 0.552446 0
M  V30 11131 H 997.882 2.47266 2.50105 0
M  V30 11132 H 997.756 1.11358 3.60388 0
M  V30 11133 H 1000.14 0.390417 2.92506 0
M  V30 11134 H 1000.22 1.78198 1.83519 0
M  V30 11135 H 999.868 3.33635 3.82949 0
M  V30 11136 H 999.798 1.91746 4.9045 0
M  V30 11137 H 1002.29 1.74402 3.3525 0
M  V30 11138 H 1002.6 4.10952 6.54476 0
M  V30 11139 H 1000.95 3.68991 5.88957 0
M  V30 11140 H 1004.14 2.23469 4.11314 0
M  V30 11141 H 1004.31 3.31318 5.56895 0
M  V30 11142 N 997.718 -1.45297 0.610449 0
M  V30 11143 C 998.648 -2.33311 -0.0939698 0
M  V30 11144 C 999.629 -1.46999 -0.85588 0
M  V30 11145 O 1000.81 -1.75764 -0.825865 0
M  V30 11146 C 997.944 -3.29751 -1.09003 0
M  V30 11147 C 996.898 -4.2572 -0.441146 0
M  V30 11148 C 996.224 -5.11873 -1.54566 0
M  V30 11149 C 997.524 -5.1837 0.639489 0
M  V30 11150 H 999.218 -2.92459 0.640941 0
M  V30 11151 H 996.764 -1.40631 0.309675 0
M  V30 11152 H 998.717 -3.90195 -1.59141 0
M  V30 11153 H 997.441 -2.68768 -1.85557 0
M  V30 11154 H 996.1 -3.66579 0.0393908 0
M  V30 11155 H 995.748 -4.47256 -2.30155 0
M  V30 11156 H 995.448 -5.76886 -1.11698 0
M  V30 11157 H 996.972 -5.75185 -2.04925 0
M  V30 11158 H 998.386 -5.7287 0.22207 0
M  V30 11159 H 996.783 -5.91876 0.990089 0
M  V30 11160 H 997.853 -4.60627 1.51495 0
M  V30 11161 N 999.196 -0.349774 -1.5367 0
M  V30 11162 C 1000.13 0.496338 -2.28164 0
M  V30 11163 C 1001.11 1.09737 -1.29968 0
M  V30 11164 O 1002.29 1.11759 -1.58819 0
M  V30 11165 C 999.422 1.64428 -3.0591 0
M  V30 11166 C 998.376 1.17127 -4.11661 0
M  V30 11167 C 997.702 2.40822 -4.77398 0
M  V30 11168 C 999.002 0.267293 -5.21616 0
M  V30 11169 H 1000.7 -0.125117 -2.99138 0
M  V30 11170 H 998.242 -0.0616152 -1.43868 0
M  V30 11171 H 1000.19 2.2427 -3.56765 0
M  V30 11172 H 998.919 2.29272 -2.32598 0
M  V30 11173 H 997.578 0.595634 -3.61729 0
M  V30 11174 H 997.226 3.04088 -4.00674 0
M  V30 11175 H 996.926 2.09852 -5.48849 0
M  V30 11176 H 998.45 3.01378 -5.3104 0
M  V30 11177 H 999.864 0.772734 -5.68068 0
M  V30 11178 H 998.261 0.0491991 -6.0008 0
M  V30 11179 H 999.331 -0.694892 -4.79895 0
M  V30 11180 N 1000.67 1.57404 -0.0785433 0
M  V30 11181 C 1001.9 1.98492 0.601292 0
M  V30 11182 C 1002.32 0.956832 1.61945 0
M  V30 11183 O 1001.68 -0.0767502 1.81137 0
M  V30 11184 C 1001.73 3.38596 1.24036 0
M  V30 11185 O 1000.83 3.38461 2.35622 0
M  V30 11186 H 1000.17 0.645882 0.154054 0
M  V30 11187 H 1002.7 2.04012 -0.155056 0
M  V30 11188 H 1002.71 3.75929 1.5856 0
M  V30 11189 H 1001.39 4.12952 0.494341 0
M  V30 11190 H 999.967 3.12906 2.02841 0
M  V30 11191 N 1002.15 -0.195058 1.56388 0
M  V30 11192 C 1003.1 -1.24175 1.94549 0
M  V30 11193 C 1004.07 -1.45229 0.806089 0
M  V30 11194 O 1005.25 -1.58362 1.06425 0
M  V30 11195 C 1002.39 -2.58145 2.29031 0
M  V30 11196 C 1001.51 -2.44669 3.56035 0
M  V30 11197 C 1000.64 -3.71342 3.7984 0
M  V30 11198 C 999.681 -3.52699 5.0027 0
M  V30 11199 N 998.818 -4.71385 5.20328 0
M  V30 11200 H 1003.66 -0.909319 2.83788 0
M  V30 11201 H 1001.19 -0.437641 1.40439 0
M  V30 11202 H 1003.15 -3.36195 2.4704 0
M  V30 11203 H 1001.78 -2.8943 1.42933 0
M  V30 11204 H 1000.83 -1.57916 3.46073 0
M  V30 11205 H 1002.15 -2.26827 4.44242 0
M  V30 11206 H 1001.3 -4.57832 3.98088 0
M  V30 11207 H 1000.04 -3.92138 2.89964 0
M  V30 11208 H 999.045 -2.64594 4.81944 0
M  V30 11209 H 1000.27 -3.33349 5.91655 0
M  V30 11210 H 998.216 -4.92444 4.33399 0
M  V30 11211 H 998.133 -4.56368 6.02714 0
M  V30 11212 H 999.401 -5.59226 5.43035 0
M  V30 11213 N 1003.63 -1.50653 -0.462772 0
M  V30 11214 C 1004.58 -1.66509 -1.55752 0
M  V30 11215 C 1005.56 -0.519508 -1.52282 0
M  V30 11216 O 1006.76 -0.774296 -1.59166 0
M  V30 11217 C 1003.88 -1.77023 -2.94139 0
M  V30 11218 C 1002.97 -2.97284 -3.02461 0
M  V30 11219 N 1003.36 -4.20843 -2.80579 0
M  V30 11220 C 1001.66 -2.96014 -3.33604 0
M  V30 11221 C 1002.36 -5.01886 -2.94084 0
M  V30 11222 N 1001.34 -4.3601 -3.24648 0
M  V30 11223 H 1005.14 -2.59727 -1.37546 0
M  V30 11224 H 1002.65 -1.47951 -0.669653 0
M  V30 11225 H 1004.65 -1.86488 -3.72864 0
M  V30 11226 H 1003.31 -0.849688 -3.13385 0
M  V30 11227 H 1004.32 -4.50206 -2.55998 0
M  V30 11228 H 1001 -2.13493 -3.58786 0
M  V30 11229 H 1002.39 -6.10164 -2.81334 0
M  V30 11230 N 1005.11 0.71652 -1.4037 0
M  V30 11231 C 1006.52 1.02447 -1.22379 0
M  V30 11232 C 1006.72 2.0126 -0.0983394 0
M  V30 11233 O 1005.78 2.46569 0.544071 0
M  V30 11234 C 1007.09 1.56909 -2.56515 0
M  V30 11235 C 1008.64 1.68898 -2.6352 0
M  V30 11236 C 1009.12 2.26765 -3.97922 0
M  V30 11237 N 1010.61 2.34152 -3.99658 0
M  V30 11238 C 1011.34 2.79907 -5.00439 0
M  V30 11239 N 1010.84 3.25422 -6.11615 0
M  V30 11240 N 1012.63 2.79283 -4.87809 0
M  V30 11241 H 1004.78 0.0615306 -2.12311 0
M  V30 11242 H 1007.05 0.0898994 -0.943728 0
M  V30 11243 H 1006.75 0.917649 -3.39517 0
M  V30 11244 H 1006.63 2.55446 -2.77538 0
M  V30 11245 H 1009.01 2.33159 -1.8089 0
M  V30 11246 H 1009.09 0.689626 -2.46329 0
M  V30 11247 H 1008.74 1.63126 -4.80991 0
M  V30 11248 H 1008.67 3.27413 -4.12442 0
M  V30 11249 H 1011.16 2.02006 -3.19378 0
M  V30 11250 H 1011.47 3.58899 -6.84406 0
M  V30 11251 H 1009.82 3.23383 -6.15181 0
M  V30 11252 H 1013.01 2.43061 -4.00049 0
M  V30 11253 H 1013.18 3.14626 -5.66493 0
M  V30 11254 N 1006.59 1.25851 0.948643 0
M  V30 11255 C 1007.55 1.0683 2.0278 0
M  V30 11256 C 1008.55 0.0191016 1.60789 0
M  V30 11257 O 1009.74 0.261836 1.72221 0
M  V30 11258 C 1006.87 0.623318 3.35153 0
M  V30 11259 H 1008.06 2.02635 2.21086 0
M  V30 11260 H 1005.62 1.08343 1.12657 0
M  V30 11261 H 1006.35 -0.337053 3.22544 0
M  V30 11262 H 1006.14 1.38082 3.66982 0
M  V30 11263 H 1007.63 0.511854 4.14451 0
M  V30 11264 N 1008.06 -1.15214 1.07534 0
M  V30 11265 C 1009.31 -1.86043 0.799629 0
M  V30 11266 C 1009.64 -1.82435 -0.674356 0
M  V30 11267 O 1008.89 -1.24379 -1.51091 0
M  V30 11268 C 1009.19 -3.34623 1.25547 0
M  V30 11269 C 1008.86 -3.58425 2.73573 0
M  V30 11270 C 1007.52 -3.6463 3.14004 0
M  V30 11271 C 1009.87 -3.67977 3.6911 0
M  V30 11272 C 1007.2 -3.779 4.48786 0
M  V30 11273 C 1009.55 -3.82771 5.03656 0
M  V30 11274 C 1008.22 -3.87222 5.43705 0
M  V30 11275 H 1007.49 -0.680781 0.292605 0
M  V30 11276 H 1010.13 -1.36149 1.34669 0
M  V30 11277 H 1008.44 -3.86737 0.627828 0
M  V30 11278 H 1010.14 -3.87836 1.01901 0
M  V30 11279 H 1006.73 -3.54238 2.41275 0
M  V30 11280 H 1010.91 -3.62482 3.39 0
M  V30 11281 H 1006.17 -3.79604 4.79281 0
M  V30 11282 H 1010.34 -3.89104 5.77556 0
M  V30 11283 H 1007.97 -3.97256 6.48145 0
M  V30 11284 N 1009.54 -0.859717 -1.32086 0
M  V30 11285 C 1010.45 -0.31108 -2.32528 0
M  V30 11286 C 1011.47 0.573714 -1.6427 0
M  V30 11287 O 1012.64 0.472878 -1.9577 0
M  V30 11288 C 1009.71 0.487256 -3.43259 0
M  V30 11289 C 1008.77 -0.424279 -4.27198 0
M  V30 11290 C 1008 0.336051 -5.32641 0
M  V30 11291 O 1008.23 1.56541 -5.48499 0
M  V30 11292 O 1007.16 -0.300777 -6.01148 0
M  V30 11293 H 1010.99 -1.14336 -2.81355 0
M  V30 11294 H 1008.57 -0.622794 -1.358 0
M  V30 11295 H 1010.45 0.940203 -4.10777 0
M  V30 11296 H 1009.13 1.29626 -2.96612 0
M  V30 11297 H 1008.04 -0.925509 -3.62471 0
M  V30 11298 H 1009.37 -1.1986 -4.77383 0
M  V30 11299 N 1011.02 1.44971 -0.618145 0
M  V30 11300 C 1012.3 1.95539 -0.0489895 0
M  V30 11301 C 1012.68 1.5604 1.42179 0
M  V30 11302 O 1012.03 0.82809 2.12967 0
M  V30 11303 C 1012.24 3.48044 -0.258193 0
M  V30 11304 C 1013.58 4.24354 -0.144541 0
M  V30 11305 O 1014.61 3.55699 -0.18887 0
M  V30 11306 O 1013.47 5.46486 -0.038519 0
M  V30 11307 H 1010.56 0.826466 0.0297256 0
M  V30 11308 H 1013.11 1.55086 -0.688944 0
M  V30 11309 H 1011.88 3.69798 -1.27926 0
M  V30 11310 H 1011.5 3.95412 0.416522 0
M  V30 11311 N 1012.5 0.357919 1.53482 0
M  V30 11312 C 1013.41 -0.500273 2.29204 0
M  V30 11313 C 1014.42 -1.09936 1.3487 0
M  V30 11314 O 1015.6 -1.11195 1.67921 0
M  V30 11315 C 1012.67 -1.62828 3.06085 0
M  V30 11316 C 1011.73 -1.05751 4.16071 0
M  V30 11317 C 1010.96 -2.13176 4.89277 0
M  V30 11318 O 1011.18 -3.34153 4.62274 0
M  V30 11319 O 1010.12 -1.76663 5.7539 0
M  V30 11320 H 1013.94 0.115696 3.0348 0
M  V30 11321 H 1011.53 0.122527 1.48897 0
M  V30 11322 H 1013.41 -2.28427 3.54117 0
M  V30 11323 H 1012.08 -2.22979 2.34653 0
M  V30 11324 H 1010.99 -0.365642 3.72309 0
M  V30 11325 H 1012.32 -0.500661 4.89647 0
M  V30 11326 N 1013.98 -1.5736 0.0868897 0
M  V30 11327 C 1014.91 -2.09211 -0.911382 0
M  V30 11328 C 1015.89 -1.00072 -1.28157 0
M  V30 11329 O 1017.07 -1.27514 -1.38825 0
M  V30 11330 C 1014.2 -2.56229 -2.21504 0
M  V30 11331 C 1013.24 -3.76948 -1.99531 0
M  V30 11332 S 1014.08 -5.20926 -1.24083 0
M  V30 11333 C 1015.23 -5.71288 -2.55697 0
M  V30 11334 H 1015.47 -2.93557 -0.470245 0
M  V30 11335 H 1013 -1.53883 -0.126218 0
M  V30 11336 H 1014.96 -2.83978 -2.96424 0
M  V30 11337 H 1013.62 -1.72123 -2.6274 0
M  V30 11338 H 1012.81 -4.07887 -2.96048 0
M  V30 11339 H 1012.41 -3.4965 -1.32744 0
M  V30 11340 H 1014.71 -5.79054 -3.51714 0
M  V30 11341 H 1015.65 -6.6993 -2.29347 0
M  V30 11342 H 1016.06 -4.99178 -2.63594 0
M  V30 11343 N 1015.45 0.186762 -1.56489 0
M  V30 11344 C 1016.68 0.925916 -1.85584 0
M  V30 11345 C 1017.1 1.75708 -0.671446 0
M  V30 11346 O 1016.46 1.7728 0.379687 0
M  V30 11347 C 1016.51 1.79107 -3.12975 0
M  V30 11348 O 1015.61 2.89088 -2.94112 0
M  V30 11349 H 1014.96 0.260275 -0.610863 0
M  V30 11350 H 1017.49 0.189561 -2.0372 0
M  V30 11351 H 1017.5 2.19408 -3.43983 0
M  V30 11352 H 1016.17 1.18044 -3.98796 0
M  V30 11353 H 1014.75 2.52482 -2.74422 0
M  V30 11354 N 1016.93 1.50896 0.454776 0
M  V30 11355 C 1018.18 1.62378 1.20324 0
M  V30 11356 C 1018.5 0.333883 1.9212 0
M  V30 11357 O 1017.77 -0.649477 1.8482 0
M  V30 11358 H 1016.35 0.598395 0.447139 0
M  V30 11359 H 1019.01 1.87749 0.523102 0
M  V30 11360 H 1018.11 2.44296 1.94232 0
M  V30 11361 N 1018.41 -0.709066 1.40748 0
M  V30 11362 C 1019.83 -1.01797 1.22921 0
M  V30 11363 C 1020.03 -2.01205 0.109011 0
M  V30 11364 O 1019.08 -2.46854 -0.530987 0
M  V30 11365 C 1020.4 -1.55546 2.57344 0
M  V30 11366 C 1021.94 -1.67498 2.64412 0
M  V30 11367 C 1022.42 -2.24652 3.99119 0
M  V30 11368 N 1023.91 -2.3203 4.00895 0
M  V30 11369 C 1024.64 -2.7725 5.01917 0
M  V30 11370 N 1024.14 -3.22174 6.13332 0
M  V30 11371 N 1025.93 -2.76692 4.89283 0
M  V30 11372 H 1018.08 -0.0502704 2.12341 0
M  V30 11373 H 1020.35 -0.0848933 0.944191 0
M  V30 11374 H 1020.05 -0.899631 3.39999 0
M  V30 11375 H 1019.93 -2.53971 2.78888 0
M  V30 11376 H 1022.31 -2.32196 1.82123 0
M  V30 11377 H 1022.4 -0.676553 2.46691 0
M  V30 11378 H 1022.04 -1.60573 4.81849 0
M  V30 11379 H 1021.97 -3.25221 4.14173 0
M  V30 11380 H 1024.46 -2.00309 3.20444 0
M  V30 11381 H 1024.77 -3.55265 6.86299 0
M  V30 11382 H 1023.12 -3.20116 6.16888 0
M  V30 11383 H 1026.31 -2.40936 4.01332 0
M  V30 11384 H 1026.48 -3.11617 5.68154 0
M  V30 11385 N 1019.89 -1.26353 -0.941956 0
M  V30 11386 C 1021.11 -1.14731 -1.72776 0
M  V30 11387 C 1021.54 0.293766 -1.85792 0
M  V30 11388 O 1020.9 1.21284 -1.34759 0
M  V30 11389 C 1020.95 -1.82041 -3.11277 0
M  V30 11390 O 1020.05 -1.10867 -3.97218 0
M  V30 11391 H 1019.39 -0.399823 -0.53013 0
M  V30 11392 H 1021.92 -1.67157 -1.17981 0
M  V30 11393 H 1021.93 -1.88834 -3.61671 0
M  V30 11394 H 1020.61 -2.86879 -3.0112 0
M  V30 11395 H 1019.18 -1.12044 -3.55669 0
M  V30 11396 N 1021.37 1.14642 -1.08144 0
M  V30 11397 C 1022.62 1.8525 -0.807885 0
M  V30 11398 C 1022.94 1.83194 0.668213 0
M  V30 11399 O 1022.21 1.27848 1.48431 0
M  V30 11400 H 1020.79 0.685909 -0.295868 0
M  V30 11401 H 1023.45 1.38935 -1.36686 0
M  V30 11402 H 1022.54 2.90155 -1.14964 0
M  V30 11403 N 1022.85 0.866709 1.31628 0
M  V30 11404 C 1023.8 0.291712 2.26126 0
M  V30 11405 C 1024.78 -0.569375 1.50489 0
M  V30 11406 O 1025.97 -0.416786 1.72023 0
M  V30 11407 C 1023.1 -0.508624 3.39511 0
M  V30 11408 C 1022.19 0.365524 4.22522 0
M  V30 11409 N 1022.58 1.45747 4.84346 0
M  V30 11410 C 1020.88 0.157384 4.45722 0
M  V30 11411 C 1021.58 1.99625 5.46374 0
M  V30 11412 N 1020.55 1.29371 5.27981 0
M  V30 11413 H 1024.35 1.12633 2.71461 0
M  V30 11414 H 1021.87 0.714118 1.45857 0
M  V30 11415 H 1023.87 -0.937057 4.06233 0
M  V30 11416 H 1022.53 -1.34089 2.9572 0
M  V30 11417 H 1023.54 1.84039 4.84097 0
M  V30 11418 H 1020.21 -0.639193 4.12578 0
M  V30 11419 H 1021.6 2.91222 6.05508 0
M  V30 11420 N 1024.32 -1.44642 0.625825 0
M  V30 11421 C 1025.57 -2.02094 0.128201 0
M  V30 11422 C 1025.9 -1.49181 -1.24801 0
M  V30 11423 O 1025.15 -0.663965 -1.84092 0
M  V30 11424 C 1025.45 -3.57352 0.0584381 0
M  V30 11425 C 1025.12 -4.29496 1.37272 0
M  V30 11426 C 1023.78 -4.48922 1.7327 0
M  V30 11427 C 1026.13 -4.70586 2.2405 0
M  V30 11428 C 1023.46 -5.06697 2.95762 0
M  V30 11429 C 1025.81 -5.29717 3.45807 0
M  V30 11430 C 1024.48 -5.47363 3.82034 0
M  V30 11431 H 1023.75 -0.739514 0.0469122 0
M  V30 11432 H 1026.39 -1.73475 0.811083 0
M  V30 11433 H 1024.7 -3.85354 -0.707791 0
M  V30 11434 H 1026.4 -3.9953 -0.34303 0
M  V30 11435 H 1022.99 -4.14702 1.08258 0
M  V30 11436 H 1027.17 -4.55295 1.97535 0
M  V30 11437 H 1022.43 -5.18546 3.23913 0
M  V30 11438 H 1026.6 -5.60507 4.13286 0
M  V30 11439 H 1024.23 -5.91898 4.77033 0
M  V30 11440 N 1025.8 -0.366053 -1.5329 0
M  V30 11441 C 1026.71 0.488111 -2.29466 0
M  V30 11442 C 1027.73 1.09219 -1.35452 0
M  V30 11443 O 1028.9 1.10303 -1.68509 0
M  V30 11444 C 1025.97 1.61202 -3.06944 0
M  V30 11445 C 1025.03 1.03543 -4.16626 0
M  V30 11446 C 1024.26 2.10578 -4.904 0
M  V30 11447 O 1024.49 3.31697 -4.6404 0
M  V30 11448 O 1023.42 1.73609 -5.76319 0
M  V30 11449 H 1027.25 -0.131789 -3.03414 0
M  V30 11450 H 1024.83 -0.130421 -1.4883 0
M  V30 11451 H 1026.71 2.26546 -3.55324 0
M  V30 11452 H 1025.39 2.21732 -2.35832 0
M  V30 11453 H 1024.29 0.345892 -3.72498 0
M  V30 11454 H 1025.63 0.474687 -4.89906 0
M  V30 11455 N 1027.28 1.57312 -0.0952337 0
M  V30 11456 C 1028.21 2.11059 0.893678 0
M  V30 11457 C 1029.22 1.04787 1.24594 0
M  V30 11458 O 1030.41 1.32233 1.19903 0
M  V30 11459 C 1027.51 2.57552 2.20272 0
M  V30 11460 C 1026.69 3.87661 2.02578 0
M  V30 11461 C 1025.75 4.2 3.16996 0
M  V30 11462 O 1024.77 4.89219 2.90953 0
M  V30 11463 N 1025.97 3.75414 4.42769 0
M  V30 11464 H 1028.74 2.96532 0.434632 0
M  V30 11465 H 1026.3 1.6165 0.0898661 0
M  V30 11466 H 1028.29 2.76232 2.95766 0
M  V30 11467 H 1026.86 1.7709 2.576 0
M  V30 11468 H 1026.08 3.78128 1.11413 0
M  V30 11469 H 1027.37 4.7278 1.88032 0
M  V30 11470 H 1026.77 3.1954 4.66809 0
M  V30 11471 H 1025.32 3.99249 5.15212 0
M  V30 11472 N 1028.76 -0.17846 1.56586 0
M  V30 11473 C 1029.72 -1.20479 1.94981 0
M  V30 11474 C 1030.72 -1.37561 0.832677 0
M  V30 11475 O 1031.91 -1.35089 1.09984 0
M  V30 11476 C 1029.04 -2.57117 2.23839 0
M  V30 11477 H 1030.24 -0.876173 2.86816 0
M  V30 11478 H 1027.79 -0.420635 1.50534 0
M  V30 11479 H 1028.52 -2.95005 1.34695 0
M  V30 11480 H 1028.31 -2.46086 3.05261 0
M  V30 11481 H 1029.8 -3.31096 2.5449 0
M  V30 11482 N 1030.24 -1.51135 -0.446768 0
M  V30 11483 C 1031.48 -1.62571 -1.19388 0
M  V30 11484 C 1031.8 -0.3432 -1.92566 0
M  V30 11485 O 1033 -0.336804 -2.69403 0
M  V30 11486 C 1031.46 -2.87071 -2.17068 0
M  V30 11487 C 1031.07 -4.22291 -1.49581 0
M  V30 11488 C 1032.81 -3.07862 -2.9227 0
M  V30 11489 C 1030.72 -5.3795 -2.45689 0
M  V30 11490 H 1029.65 -0.60549 -0.449331 0
M  V30 11491 H 1032.3 -1.77593 -0.461846 0
M  V30 11492 H 1030.68 -2.65662 -2.93666 0
M  V30 11493 H 1031.86 -4.54046 -0.786054 0
M  V30 11494 H 1030.17 -4.07302 -0.865677 0
M  V30 11495 H 1032.77 -3.91444 -3.64246 0
M  V30 11496 H 1033.11 -2.20559 -3.53072 0
M  V30 11497 H 1033.64 -3.29566 -2.2278 0
M  V30 11498 H 1030.38 -6.27484 -1.89591 0
M  V30 11499 H 1029.9 -5.10583 -3.14746 0
M  V30 11500 H 1031.58 -5.69517 -3.07017 0
M  V30 11501 N 1031.71 0.701592 -1.41122 0
M  V30 11502 C 1032.66 1.81559 -1.42495 0
M  V30 11503 C 1033.63 1.63722 -0.280078 0
M  V30 11504 O 1034.82 1.84658 -0.480231 0
M  V30 11505 C 1031.96 3.19392 -1.30702 0
M  V30 11506 C 1031.07 3.48704 -2.55009 0
M  V30 11507 C 1030.2 4.76118 -2.35554 0
M  V30 11508 C 1029.24 4.98378 -3.55367 0
M  V30 11509 N 1028.38 6.17014 -3.3502 0
M  V30 11510 H 1033.22 1.7972 -2.37707 0
M  V30 11511 H 1030.76 0.877727 -1.18044 0
M  V30 11512 H 1032.71 3.99004 -1.21867 0
M  V30 11513 H 1031.34 3.20423 -0.391012 0
M  V30 11514 H 1030.4 2.63542 -2.74317 0
M  V30 11515 H 1031.71 3.61057 -3.44151 0
M  V30 11516 H 1030.86 5.63774 -2.24152 0
M  V30 11517 H 1029.6 4.66 -1.43859 0
M  V30 11518 H 1028.61 4.09172 -3.6723 0
M  V30 11519 H 1029.83 5.10359 -4.48007 0
M  V30 11520 H 1027.78 6.0812 -2.4602 0
M  V30 11521 H 1027.69 6.30107 -4.17733 0
M  V30 11522 H 1028.96 7.0742 -3.27379 0
M  V30 11523 N 1033.19 1.2685 0.935242 0
M  V30 11524 C 1034.1 1.10716 2.06831 0
M  V30 11525 C 1035.12 0.0391222 1.73956 0
M  V30 11526 O 1036.29 0.244071 1.99916 0
M  V30 11527 C 1033.36 0.748093 3.38533 0
M  V30 11528 C 1032.42 1.89619 3.85153 0
M  V30 11529 C 1031.65 1.55416 5.1057 0
M  V30 11530 O 1031.88 0.458596 5.68553 0
M  V30 11531 O 1030.81 2.39087 5.52378 0
M  V30 11532 H 1034.64 2.05785 2.23352 0
M  V30 11533 H 1032.22 1.05967 1.05315 0
M  V30 11534 H 1034.1 0.560841 4.17651 0
M  V30 11535 H 1032.78 -0.173142 3.23237 0
M  V30 11536 H 1031.68 2.13845 3.06954 0
M  V30 11537 H 1033.02 2.79737 4.04979 0
M  V30 11538 N 1034.67 -1.14067 1.0875 0
M  V30 11539 C 1035.92 -1.84819 0.817698 0
M  V30 11540 C 1036.24 -1.83545 -0.658488 0
M  V30 11541 O 1035.51 -1.28633 -1.47751 0
M  V30 11542 H 1034.09 -0.68433 0.299502 0
M  V30 11543 H 1036.75 -1.38208 1.37421 0
M  V30 11544 H 1035.85 -2.89541 1.16501 0
M  V30 11545 N 1036.15 -0.873678 -1.31166 0
M  V30 11546 C 1037.06 -0.335726 -2.32185 0
M  V30 11547 C 1038.07 0.556259 -1.64869 0
M  V30 11548 O 1039.25 0.452087 -1.9626 0
M  V30 11549 C 1036.32 0.450822 -3.43756 0
M  V30 11550 C 1035.38 -0.469565 -4.26724 0
M  V30 11551 C 1034.61 0.279538 -5.32967 0
M  V30 11552 O 1034.83 1.50715 -5.50128 0
M  V30 11553 O 1033.77 -0.36452 -6.00795 0
M  V30 11554 H 1037.59 -1.17314 -2.80127 0
M  V30 11555 H 1035.18 -0.637163 -1.35132 0
M  V30 11556 H 1037.06 0.896582 -4.11752 0
M  V30 11557 H 1035.73 1.26472 -2.9797 0
M  V30 11558 H 1034.64 -0.963902 -3.61469 0
M  V30 11559 H 1035.97 -1.24916 -4.76085 0
M  V30 11560 N 1037.63 1.44308 -0.633487 0
M  V30 11561 C 1038.9 1.95476 -0.0697262 0
M  V30 11562 C 1039.28 1.57539 1.40516 0
M  V30 11563 O 1038.63 0.850632 2.12077 0
M  V30 11564 C 1038.84 3.4775 -0.295093 0
M  V30 11565 C 1040.19 4.24177 -0.189542 0
M  V30 11566 O 1041.21 3.55479 -0.226586 0
M  V30 11567 O 1040.07 5.46415 -0.096479 0
M  V30 11568 H 1037.17 0.826734 0.0209582 0
M  V30 11569 H 1039.71 1.54347 -0.705354 0
M  V30 11570 H 1038.48 3.6842 -1.31841 0
M  V30 11571 H 1038.11 3.95832 0.37456 0
M  V30 11572 N 1039.1 0.374177 1.53094 0
M  V30 11573 C 1040.04 -0.511995 2.22382 0
M  V30 11574 C 1041.02 -1.07617 1.2189 0
M  V30 11575 O 1042.2 -1.13068 1.50824 0
M  V30 11576 C 1039.33 -1.70724 2.92525 0
M  V30 11577 C 1038.37 -1.26972 4.07161 0
M  V30 11578 S 1039.21 -0.263835 5.3485 0
M  V30 11579 C 1040.36 -1.46521 6.08508 0
M  V30 11580 H 1040.59 0.0764311 2.97202 0
M  V30 11581 H 1038.13 0.158307 1.53586 0
M  V30 11582 H 1040.09 -2.39279 3.3355 0
M  V30 11583 H 1038.75 -2.26693 2.17414 0
M  V30 11584 H 1037.94 -2.16172 4.55286 0
M  V30 11585 H 1037.54 -0.663273 3.68072 0
M  V30 11586 H 1039.83 -2.39483 6.33762 0
M  V30 11587 H 1040.78 -1.02517 7.0064 0
M  V30 11588 H 1041.18 -1.67516 5.39072 0
M  V30 11589 N 1040.58 -1.57259 0.103575 0
M  V30 11590 C 1041.83 -1.93832 -0.55786 0
M  V30 11591 C 1042.14 -0.988087 -1.68808 0
M  V30 11592 O 1043.35 -1.24786 -2.41124 0
M  V30 11593 C 1041.81 -3.44433 -1.04373 0
M  V30 11594 C 1041.41 -4.47963 0.0571971 0
M  V30 11595 C 1043.16 -3.89953 -1.67742 0
M  V30 11596 C 1041.07 -5.89727 -0.444505 0
M  V30 11597 H 1040 -0.723536 -0.212161 0
M  V30 11598 H 1042.65 -1.82606 0.180944 0
M  V30 11599 H 1041.03 -3.50841 -1.83648 0
M  V30 11600 H 1042.2 -4.53209 0.83298 0
M  V30 11601 H 1040.52 -4.12104 0.596588 0
M  V30 11602 H 1043.11 -4.93272 -2.06365 0
M  V30 11603 H 1043.46 -3.2907 -2.54988 0
M  V30 11604 H 1043.99 -3.86281 -0.950342 0
M  V30 11605 H 1040.73 -6.5433 0.391543 0
M  V30 11606 H 1040.25 -5.87935 -1.18711 0
M  V30 11607 H 1041.93 -6.40558 -0.910739 0
M  V30 11608 N 1042.06 0.170153 -1.56679 0
M  V30 11609 C 1043.02 1.19443 -1.95617 0
M  V30 11610 C 1044.02 1.37118 -0.83996 0
M  V30 11611 O 1045.21 1.34504 -1.10699 0
M  V30 11612 C 1042.35 2.55926 -2.25199 0
M  V30 11613 H 1043.54 0.86095 -2.87276 0
M  V30 11614 H 1041.09 0.412646 -1.50755 0
M  V30 11615 H 1041.83 2.94286 -1.36257 0
M  V30 11616 H 1041.61 2.44464 -3.06562 0
M  V30 11617 H 1043.1 3.29742 -2.56242 0
M  V30 11618 N 1043.54 1.5137 0.438746 0
M  V30 11619 C 1044.45 1.75424 1.55768 0
M  V30 11620 C 1045.46 0.638409 1.61865 0
M  V30 11621 O 1046.64 0.9205 1.79133 0
M  V30 11622 C 1043.71 1.87288 2.9176 0
M  V30 11623 C 1042.77 3.11137 2.95791 0
M  V30 11624 C 1042 3.22425 4.25297 0
M  V30 11625 O 1042.22 2.39688 5.17596 0
M  V30 11626 O 1041.16 4.15393 4.35583 0
M  V30 11627 H 1044.98 2.70339 1.38386 0
M  V30 11628 H 1042.57 1.35854 0.621609 0
M  V30 11629 H 1044.45 1.97085 3.72472 0
M  V30 11630 H 1043.12 0.955599 3.09273 0
M  V30 11631 H 1042.03 3.06819 2.1404 0
M  V30 11632 H 1043.36 4.02549 2.83223 0
M  V30 11633 N 1045.02 -0.694098 1.41492 0
M  V30 11634 C 1045.93 -1.83778 1.45818 0
M  V30 11635 C 1046.94 -1.70471 0.348639 0
M  V30 11636 O 1048.12 -1.92361 0.596588 0
M  V30 11637 C 1045.18 -3.19771 1.33967 0
M  V30 11638 C 1044.24 -3.45175 2.5525 0
M  V30 11639 C 1043.48 -4.74681 2.43955 0
M  V30 11640 O 1043.7 -5.51268 1.46491 0
M  V30 11641 O 1042.63 -5.00901 3.33739 0
M  V30 11642 H 1046.46 -1.83084 2.42309 0
M  V30 11643 H 1044.05 -0.847349 1.23046 0
M  V30 11644 H 1045.93 -4.00961 1.29648 0
M  V30 11645 H 1044.6 -3.21145 0.405926 0
M  V30 11646 H 1043.51 -2.6391 2.65146 0
M  V30 11647 H 1044.84 -3.48617 3.47458 0
M  V30 11648 N 1046.49 -1.27344 -0.928501 0
M  V30 11649 C 1047.44 -1.06656 -2.01515 0
M  V30 11650 C 1048.43 0.00516619 -1.60899 0
M  V30 11651 O 1049.62 -0.213277 -1.7571 0
M  V30 11652 C 1046.75 -0.714935 -3.35773 0
M  V30 11653 C 1045.84 -1.82476 -3.82836 0
M  V30 11654 N 1046.23 -3.06421 -4.02417 0
M  V30 11655 C 1044.52 -1.71126 -4.11864 0
M  V30 11656 C 1045.23 -3.78637 -4.41598 0
M  V30 11657 N 1044.2 -3.06396 -4.49024 0
M  V30 11658 H 1048 -2.00718 -2.14685 0
M  V30 11659 H 1045.52 -1.18048 -1.11528 0
M  V30 11660 H 1047.51 -0.54784 -4.13285 0
M  V30 11661 H 1046.17 0.218069 -3.23967 0
M  V30 11662 H 1047.19 -3.42191 -3.88749 0
M  V30 11663 H 1043.86 -0.849031 -4.08776 0
M  V30 11664 H 1045.25 -4.85159 -4.64834 0
M  V30 11665 N 1047.97 1.13488 -1.09353 0
M  V30 11666 C 1049.22 1.84748 -0.829126 0
M  V30 11667 C 1049.55 1.83485 0.645247 0
M  V30 11668 O 1048.8 1.26767 1.49093 0
M  V30 11669 C 1049.1 3.32584 -1.30854 0
M  V30 11670 C 1048.77 3.54028 -2.7924 0
M  V30 11671 C 1047.43 3.59588 -3.19765 0
M  V30 11672 C 1049.78 3.62058 -3.74918 0
M  V30 11673 C 1047.11 3.70712 -4.54741 0
M  V30 11674 C 1049.46 3.7471 -5.09682 0
M  V30 11675 C 1048.13 3.78523 -5.49797 0
M  V30 11676 H 1047.4 0.67604 -0.303399 0
M  V30 11677 H 1050.04 1.33989 -1.36818 0
M  V30 11678 H 1048.35 3.85689 -0.689275 0
M  V30 11679 H 1050.04 3.86166 -1.08059 0
M  V30 11680 H 1046.63 3.50354 -2.4688 0
M  V30 11681 H 1050.82 3.57043 -3.44723 0
M  V30 11682 H 1046.07 3.71931 -4.8526 0
M  V30 11683 H 1050.25 3.79866 -5.83674 0
M  V30 11684 H 1047.88 3.86895 -6.54382 0
M  V30 11685 N 1049.45 0.880621 1.30701 0
M  V30 11686 C 1050.7 0.495894 1.95922 0
M  V30 11687 C 1051.02 -0.957214 1.69889 0
M  V30 11688 O 1050.29 -1.67245 1.0201 0
M  V30 11689 H 1048.87 0.180394 0.724891 0
M  V30 11690 H 1051.53 1.12274 1.59313 0
M  V30 11691 H 1050.63 0.662508 3.04987 0
M  V30 11692 N 1050.93 -1.4397 0.641131 0
M  V30 11693 C 1052.15 -2.06818 0.155318 0
M  V30 11694 C 1052.58 -1.47665 -1.16519 0
M  V30 11695 O 1051.94 -0.58192 -1.71707 0
M  V30 11696 C 1051.99 -3.60542 0.0647537 0
M  V30 11697 O 1051.09 -4.00674 -0.976447 0
M  V30 11698 H 1050.43 -0.657962 0.0893404 0
M  V30 11699 H 1052.96 -1.84678 0.88064 0
M  V30 11700 H 1052.97 -4.07816 -0.122552 0
M  V30 11701 H 1051.65 -4.02975 1.02878 0
M  V30 11702 H 1050.22 -3.65013 -0.762905 0
M  V30 11703 N 1052.41 -0.382291 -1.52893 0
M  V30 11704 C 1053.32 0.463745 -2.29971 0
M  V30 11705 C 1054.33 1.07777 -1.36602 0
M  V30 11706 O 1055.51 1.0851 -1.69669 0
M  V30 11707 C 1052.57 1.57938 -3.08637 0
M  V30 11708 C 1051.64 0.991182 -4.17701 0
M  V30 11709 C 1050.87 2.05365 -4.92606 0
M  V30 11710 O 1051.09 3.26757 -4.67532 0
M  V30 11711 O 1050.03 1.67487 -5.78128 0
M  V30 11712 H 1053.85 -0.163962 -3.03257 0
M  V30 11713 H 1051.44 -0.146199 -1.48683 0
M  V30 11714 H 1053.32 2.22765 -3.57706 0
M  V30 11715 H 1051.99 2.19218 -2.3817 0
M  V30 11716 H 1050.9 0.306364 -3.72843 0
M  V30 11717 H 1052.23 0.422699 -4.90382 0
M  V30 11718 N 1053.89 1.57202 -0.111913 0
M  V30 11719 C 1054.83 2.14936 0.840908 0
M  V30 11720 C 1055.8 1.07242 1.2684 0
M  V30 11721 O 1056.99 1.35114 1.34718 0
M  V30 11722 C 1054.13 2.74743 2.0883 0
M  V30 11723 C 1053.24 3.96723 1.70982 0
M  V30 11724 C 1052.38 4.4464 2.90634 0
M  V30 11725 C 1051.41 5.59169 2.48992 0
M  V30 11726 N 1050.55 6.01862 3.61534 0
M  V30 11727 H 1055.39 2.96034 0.341735 0
M  V30 11728 H 1052.93 1.4626 0.156993 0
M  V30 11729 H 1054.89 3.07546 2.81907 0
M  V30 11730 H 1053.52 1.96346 2.56218 0
M  V30 11731 H 1052.57 3.70127 0.878072 0
M  V30 11732 H 1053.88 4.79795 1.36373 0
M  V30 11733 H 1053.03 4.79315 3.71944 0
M  V30 11734 H 1051.77 3.60503 3.28464 0
M  V30 11735 H 1050.78 5.24106 1.66113 0
M  V30 11736 H 1052 6.45067 2.12287 0
M  V30 11737 H 1049.95 5.20667 3.99051 0
M  V30 11738 H 1049.87 6.79772 3.30827 0
M  V30 11739 H 1051.13 6.41172 4.43305 0
M  V30 11740 N 1055.36 -0.161842 1.56767 0
M  V30 11741 C 1056.61 -0.875278 1.81719 0
M  V30 11742 C 1056.93 -1.82998 0.690739 0
M  V30 11743 O 1058.13 -2.58648 0.82545 0
M  V30 11744 C 1056.59 -1.60703 3.22029 0
M  V30 11745 C 1056.2 -0.695486 4.42569 0
M  V30 11746 C 1057.94 -2.30813 3.56266 0
M  V30 11747 C 1055.85 -1.42801 5.73901 0
M  V30 11748 H 1054.78 -0.330591 0.677662 0
M  V30 11749 H 1057.43 -0.128112 1.83052 0
M  V30 11750 H 1055.81 -2.39929 3.1504 0
M  V30 11751 H 1056.98 0.0604882 4.6076 0
M  V30 11752 H 1055.3 -0.10356 4.16271 0
M  V30 11753 H 1057.9 -2.86229 4.51638 0
M  V30 11754 H 1058.24 -3.06603 2.81604 0
M  V30 11755 H 1058.77 -1.5852 3.64851 0
M  V30 11756 H 1055.51 -0.712253 6.51619 0
M  V30 11757 H 1055.03 -2.15707 5.5967 0
M  V30 11758 H 1056.71 -1.97295 6.16185 0
M  V30 11759 N 1056.84 -1.516 -0.430713 0
M  V30 11760 C 1058.26 -1.39923 -0.767706 0
M  V30 11761 C 1058.46 -0.486756 -1.95532 0
M  V30 11762 O 1057.51 0.0555965 -2.52439 0
M  V30 11763 C 1058.83 -2.82074 -1.04187 0
M  V30 11764 C 1060.37 -2.9127 -1.1459 0
M  V30 11765 C 1060.85 -4.34342 -1.45295 0
M  V30 11766 N 1062.34 -4.37479 -1.52206 0
M  V30 11767 C 1063.08 -5.45219 -1.77549 0
M  V30 11768 N 1062.57 -6.6311 -2.0064 0
M  V30 11769 N 1064.36 -5.32707 -1.79386 0
M  V30 11770 H 1056.52 -2.09474 0.351351 0
M  V30 11771 H 1058.78 -0.943247 0.0948151 0
M  V30 11772 H 1058.48 -3.50868 -0.241837 0
M  V30 11773 H 1058.36 -3.21805 -1.96777 0
M  V30 11774 H 1060.75 -2.2267 -1.93655 0
M  V30 11775 H 1060.83 -2.55026 -0.198854 0
M  V30 11776 H 1060.47 -5.03494 -0.667559 0
M  V30 11777 H 1060.4 -4.68105 -2.41217 0
M  V30 11778 H 1062.89 -3.52488 -1.36237 0
M  V30 11779 H 1063.2 -7.41012 -2.19366 0
M  V30 11780 H 1061.55 -6.66214 -1.97948 0
M  V30 11781 H 1064.74 -4.39589 -1.60869 0
M  V30 11782 H 1064.91 -6.16752 -1.98799 0
M  V30 11783 N 1058.32 0.686584 -1.41858 0
M  V30 11784 C 1059.23 1.83002 -1.46791 0
M  V30 11785 C 1060.25 1.70284 -0.357675 0
M  V30 11786 O 1061.42 1.92042 -0.606781 0
M  V30 11787 C 1058.49 3.19056 -1.35661 0
M  V30 11788 C 1057.55 3.43817 -2.57077 0
M  V30 11789 C 1056.78 4.7338 -2.46469 0
M  V30 11790 O 1057 5.50483 -1.49413 0
M  V30 11791 O 1055.94 4.99124 -3.36391 0
M  V30 11792 H 1059.76 1.81797 -2.43277 0
M  V30 11793 H 1057.35 0.840812 -1.23494 0
M  V30 11794 H 1059.23 4.00267 -1.31773 0
M  V30 11795 H 1057.91 3.20925 -0.422951 0
M  V30 11796 H 1056.81 2.625 -2.66541 0
M  V30 11797 H 1058.15 3.4677 -3.49302 0
M  V30 11798 N 1059.8 1.27835 0.921735 0
M  V30 11799 C 1061.21 1.05369 1.19873 0
M  V30 11800 C 1061.41 -0.208997 2.00413 0
M  V30 11801 O 1060.47 -0.912861 2.35421 0
M  V30 11802 C 1061.78 2.29658 1.94108 0
M  V30 11803 C 1063.33 2.34756 2.07023 0
M  V30 11804 C 1063.81 3.5879 2.84664 0
M  V30 11805 N 1065.3 3.59383 2.9223 0
M  V30 11806 C 1066.03 4.52029 3.52785 0
M  V30 11807 N 1065.53 5.54986 4.14683 0
M  V30 11808 N 1067.32 4.39641 3.50246 0
M  V30 11809 H 1059.47 2.08903 0.383819 0
M  V30 11810 H 1061.73 0.919065 0.232429 0
M  V30 11811 H 1061.44 3.21604 1.4235 0
M  V30 11812 H 1061.31 2.35444 2.94696 0
M  V30 11813 H 1063.7 1.43312 2.57965 0
M  V30 11814 H 1063.78 2.32969 1.05636 0
M  V30 11815 H 1063.43 4.50574 2.34404 0
M  V30 11816 H 1063.36 3.57829 3.86349 0
M  V30 11817 H 1065.85 2.84927 2.48244 0
M  V30 11818 H 1066.16 6.21837 4.58845 0
M  V30 11819 H 1064.51 5.58822 4.13211 0
M  V30 11820 H 1067.7 3.58413 3.01094 0
M  V30 11821 H 1067.87 5.12033 3.97148 0
M  V30 11822 N 1061.28 -1.12907 1.09954 0
M  V30 11823 C 1062.52 -1.83661 0.833761 0
M  V30 11824 C 1062.84 -1.84736 -0.642798 0
M  V30 11825 O 1064.04 -2.51437 -1.0243 0
M  V30 11826 C 1062.5 -3.29763 1.44168 0
M  V30 11827 C 1062.11 -3.3706 2.95118 0
M  V30 11828 C 1063.85 -4.05522 1.25509 0
M  V30 11829 C 1061.76 -4.77467 3.48969 0
M  V30 11830 H 1060.69 -0.688115 0.308242 0
M  V30 11831 H 1063.34 -1.27166 1.32291 0
M  V30 11832 H 1061.72 -3.86094 0.880215 0
M  V30 11833 H 1062.9 -2.90695 3.57537 0
M  V30 11834 H 1061.21 -2.7477 3.12874 0
M  V30 11835 H 1063.81 -5.09188 1.63191 0
M  V30 11836 H 1064.15 -4.15837 0.196208 0
M  V30 11837 H 1064.68 -3.55536 1.78435 0
M  V30 11838 H 1061.42 -4.72344 4.54501 0
M  V30 11839 H 1060.94 -5.24305 2.91315 0
M  V30 11840 H 1062.62 -5.46397 3.46495 0
M  V30 11841 N 1062.75 -0.88754 -1.30232 0
M  V30 11842 C 1064 -0.503322 -1.95319 0
M  V30 11843 C 1064.32 0.952817 -1.70824 0
M  V30 11844 O 1065.52 1.444 -2.29915 0
M  V30 11845 C 1063.98 -0.849216 -3.49738 0
M  V30 11846 C 1063.59 -2.3233 -3.83049 0
M  V30 11847 C 1065.33 -0.53432 -4.21124 0
M  V30 11848 C 1063.24 -2.61069 -5.30657 0
M  V30 11849 H 1062.17 -0.1845 -0.731078 0
M  V30 11850 H 1064.82 -1.08287 -1.48143 0
M  V30 11851 H 1063.2 -0.198729 -3.95501 0
M  V30 11852 H 1064.37 -3.01832 -3.48187 0
M  V30 11853 H 1062.69 -2.60599 -3.24773 0
M  V30 11854 H 1065.29 -0.726039 -5.29748 0
M  V30 11855 H 1065.63 0.526434 -4.12958 0
M  V30 11856 H 1066.16 -1.14211 -3.81052 0
M  V30 11857 H 1062.9 -3.65895 -5.43876 0
M  V30 11858 H 1062.42 -1.96179 -5.6681 0
M  V30 11859 H 1064.1 -2.46703 -5.98119 0
M  V30 11860 N 1064.23 1.43628 -0.648757 0
M  V30 11861 C 1065.46 2.05918 -0.167701 0
M  V30 11862 C 1065.87 1.48681 1.17006 0
M  V30 11863 O 1065.21 0.610984 1.73242 0
M  V30 11864 C 1065.28 3.595 0.00265514 0
M  V30 11865 C 1064.94 4.39295 -1.2597 0
M  V30 11866 C 1065.94 4.71643 -2.18743 0
M  V30 11867 C 1063.62 4.79379 -1.50004 0
M  V30 11868 C 1065.62 5.42978 -3.33846 0
M  V30 11869 C 1063.3 5.50459 -2.65401 0
M  V30 11870 C 1064.3 5.82181 -3.57148 0
M  V30 11871 O 1063.99 6.5181 -4.7053 0
M  V30 11872 H 1063.72 0.670619 -0.0851261 0
M  V30 11873 H 1066.27 1.85196 -0.888351 0
M  V30 11874 H 1064.5 3.7878 0.77863 0
M  V30 11875 H 1066.19 4.03503 0.440501 0
M  V30 11876 H 1066.96 4.41199 -2.01416 0
M  V30 11877 H 1062.84 4.54098 -0.794745 0
M  V30 11878 H 1066.38 5.67656 -4.05479 0
M  V30 11879 H 1062.28 5.8032 -2.82664 0
M  V30 11880 H 1063.05 6.7029 -4.69738 0
M  V30 11881 N 1065.71 0.390394 1.52688 0
M  V30 11882 C 1066.96 -0.192697 2.00777 0
M  V30 11883 C 1067.27 -1.4781 1.28108 0
M  V30 11884 O 1068.48 -2.1413 1.66914 0
M  V30 11885 C 1066.93 -0.393955 3.57737 0
M  V30 11886 C 1066.54 0.878259 4.39307 0
M  V30 11887 C 1068.29 -0.933352 4.14112 0
M  V30 11888 C 1066.19 0.645218 5.8787 0
M  V30 11889 H 1065.12 -0.0757862 0.750182 0
M  V30 11890 H 1067.77 0.512961 1.76184 0
M  V30 11891 H 1066.16 -1.16149 3.78583 0
M  V30 11892 H 1067.33 1.65049 4.30227 0
M  V30 11893 H 1065.65 1.34269 3.94158 0
M  V30 11894 H 1068.24 -1.12343 5.22765 0
M  V30 11895 H 1068.59 -1.90272 3.70273 0
M  V30 11896 H 1069.12 -0.225361 3.97161 0
M  V30 11897 H 1065.86 1.58562 6.36033 0
M  V30 11898 H 1065.38 -0.0880609 5.99735 0
M  V30 11899 H 1067.06 0.280178 6.46393 0
M  V30 11900 N 1067.19 -1.57141 0.120249 0
M  V30 11901 C 1068.6 -1.5784 -0.236335 0
M  V30 11902 C 1068.8 -1.13304 -1.66626 0
M  V30 11903 O 1067.86 -0.821004 -2.3878 0
M  V30 11904 C 1069.17 -3.007 -0.00188211 0
M  V30 11905 C 1070.72 -3.12927 -0.0676838 0
M  V30 11906 C 1071.2 -4.57789 0.139092 0
M  V30 11907 N 1072.69 -4.63122 0.085104 0
M  V30 11908 C 1073.42 -5.72978 0.219983 0
M  V30 11909 N 1072.92 -6.91579 0.411102 0
M  V30 11910 N 1074.71 -5.61874 0.159469 0
M  V30 11911 H 1066.86 -1.84391 1.05422 0
M  V30 11912 H 1069.13 -0.852228 0.415225 0
M  V30 11913 H 1068.83 -3.37575 0.986718 0
M  V30 11914 H 1068.71 -3.70005 -0.733203 0
M  V30 11915 H 1071.09 -2.75909 -1.04681 0
M  V30 11916 H 1071.17 -2.46162 0.695538 0
M  V30 11917 H 1070.82 -4.95506 1.1152 0
M  V30 11918 H 1070.75 -5.22646 -0.644131 0
M  V30 11919 H 1073.24 -3.77854 -0.0590479 0
M  V30 11920 H 1073.55 -7.71149 0.504851 0
M  V30 11921 H 1071.9 -6.9356 0.447091 0
M  V30 11922 H 1075.09 -4.68099 0.0111131 0
M  V30 11923 H 1075.26 -6.47445 0.268028 0
M  V30 11924 N 1068.67 0.153526 -1.5685 0
M  V30 11925 C 1069.58 1.20932 -2.01029 0
M  V30 11926 C 1070.59 1.47401 -0.924598 0
M  V30 11927 O 1071.77 1.592 -1.23359 0
M  V30 11928 C 1068.83 2.52438 -2.37647 0
M  V30 11929 C 1067.89 2.33673 -3.60132 0
M  V30 11930 C 1067.13 3.58909 -3.94994 0
M  V30 11931 O 1067.35 4.64823 -3.30599 0
M  V30 11932 O 1066.28 3.5196 -4.8827 0
M  V30 11933 H 1070.11 0.864273 -2.91143 0
M  V30 11934 H 1067.7 0.361755 -1.44954 0
M  V30 11935 H 1069.58 3.29981 -2.62088 0
M  V30 11936 H 1068.25 2.86486 -1.5069 0
M  V30 11937 H 1067.16 1.54102 -3.40886 0
M  V30 11938 H 1068.49 2.04544 -4.47686 0
M  V30 11939 N 1070.14 1.51827 0.422667 0
M  V30 11940 C 1071.08 1.70409 1.53275 0
M  V30 11941 C 1072.09 0.584584 1.51942 0
M  V30 11942 O 1073.28 0.859349 1.56453 0
M  V30 11943 C 1070.38 1.717 2.92185 0
M  V30 11944 C 1069.55 3.00472 3.17861 0
M  V30 11945 C 1068.61 2.93755 4.36571 0
M  V30 11946 O 1067.64 3.67682 4.3451 0
M  V30 11947 N 1068.84 2.10612 5.40946 0
M  V30 11948 H 1071.6 2.66176 1.37734 0
M  V30 11949 H 1069.16 1.49895 0.611799 0
M  V30 11950 H 1071.16 1.64756 3.69645 0
M  V30 11951 H 1069.73 0.834655 3.01251 0
M  V30 11952 H 1068.95 3.21171 2.28567 0
M  V30 11953 H 1070.23 3.85684 3.31851 0
M  V30 11954 H 1069.63 1.49954 5.45463 0
M  V30 11955 H 1068.19 2.09535 6.17202 0
M  V30 11956 N 1071.62 -0.679052 1.4222 0
M  V30 11957 C 1072.87 -1.43978 1.43673 0
M  V30 11958 C 1073.22 -1.92333 0.0506711 0
M  V30 11959 O 1072.52 -1.67715 -0.926406 0
M  V30 11960 C 1072.71 -2.65528 2.39227 0
M  V30 11961 C 1072.54 -2.29065 3.86987 0
M  V30 11962 C 1071.31 -2.1863 4.55553 0
M  V30 11963 C 1073.51 -1.90983 4.77525 0
M  V30 11964 N 1071.49 -1.75227 5.88361 0
M  V30 11965 C 1072.86 -1.58465 5.99407 0
M  V30 11966 C 1074.92 -1.77938 4.65019 0
M  V30 11967 C 1073.62 -1.14212 7.10175 0
M  V30 11968 C 1075.64 -1.35089 5.75765 0
M  V30 11969 C 1075.01 -1.03493 6.96756 0
M  V30 11970 H 1071.11 -0.523503 0.58092 0
M  V30 11971 H 1073.69 -0.784043 1.78216 0
M  V30 11972 H 1071.86 -3.28797 2.06753 0
M  V30 11973 H 1073.59 -3.32096 2.31288 0
M  V30 11974 H 1070.35 -2.37562 4.09709 0
M  V30 11975 H 1070.77 -1.5596 6.58791 0
M  V30 11976 H 1075.41 -2.01013 3.71959 0
M  V30 11977 H 1073.13 -0.89882 8.03086 0
M  V30 11978 H 1076.72 -1.25522 5.68098 0
M  V30 11979 H 1075.6 -0.708396 7.80994 0
M  V30 11980 N 1073.1 -1.28322 -0.914942 0
M  V30 11981 C 1074.06 -1.12169 -1.99877 0
M  V30 11982 C 1075.06 -0.0617252 -1.60681 0
M  V30 11983 O 1076.25 -0.307405 -1.71466 0
M  V30 11984 C 1073.39 -0.711959 -3.33383 0
M  V30 11985 H 1074.58 -2.08425 -2.15636 0
M  V30 11986 H 1072.13 -1.11291 -1.09745 0
M  V30 11987 H 1072.87 0.251418 -3.23324 0
M  V30 11988 H 1072.65 -1.47764 -3.63192 0
M  V30 11989 H 1074.14 -0.621558 -4.12948 0
M  V30 11990 N 1074.58 1.12322 -1.10551 0
M  V30 11991 C 1075.53 2.20166 -0.750317 0
M  V30 11992 C 1076.52 1.67484 0.254066 0
M  V30 11993 O 1077.73 1.79637 0.114309 0
M  V30 11994 H 1074.1 0.717642 -0.22471 0
M  V30 11995 H 1076.07 2.47378 -1.66873 0
M  V30 11996 C 1074.82 3.47126 -0.199651 0
M  V30 11997 H 1074.14 3.88011 -0.963735 0
M  V30 11998 H 1075.58 4.23999 0.0108033 0
M  V30 11999 C 1074.04 3.19526 1.06792 0
M  V30 12000 O 1074.57 3.39368 2.14923 0
M  V30 12001 N 1072.78 2.73324 0.987032 0
M  V30 12002 H 1072.33 2.57378 0.106997 0
M  V30 12003 H 1072.28 2.55234 1.83584 0
M  V30 12004 N 1076.06 0.894434 1.2976 0
M  V30 12005 C 1076.99 0.3847 2.30309 0
M  V30 12006 C 1077.97 -0.537486 1.61385 0
M  V30 12007 O 1079.15 -0.449332 1.8893 0
M  V30 12008 C 1076.28 -0.393311 3.45066 0
M  V30 12009 C 1075.24 0.437968 4.25753 0
M  V30 12010 C 1074.56 -0.467221 5.32655 0
M  V30 12011 C 1075.86 1.6851 4.9437 0
M  V30 12012 H 1077.56 1.22496 2.73194 0
M  V30 12013 H 1075.1 0.590471 1.31337 0
M  V30 12014 H 1077.06 -0.760614 4.14479 0
M  V30 12015 H 1075.78 -1.2673 3.0101 0
M  V30 12016 H 1074.44 0.787533 3.58041 0
M  V30 12017 H 1074.09 -1.33919 4.84845 0
M  V30 12018 H 1073.79 0.0852482 5.87538 0
M  V30 12019 H 1075.31 -0.830833 6.04921 0
M  V30 12020 H 1076.72 1.38784 5.56248 0
M  V30 12021 H 1075.12 2.17849 5.59162 0
M  V30 12022 H 1076.19 2.42412 4.19958 0
M  V30 12023 N 1077.53 -1.43282 0.656365 0
M  V30 12024 C 1078.44 -2.34576 -0.033864 0
M  V30 12025 C 1079.46 -1.5406 -0.808793 0
M  V30 12026 O 1080.64 -1.867 -0.755322 0
M  V30 12027 C 1077.7 -3.32378 -0.986197 0
M  V30 12028 C 1076.76 -4.28797 -0.207851 0
M  V30 12029 C 1076 -5.21927 -1.11482 0
M  V30 12030 O 1076.22 -5.19554 -2.35414 0
M  V30 12031 O 1075.15 -5.99045 -0.585536 0
M  V30 12032 H 1078.98 -2.95099 0.717668 0
M  V30 12033 H 1076.56 -1.43475 0.416556 0
M  V30 12034 H 1078.45 -3.9251 -1.53341 0
M  V30 12035 H 1077.12 -2.74354 -1.7179 0
M  V30 12036 H 1076.03 -3.72134 0.383022 0
M  V30 12037 H 1077.36 -4.89811 0.48435 0
M  V30 12038 N 1079.01 -0.398486 -1.52479 0
M  V30 12039 C 1079.95 0.467426 -2.24383 0
M  V30 12040 C 1080.96 1.01908 -1.26959 0
M  V30 12041 O 1082.15 0.919843 -1.52974 0
M  V30 12042 C 1079.25 1.66146 -2.95379 0
M  V30 12043 C 1078.42 1.23557 -4.19586 0
M  V30 12044 C 1077.48 2.29532 -4.73499 0
M  V30 12045 O 1076.51 1.90561 -5.36354 0
M  V30 12046 N 1077.71 3.61564 -4.5415 0
M  V30 12047 H 1080.47 -0.148653 -2.99331 0
M  V30 12048 H 1078.03 -0.225313 -1.60325 0
M  V30 12049 H 1080.03 2.36585 -3.28344 0
M  V30 12050 H 1078.6 2.18369 -2.23682 0
M  V30 12051 H 1077.82 0.359715 -3.92555 0
M  V30 12052 H 1079.1 0.927812 -5.00269 0
M  V30 12053 H 1078.5 3.95983 -4.03998 0
M  V30 12054 H 1077.06 4.2801 -4.9158 0
M  V30 12055 N 1080.49 1.57075 -0.12858 0
M  V30 12056 C 1081.42 2.18833 0.814519 0
M  V30 12057 C 1082.4 1.13114 1.2704 0
M  V30 12058 O 1083.59 1.41387 1.33129 0
M  V30 12059 C 1080.72 2.79535 2.06101 0
M  V30 12060 C 1079.67 3.9092 1.74257 0
M  V30 12061 C 1079 4.38473 3.06015 0
M  V30 12062 C 1080.3 5.1257 1.00345 0
M  V30 12063 H 1081.99 2.97895 0.299862 0
M  V30 12064 H 1079.54 1.4329 0.14279 0
M  V30 12065 H 1081.49 3.21401 2.72543 0
M  V30 12066 H 1080.21 1.97777 2.59907 0
M  V30 12067 H 1078.87 3.49645 1.102 0
M  V30 12068 H 1078.52 3.53561 3.57776 0
M  V30 12069 H 1078.22 5.13591 2.85479 0
M  V30 12070 H 1079.75 4.82997 3.7356 0
M  V30 12071 H 1081.16 5.51395 1.56959 0
M  V30 12072 H 1079.56 5.93333 0.898693 0
M  V30 12073 H 1080.63 4.84899 -0.0081335 0
M  V30 12074 N 1081.97 -0.145205 1.5693 0
M  V30 12075 C 1083.19 -0.876386 1.87974 0
M  V30 12076 C 1083.62 -1.73866 0.717795 0
M  V30 12077 O 1082.98 -1.78224 -0.332551 0
M  V30 12078 C 1083.03 -1.70746 3.17613 0
M  V30 12079 O 1082.13 -2.81188 3.01674 0
M  V30 12080 H 1081.47 -0.243987 0.617549 0
M  V30 12081 H 1084 -0.135482 2.04151 0
M  V30 12082 H 1084.01 -2.1021 3.49679 0
M  V30 12083 H 1082.69 -1.07429 4.01786 0
M  V30 12084 H 1081.26 -2.45117 2.81019 0
M  V30 12085 N 1083.45 -1.52049 -0.414609 0
M  V30 12086 C 1084.41 -1.74382 -1.4874 0
M  V30 12087 C 1085.41 -0.613701 -1.48628 0
M  V30 12088 O 1086.6 -0.88152 -1.50249 0
M  V30 12089 C 1083.73 -1.82116 -2.88178 0
M  V30 12090 H 1084.93 -2.70147 -1.30233 0
M  V30 12091 H 1082.48 -1.42382 -0.644756 0
M  V30 12092 H 1083.21 -0.882457 -3.12063 0
M  V30 12093 H 1083 -2.64268 -2.89663 0
M  V30 12094 H 1084.49 -2.01155 -3.65959 0
M  V30 12095 N 1084.93 0.6715 -1.42579 0
M  V30 12096 C 1086.17 1.42731 -1.42516 0
M  V30 12097 C 1086.49 1.95545 -0.0462407 0
M  V30 12098 O 1087.69 2.71391 0.0769798 0
M  V30 12099 C 1086.15 2.58215 -2.50705 0
M  V30 12100 C 1085.76 2.12086 -3.94618 0
M  V30 12101 C 1087.5 3.35705 -2.59813 0
M  V30 12102 C 1085.41 3.24672 -4.9431 0
M  V30 12103 H 1084.34 0.536218 -0.530081 0
M  V30 12104 H 1086.99 0.726655 -1.68499 0
M  V30 12105 H 1085.37 3.30665 -2.17892 0
M  V30 12106 H 1086.55 1.46768 -4.36802 0
M  V30 12107 H 1084.86 1.47526 -3.89391 0
M  V30 12108 H 1087.46 4.1956 -3.31472 0
M  V30 12109 H 1087.8 3.82517 -1.64276 0
M  V30 12110 H 1088.33 2.70326 -2.91836 0
M  V30 12111 H 1085.07 2.82848 -5.91335 0
M  V30 12112 H 1084.59 3.88761 -4.56755 0
M  V30 12113 H 1086.27 3.90088 -5.16179 0
M  V30 12114 N 1086.4 1.28806 0.908124 0
M  V30 12115 C 1087.82 1.06634 1.18749 0
M  V30 12116 C 1088.02 -0.187729 2.00624 0
M  V30 12117 O 1087.08 -0.88784 2.36376 0
M  V30 12118 C 1088.39 2.31703 1.91661 0
M  V30 12119 C 1089.94 2.36939 2.04521 0
M  V30 12120 C 1090.41 3.61789 2.80843 0
M  V30 12121 N 1091.9 3.62462 2.88402 0
M  V30 12122 C 1092.64 4.55746 3.47971 0
M  V30 12123 N 1092.13 5.59353 4.08774 0
M  V30 12124 N 1093.93 4.43331 3.45564 0
M  V30 12125 H 1086.08 2.09299 0.36164 0
M  V30 12126 H 1088.34 0.921479 0.222668 0
M  V30 12127 H 1088.05 3.23096 1.38931 0
M  V30 12128 H 1087.92 2.38556 2.92183 0
M  V30 12129 H 1090.31 1.4604 2.5643 0
M  V30 12130 H 1090.39 2.34077 1.03159 0
M  V30 12131 H 1090.03 4.53035 2.29612 0
M  V30 12132 H 1089.96 3.61907 3.82532 0
M  V30 12133 H 1092.45 2.87544 2.45208 0
M  V30 12134 H 1092.77 6.26668 4.52224 0
M  V30 12135 H 1091.11 5.63173 4.07261 0
M  V30 12136 H 1094.3 3.61587 2.97276 0
M  V30 12137 H 1094.48 5.16216 3.91695 0
M  V30 12138 N 1087.88 -1.11734 1.11145 0
M  V30 12139 C 1088.83 -2.17683 0.766979 0
M  V30 12140 C 1089.8 -1.64051 -0.260108 0
M  V30 12141 O 1090.98 -1.90302 -0.137723 0
M  V30 12142 C 1088.12 -3.44442 0.212982 0
M  V30 12143 C 1087.24 -4.12094 1.29626 0
M  V30 12144 C 1086.37 -5.26526 0.703127 0
M  V30 12145 C 1085.41 -5.86057 1.76647 0
M  V30 12146 N 1084.55 -6.91889 1.19306 0
M  V30 12147 H 1089.39 -2.46495 1.67465 0
M  V30 12148 H 1086.92 -1.21011 0.836353 0
M  V30 12149 H 1088.88 -4.17009 -0.126162 0
M  V30 12150 H 1087.51 -3.16025 -0.657888 0
M  V30 12151 H 1086.56 -3.37631 1.75241 0
M  V30 12152 H 1087.88 -4.52398 2.10089 0
M  V30 12153 H 1087.03 -6.05888 0.313859 0
M  V30 12154 H 1085.77 -4.87519 -0.132856 0
M  V30 12155 H 1084.77 -5.05375 2.16508 0
M  V30 12156 H 1086 -6.27132 2.60543 0
M  V30 12157 H 1083.95 -6.54906 0.378664 0
M  V30 12158 H 1083.86 -7.30832 1.93443 0
M  V30 12159 H 1085.13 -7.75062 0.830578 0
M  V30 12160 N 1089.36 -0.901303 -1.29284 0
M  V30 12161 C 1090.31 -0.378666 -2.27672 0
M  V30 12162 C 1091.28 0.540102 -1.57074 0
M  V30 12163 O 1092.46 0.464997 -1.85047 0
M  V30 12164 C 1089.6 0.38635 -3.42931 0
M  V30 12165 C 1088.71 -0.563496 -4.28309 0
M  V30 12166 C 1087.85 0.218731 -5.30749 0
M  V30 12167 C 1086.89 -0.725536 -6.07785 0
M  V30 12168 N 1086.03 0.0223854 -7.02096 0
M  V30 12169 H 1090.87 -1.22277 -2.71758 0
M  V30 12170 H 1088.4 -0.614302 -1.33659 0
M  V30 12171 H 1090.36 0.845967 -4.08533 0
M  V30 12172 H 1088.99 1.1949 -2.9987 0
M  V30 12173 H 1088.04 -1.14163 -3.62865 0
M  V30 12174 H 1089.35 -1.28623 -4.81931 0
M  V30 12175 H 1088.51 0.739473 -6.02177 0
M  V30 12176 H 1087.25 0.97459 -4.77863 0
M  V30 12177 H 1086.25 -1.25776 -5.3522 0
M  V30 12178 H 1087.48 -1.48075 -6.6276 0
M  V30 12179 H 1085.42 0.760482 -6.51577 0
M  V30 12180 H 1085.34 -0.640408 -7.53283 0
M  V30 12181 H 1086.61 0.523339 -7.77741 0
M  V30 12182 N 1090.84 1.42931 -0.663954 0
M  V30 12183 C 1092.25 1.56098 -0.332496 0
M  V30 12184 C 1092.45 1.64564 1.16279 0
M  V30 12185 O 1091.51 1.6066 1.94794 0
M  V30 12186 C 1092.82 2.81649 -1.05329 0
M  V30 12187 C 1094.37 2.95408 -1.03457 0
M  V30 12188 C 1094.85 4.23805 -1.73647 0
M  V30 12189 N 1096.34 4.30693 -1.70462 0
M  V30 12190 C 1097.07 5.28833 -2.21637 0
M  V30 12191 N 1096.57 6.33189 -2.81147 0
M  V30 12192 N 1098.36 5.20558 -2.12075 0
M  V30 12193 H 1090.51 1.3568 -1.63416 0
M  V30 12194 H 1092.77 0.652361 -0.687844 0
M  V30 12195 H 1092.48 2.81494 -2.10842 0
M  V30 12196 H 1092.35 3.72208 -0.611626 0
M  V30 12197 H 1094.74 2.95097 0.0121936 0
M  V30 12198 H 1094.82 2.06109 -1.51502 0
M  V30 12199 H 1094.47 4.24876 -2.78285 0
M  V30 12200 H 1094.4 5.12019 -1.2306 0
M  V30 12201 H 1096.89 3.55904 -1.27046 0
M  V30 12202 H 1097.2 7.04411 -3.17844 0
M  V30 12203 H 1095.55 6.33781 -2.85212 0
M  V30 12204 H 1098.74 4.3795 -1.6528 0
M  V30 12205 H 1098.91 5.96881 -2.52264 0
M  V30 12206 N 1092.32 0.406567 1.52266 0
M  V30 12207 C 1093.25 -0.411314 2.29849 0
M  V30 12208 C 1094.23 -1.04838 1.33952 0
M  V30 12209 O 1095.41 -1.05788 1.62857 0
M  V30 12210 C 1092.54 -1.52961 3.11802 0
M  V30 12211 C 1091.5 -1.01768 4.15725 0
M  V30 12212 C 1090.82 -2.22938 4.86007 0
M  V30 12213 C 1092.12 -0.073515 5.22248 0
M  V30 12214 H 1093.82 0.236054 2.98468 0
M  V30 12215 H 1091.36 0.114968 1.4354 0
M  V30 12216 H 1093.31 -2.10874 3.64843 0
M  V30 12217 H 1092.04 -2.20482 2.40947 0
M  V30 12218 H 1090.7 -0.46097 3.6369 0
M  V30 12219 H 1090.35 -2.89007 4.11684 0
M  V30 12220 H 1090.05 -1.89338 5.5626 0
M  V30 12221 H 1091.57 -2.81462 5.41859 0
M  V30 12222 H 1092.98 -0.561367 5.70545 0
M  V30 12223 H 1091.38 0.173551 5.99849 0
M  V30 12224 H 1092.45 0.872524 4.76985 0
M  V30 12225 N 1093.79 -1.57004 0.136909 0
M  V30 12226 C 1094.7 -2.19807 -0.819887 0
M  V30 12227 C 1095.72 -1.17939 -1.27932 0
M  V30 12228 O 1096.9 -1.50478 -1.3386 0
M  V30 12229 C 1093.96 -2.79935 -2.04542 0
M  V30 12230 C 1093.02 -3.96897 -1.6362 0
M  V30 12231 C 1092.26 -4.54148 -2.80331 0
M  V30 12232 O 1092.48 -4.10282 -3.96264 0
M  V30 12233 O 1091.41 -5.44565 -2.56384 0
M  V30 12234 H 1095.24 -3.02058 -0.315337 0
M  V30 12235 H 1092.82 -1.49131 -0.0896151 0
M  V30 12236 H 1094.71 -3.18191 -2.76283 0
M  V30 12237 H 1093.38 -2.00703 -2.53969 0
M  V30 12238 H 1092.29 -3.63376 -0.889316 0
M  V30 12239 H 1093.62 -4.77618 -1.18918 0
M  V30 12240 N 1095.27 0.136881 -1.57004 0
M  V30 12241 C 1096.18 1.18793 -2.023 0
M  V30 12242 C 1097.2 1.46412 -0.94018 0
M  V30 12243 O 1098.37 1.57883 -1.2504 0
M  V30 12244 C 1095.44 2.49903 -2.40311 0
M  V30 12245 C 1094.5 2.29841 -3.6259 0
M  V30 12246 C 1093.73 3.54699 -3.98779 0
M  V30 12247 O 1093.96 4.61291 -3.3551 0
M  V30 12248 O 1092.89 3.46761 -4.91976 0
M  V30 12249 H 1096.72 0.833345 -2.92043 0
M  V30 12250 H 1094.3 0.346361 -1.4533 0
M  V30 12251 H 1096.18 3.27183 -2.65574 0
M  V30 12252 H 1094.86 2.84872 -1.5372 0
M  V30 12253 H 1093.77 1.50478 -3.42501 0
M  V30 12254 H 1095.1 1.99784 -4.4983 0
M  V30 12255 N 1096.75 1.52266 0.40654 0
M  V30 12256 C 1097.71 1.75168 1.47814 0
M  V30 12257 C 1098.71 0.621575 1.48301 0
M  V30 12258 O 1099.9 0.889476 1.4978 0
M  V30 12259 C 1097.04 1.83642 2.87208 0
M  V30 12260 H 1098.23 2.70834 1.28798 0
M  V30 12261 H 1095.78 1.42722 0.637196 0
M  V30 12262 H 1096.52 0.898994 3.1159 0
M  V30 12263 H 1096.3 2.65801 2.88257 0
M  V30 12264 H 1097.79 2.03093 3.64888 0
M  V30 12265 N 1098.23 -0.663929 1.42933 0
M  V30 12266 C 1099.45 -1.45691 1.47611 0
M  V30 12267 C 1099.88 -1.87875 0.0920305 0
M  V30 12268 O 1099.24 -1.56696 -0.91192 0
M  V30 12269 C 1099.28 -2.67517 2.41799 0
M  V30 12270 O 1098.39 -3.66187 1.89686 0
M  V30 12271 H 1097.73 -0.437257 0.499702 0
M  V30 12272 H 1100.26 -0.813397 1.87737 0
M  V30 12273 H 1100.27 -3.1546 2.58745 0
M  V30 12274 H 1098.94 -2.36155 3.4235 0
M  V30 12275 H 1097.52 -3.25274 1.82349 0
M  V30 12276 N 1099.71 -1.29285 -0.901281 0
M  V30 12277 C 1100.64 -1.16832 -2.0217 0
M  V30 12278 C 1101.62 -0.0629265 -1.69984 0
M  V30 12279 O 1102.8 -0.242123 -1.92685 0
M  V30 12280 C 1099.93 -0.842406 -3.36929 0
M  V30 12281 C 1098.89 -1.90394 -3.8332 0
M  V30 12282 C 1098.21 -1.43138 -5.15185 0
M  V30 12283 C 1099.51 -3.31254 -4.03817 0
M  V30 12284 H 1101.21 -2.10562 -2.12847 0
M  V30 12285 H 1098.75 -1.01375 -1.0227 0
M  V30 12286 H 1100.71 -0.741999 -4.14816 0
M  V30 12287 H 1099.43 0.130598 -3.26339 0
M  V30 12288 H 1098.09 -1.99371 -3.07647 0
M  V30 12289 H 1097.74 -0.447091 -5.01009 0
M  V30 12290 H 1097.44 -2.14129 -5.47195 0
M  V30 12291 H 1098.96 -1.34444 -5.95615 0
M  V30 12292 H 1100.37 -3.25129 -4.72191 0
M  V30 12293 H 1098.77 -4.00189 -4.47178 0
M  V30 12294 H 1099.84 -3.74349 -3.08206 0
M  V30 12295 N 1101.18 1.11143 -1.11736 0
M  V30 12296 C 1102.11 2.19339 -0.800795 0
M  V30 12297 C 1103.1 1.68508 0.23221 0
M  V30 12298 O 1104.28 1.93967 0.0950063 0
M  V30 12299 C 1101.41 3.46424 -0.246579 0
M  V30 12300 C 1100.36 4.10487 -1.21181 0
M  V30 12301 C 1099.69 5.32183 -0.518158 0
M  V30 12302 C 1100.99 4.55052 -2.56368 0
M  V30 12303 H 1102.68 2.46077 -1.70548 0
M  V30 12304 H 1100.23 1.18271 -0.821454 0
M  V30 12305 H 1102.18 4.21398 -0.0128889 0
M  V30 12306 H 1100.91 3.19154 0.693415 0
M  V30 12307 H 1099.57 3.3751 -1.43118 0
M  V30 12308 H 1099.21 5.01187 0.426742 0
M  V30 12309 H 1098.91 5.75997 -1.16196 0
M  V30 12310 H 1100.44 6.09895 -0.293333 0
M  V30 12311 H 1101.85 5.21335 -2.38501 0
M  V30 12312 H 1100.25 5.0969 -3.16758 0
M  V30 12313 H 1101.32 3.68343 -3.1536 0
M  V30 12314 N 1102.66 0.908147 1.28804 0
M  V30 12315 C 1103.61 0.363504 2.25084 0
M  V30 12316 C 1104.6 -0.52121 1.52224 0
M  V30 12317 O 1105.79 -0.361848 1.73262 0
M  V30 12318 C 1102.92 -0.400353 3.40958 0
M  V30 12319 C 1102 0.499761 4.21145 0
M  V30 12320 N 1102.39 1.61082 4.79464 0
M  V30 12321 C 1100.69 0.299108 4.44996 0
M  V30 12322 C 1101.39 2.16906 5.39747 0
M  V30 12323 N 1100.37 1.46103 5.23598 0
M  V30 12324 H 1104.17 1.21212 2.6774 0
M  V30 12325 H 1101.69 0.760159 1.43511 0
M  V30 12326 H 1103.68 -0.807343 4.09008 0
M  V30 12327 H 1102.34 -1.24613 2.99836 0
M  V30 12328 H 1103.35 1.99347 4.77997 0
M  V30 12329 H 1100.03 -0.507611 4.14403 0
M  V30 12330 H 1101.42 3.10338 5.95936 0
M  V30 12331 N 1104.14 -1.42577 0.671525 0
M  V30 12332 C 1105.07 -2.2915 -0.0477361 0
M  V30 12333 C 1106.09 -1.43503 -0.768805 0
M  V30 12334 O 1107.27 -1.67256 -0.623509 0
M  V30 12335 C 1104.37 -3.20851 -1.09122 0
M  V30 12336 C 1103.55 -4.35134 -0.44463 0
M  V30 12337 C 1102.61 -5.07579 -1.38745 0
M  V30 12338 O 1101.63 -5.62215 -0.889015 0
M  V30 12339 N 1102.83 -5.12786 -2.72086 0
M  V30 12340 H 1105.6 -2.9152 0.695415 0
M  V30 12341 H 1103.16 -1.53467 0.515689 0
M  V30 12342 H 1105.15 -3.66183 -1.72315 0
M  V30 12343 H 1103.72 -2.59956 -1.73614 0
M  V30 12344 H 1102.94 -3.9249 0.36675 0
M  V30 12345 H 1104.23 -5.088 0.00595927 0
M  V30 12346 H 1103.63 -4.69802 -3.15123 0
M  V30 12347 H 1102.19 -5.61774 -3.30535 0
M  V30 12348 N 1105.62 -0.414636 -1.52048 0
M  V30 12349 C 1106.87 0.159349 -2.01872 0
M  V30 12350 C 1107.19 1.44674 -1.29999 0
M  V30 12351 O 1106.45 1.91641 -0.396511 0
M  V30 12352 C 1106.75 0.448327 -3.54577 0
M  V30 12353 C 1106.41 -0.75052 -4.4461 0
M  V30 12354 C 1105.08 -1.07935 -4.68939 0
M  V30 12355 C 1107.43 -1.55134 -4.97577 0
M  V30 12356 C 1104.76 -2.21008 -5.43482 0
M  V30 12357 C 1107.11 -2.67288 -5.73358 0
M  V30 12358 C 1105.77 -3.00651 -5.95958 0
M  V30 12359 H 1105.04 0.05831 -0.738702 0
M  V30 12360 H 1107.69 -0.557184 -1.83215 0
M  V30 12361 H 1105.99 1.24649 -3.71443 0
M  V30 12362 H 1107.69 0.90549 -3.90643 0
M  V30 12363 H 1104.28 -0.484257 -4.25856 0
M  V30 12364 H 1108.46 -1.31052 -4.78685 0
M  V30 12365 H 1103.72 -2.47197 -5.59199 0
M  V30 12366 H 1107.89 -3.29725 -6.13396 0
M  V30 12367 H 1105.52 -3.88384 -6.535 0
M  V30 12368 N 1107.1 1.56929 -0.145233 0
M  V30 12369 C 1108.03 2.13796 0.826078 0
M  V30 12370 C 1109.04 1.08697 1.21197 0
M  V30 12371 O 1110.23 1.3598 1.15635 0
M  V30 12372 C 1107.33 2.6443 2.11967 0
M  V30 12373 C 1106.5 3.9391 1.90142 0
M  V30 12374 C 1105.56 4.29872 3.03474 0
M  V30 12375 O 1104.59 4.98227 2.75242 0
M  V30 12376 N 1105.79 3.8931 4.30602 0
M  V30 12377 H 1108.56 2.97764 0.340073 0
M  V30 12378 H 1106.12 1.61854 0.0383928 0
M  V30 12379 H 1108.11 2.85502 2.86829 0
M  V30 12380 H 1106.68 1.85196 2.51836 0
M  V30 12381 H 1105.9 3.81481 0.993268 0
M  V30 12382 H 1107.19 4.78523 1.72896 0
M  V30 12383 H 1106.58 3.34229 4.56407 0
M  V30 12384 H 1105.14 4.15438 5.0225 0
M  V30 12385 N 1108.58 -0.128553 1.57075 0
M  V30 12386 C 1109.54 -1.14215 1.98715 0
M  V30 12387 C 1110.54 -1.34843 0.876019 0
M  V30 12388 O 1111.73 -1.31522 1.14227 0
M  V30 12389 C 1108.86 -2.49865 2.31905 0
M  V30 12390 H 1110.05 -0.784481 2.89458 0
M  V30 12391 H 1107.61 -0.372531 1.51796 0
M  V30 12392 H 1108.34 -2.9057 1.44012 0
M  V30 12393 H 1108.13 -2.3625 3.12935 0
M  V30 12394 H 1109.62 -3.22832 2.64895 0
M  V30 12395 N 1110.05 -1.5248 -0.398459 0
M  V30 12396 C 1111.33 -1.57634 -1.15805 0
M  V30 12397 C 1111.71 -0.363785 -2.07942 0
M  V30 12398 O 1111.06 0.648598 -2.19101 0
M  V30 12399 C 1111.27 -2.91042 -1.92602 0
M  V30 12400 C 1112.62 -3.44433 -2.48296 0
M  V30 12401 O 1113.64 -2.92853 -2.0277 0
M  V30 12402 O 1112.5 -4.34529 -3.31432 0
M  V30 12403 H 1109.59 -0.63539 -0.529347 0
M  V30 12404 H 1112.14 -1.64812 -0.404376 0
M  V30 12405 H 1110.91 -3.7074 -1.25169 0
M  V30 12406 H 1110.53 -2.87206 -2.74952 0
M  V30 12407 N 1111.53 0.65634 -1.43283 0
M  V30 12408 C 1112.49 1.75117 -1.47874 0
M  V30 12409 C 1113.49 1.56629 -0.363846 0
M  V30 12410 O 1114.68 1.62584 -0.625464 0
M  V30 12411 C 1111.82 3.13957 -1.32831 0
M  V30 12412 H 1113.01 1.72429 -2.45374 0
M  V30 12413 H 1110.56 0.867704 -1.30002 0
M  V30 12414 H 1111.3 3.22259 -0.36326 0
M  V30 12415 H 1111.08 3.28781 -2.13649 0
M  V30 12416 H 1112.57 3.93799 -1.38969 0
M  V30 12417 N 1113.01 1.29761 0.894412 0
M  V30 12418 C 1114.29 1.08711 1.62608 0
M  V30 12419 C 1114.67 -0.366907 2.07887 0
M  V30 12420 O 1114.01 -1.35669 1.83865 0
M  V30 12421 C 1114.22 2.07947 2.80284 0
M  V30 12422 C 1115.57 2.39153 3.50843 0
M  V30 12423 O 1116.6 2.06183 2.9046 0
M  V30 12424 O 1115.46 2.95509 4.59713 0
M  V30 12425 H 1112.55 0.416866 0.714249 0
M  V30 12426 H 1115.1 1.41153 0.942015 0
M  V30 12427 H 1113.87 3.05859 2.44061 0
M  V30 12428 H 1113.49 1.76266 3.56393 0
M  V30 12429 N 1114.49 -1.10549 1.12324 0
M  V30 12430 C 1115.76 -1.78968 0.789287 0
M  V30 12431 C 1116.14 -1.984 -0.721156 0
M  V30 12432 O 1115.49 -1.5761 -1.65443 0
M  V30 12433 C 1115.7 -3.12044 1.563 0
M  V30 12434 C 1117.05 -3.86939 1.74825 0
M  V30 12435 O 1118.07 -3.21761 1.52802 0
M  V30 12436 O 1116.93 -5.0392 2.11488 0
M  V30 12437 H 1114.03 -0.775617 0.286962 0
M  V30 12438 H 1116.57 -1.17209 1.2272 0
M  V30 12439 H 1115.35 -2.93313 2.59005 0
M  V30 12440 H 1114.97 -3.81521 1.11926 0
M  V30 12441 N 1115.97 -0.914965 -1.28321 0
M  V30 12442 C 1117.21 -0.544639 -1.94208 0
M  V30 12443 C 1117.53 0.916368 -1.72806 0
M  V30 12444 O 1118.73 1.39491 -2.32926 0
M  V30 12445 C 1117.19 -0.923209 -3.47858 0
M  V30 12446 C 1116.8 -2.40403 -3.78035 0
M  V30 12447 C 1118.54 -0.623526 -4.19896 0
M  V30 12448 C 1116.45 -2.72266 -5.25 0
M  V30 12449 H 1115.38 -0.199966 -0.727 0
M  V30 12450 H 1118.03 -1.11405 -1.45812 0
M  V30 12451 H 1116.41 -0.282576 -3.94991 0
M  V30 12452 H 1117.59 -3.09149 -3.41706 0
M  V30 12453 H 1115.9 -2.67429 -3.19172 0
M  V30 12454 H 1118.5 -0.838243 -5.28089 0
M  V30 12455 H 1118.84 0.438721 -4.13982 0
M  V30 12456 H 1119.37 -1.22268 -3.78544 0
M  V30 12457 H 1116.11 -3.77349 -5.35993 0
M  V30 12458 H 1115.63 -2.08157 -5.62522 0
M  V30 12459 H 1117.31 -2.59334 -5.92752 0
M  V30 12460 N 1117.44 1.42219 -0.679077 0
M  V30 12461 C 1118.72 1.95155 -0.13188 0
M  V30 12462 C 1119.1 1.6193 1.35433 0
M  V30 12463 O 1118.45 0.917672 2.09263 0
M  V30 12464 C 1118.66 3.46635 -0.405578 0
M  V30 12465 C 1120.01 4.23359 -0.324394 0
M  V30 12466 O 1121.03 3.54578 -0.339564 0
M  V30 12467 O 1119.89 5.45831 -0.270268 0
M  V30 12468 H 1116.98 0.826983 -0.00535438 0
M  V30 12469 H 1119.53 1.52024 -0.754101 0
M  V30 12470 H 1118.3 3.6404 -1.43495 0
M  V30 12471 H 1117.92 3.96823 0.248439 0
M  V30 12472 N 1118.92 0.422693 1.51826 0
M  V30 12473 C 1119.88 -0.384307 2.25955 0
M  V30 12474 C 1120.88 -0.962184 1.28836 0
M  V30 12475 O 1122.07 -0.838931 1.52668 0
M  V30 12476 C 1119.21 -1.54228 3.04018 0
M  V30 12477 H 1120.4 0.265157 2.98726 0
M  V30 12478 H 1117.95 0.175515 1.55311 0
M  V30 12479 H 1118.69 -2.22822 2.35629 0
M  V30 12480 H 1118.47 -1.13425 3.75336 0
M  V30 12481 H 1119.96 -2.1128 3.60209 0
M  V30 12482 N 1120.4 -1.5685 0.153553 0
M  V30 12483 C 1121.65 -1.97404 -0.490227 0
M  V30 12484 C 1122 -1.03725 -1.62046 0
M  V30 12485 O 1121.29 -0.0735247 -1.91459 0
M  V30 12486 C 1121.49 -3.42022 -1.0371 0
M  V30 12487 C 1121.32 -4.49683 0.038616 0
M  V30 12488 C 1120.09 -5.02993 0.482267 0
M  V30 12489 C 1122.28 -5.07517 0.832507 0
M  V30 12490 N 1120.27 -5.94267 1.54014 0
M  V30 12491 C 1121.64 -5.95062 1.74072 0
M  V30 12492 C 1123.69 -4.90069 0.879566 0
M  V30 12493 C 1122.4 -6.67027 2.69198 0
M  V30 12494 C 1124.42 -5.62741 1.81868 0
M  V30 12495 C 1123.78 -6.5 2.71441 0
M  V30 12496 H 1119.88 -0.767866 -0.148005 0
M  V30 12497 H 1122.47 -1.93093 0.24967 0
M  V30 12498 H 1120.64 -3.46914 -1.74658 0
M  V30 12499 H 1122.37 -3.69624 -1.64804 0
M  V30 12500 H 1119.12 -4.73527 0.0832885 0
M  V30 12501 H 1119.55 -6.44608 2.06903 0
M  V30 12502 H 1124.19 -4.22321 0.201123 0
M  V30 12503 H 1121.91 -7.34 3.38039 0
M  V30 12504 H 1125.49 -5.51234 1.86098 0
M  V30 12505 H 1124.37 -7.05246 3.42926 0
M  V30 12506 N 1121.88 0.120221 -1.57141 0
M  V30 12507 C 1122.81 1.17787 -1.95452 0
M  V30 12508 C 1123.79 1.40174 -0.824016 0
M  V30 12509 O 1124.97 1.54348 -1.08208 0
M  V30 12510 C 1122.1 2.53193 -2.24969 0
M  V30 12511 C 1121.15 2.47241 -3.47526 0
M  V30 12512 S 1121.98 1.91325 -5.00155 0
M  V30 12513 C 1123.13 3.28406 -5.32823 0
M  V30 12514 H 1123.37 0.851152 -2.84856 0
M  V30 12515 H 1120.9 0.326929 -1.50899 0
M  V30 12516 H 1122.86 3.31104 -2.42652 0
M  V30 12517 H 1121.52 2.83043 -1.36181 0
M  V30 12518 H 1120.71 3.46981 -3.65541 0
M  V30 12519 H 1120.31 1.7745 -3.29223 0
M  V30 12520 H 1122.61 4.24613 -5.2793 0
M  V30 12521 H 1123.55 3.1522 -6.34068 0
M  V30 12522 H 1123.96 3.26779 -4.603 0
M  V30 12523 N 1123.36 1.52689 0.390367 0
M  V30 12524 C 1124.29 1.80338 1.48325 0
M  V30 12525 C 1125.27 0.655338 1.56969 0
M  V30 12526 O 1126.45 0.902792 1.7194 0
M  V30 12527 C 1123.58 1.97101 2.85952 0
M  V30 12528 C 1122.54 3.12783 2.92148 0
M  V30 12529 C 1121.86 3.14798 4.32211 0
M  V30 12530 C 1123.16 4.5188 2.61919 0
M  V30 12531 H 1124.86 2.71857 1.25437 0
M  V30 12532 H 1122.4 1.30813 0.601995 0
M  V30 12533 H 1124.36 2.15027 3.62411 0
M  V30 12534 H 1123.08 1.02271 3.10174 0
M  V30 12535 H 1121.74 2.94638 2.18137 0
M  V30 12536 H 1121.39 2.17653 4.53471 0
M  V30 12537 H 1121.09 3.92507 4.37278 0
M  V30 12538 H 1122.61 3.34877 5.10578 0
M  V30 12539 H 1124.02 4.70134 3.28096 0
M  V30 12540 H 1122.42 5.31647 2.78337 0
M  V30 12541 H 1123.49 4.58689 1.57266 0
M  V30 12542 N 1124.83 -0.648732 1.43629 0
M  V30 12543 C 1126.11 -1.4062 1.35961 0
M  V30 12544 C 1126.49 -2.11098 0.00961023 0
M  V30 12545 O 1125.84 -2.05107 -1.00714 0
M  V30 12546 C 1126.05 -2.38719 2.54586 0
M  V30 12547 C 1127.4 -3.02584 2.97873 0
M  V30 12548 O 1128.42 -2.49046 2.54665 0
M  V30 12549 O 1127.28 -3.99662 3.72736 0
M  V30 12550 H 1124.37 -0.628483 0.53753 0
M  V30 12551 H 1126.92 -0.675263 1.55687 0
M  V30 12552 H 1125.69 -1.85619 3.44472 0
M  V30 12553 H 1125.32 -3.19257 2.36983 0
M  V30 12554 N 1126.31 -1.30234 -0.887518 0
M  V30 12555 C 1127.56 -1.18277 -1.63381 0
M  V30 12556 C 1127.87 0.262079 -1.93836 0
M  V30 12557 O 1129.08 0.503127 -2.66797 0
M  V30 12558 C 1127.54 -2.06944 -2.94452 0
M  V30 12559 C 1127.14 -3.56323 -2.71547 0
M  V30 12560 C 1128.89 -2.03743 -3.7241 0
M  V30 12561 C 1126.8 -4.37054 -3.98419 0
M  V30 12562 H 1125.73 -0.439087 -0.612959 0
M  V30 12563 H 1128.38 -1.54964 -0.982779 0
M  V30 12564 H 1126.76 -1.63138 -3.60835 0
M  V30 12565 H 1127.93 -4.08261 -2.13681 0
M  V30 12566 H 1126.25 -3.61321 -2.06969 0
M  V30 12567 H 1128.84 -2.61312 -4.66497 0
M  V30 12568 H 1129.19 -1.02029 -4.03603 0
M  V30 12569 H 1129.72 -2.45657 -3.12886 0
M  V30 12570 H 1126.46 -5.39453 -3.72385 0
M  V30 12571 H 1125.98 -3.89881 -4.55799 0
M  V30 12572 H 1127.66 -4.48356 -4.66462 0
M  V30 12573 N 1127.79 1.09952 -1.12909 0
M  V30 12574 C 1128.72 2.18477 -0.824014 0
M  V30 12575 C 1129.7 1.68744 0.214324 0
M  V30 12576 O 1130.89 1.94057 0.0744281 0
M  V30 12577 C 1128.02 3.46143 -0.283308 0
M  V30 12578 C 1126.97 4.09178 -1.25528 0
M  V30 12579 C 1126.3 5.31604 -0.574574 0
M  V30 12580 C 1127.6 4.52308 -2.6118 0
M  V30 12581 H 1129.29 2.44254 -1.73148 0
M  V30 12582 H 1126.84 1.17394 -0.833952 0
M  V30 12583 H 1128.79 4.21361 -0.057583 0
M  V30 12584 H 1127.51 3.19872 0.659525 0
M  V30 12585 H 1126.17 3.35973 -1.4669 0
M  V30 12586 H 1125.82 5.01611 0.37356 0
M  V30 12587 H 1125.52 5.74732 -1.22299 0
M  V30 12588 H 1127.04 6.0955 -0.358004 0
M  V30 12589 H 1128.46 5.18776 -2.44017 0
M  V30 12590 H 1126.86 5.06302 -3.22147 0
M  V30 12591 H 1127.93 3.64977 -3.19249 0
M  V30 12592 N 1129.27 0.921757 1.27833 0
M  V30 12593 C 1130.22 0.414838 2.27041 0
M  V30 12594 C 1131.19 -0.515045 1.57913 0
M  V30 12595 O 1132.37 -0.435499 1.85763 0
M  V30 12596 C 1129.51 -0.331744 3.43502 0
M  V30 12597 C 1128.62 0.631565 4.27358 0
M  V30 12598 C 1127.76 -0.134265 5.3103 0
M  V30 12599 C 1126.8 0.822138 6.06554 0
M  V30 12600 N 1125.93 0.0893149 7.02043 0
M  V30 12601 H 1130.77 1.26585 2.69778 0
M  V30 12602 H 1128.31 0.635488 1.32665 0
M  V30 12603 H 1130.27 -0.780866 4.09827 0
M  V30 12604 H 1128.9 -1.14704 3.01733 0
M  V30 12605 H 1127.95 1.19922 3.61003 0
M  V30 12606 H 1129.26 1.36274 4.79824 0
M  V30 12607 H 1128.42 -0.643579 6.03277 0
M  V30 12608 H 1127.16 -0.898443 4.79353 0
M  V30 12609 H 1126.16 1.34275 5.33151 0
M  V30 12610 H 1127.39 1.586 6.6032 0
M  V30 12611 H 1125.33 -0.656725 6.52704 0
M  V30 12612 H 1125.25 0.760167 7.52169 0
M  V30 12613 H 1126.52 -0.399541 7.78475 0
M  V30 12614 N 1130.75 -1.41857 0.686609 0
M  V30 12615 C 1132 -2.00594 0.21095 0
M  V30 12616 C 1132.31 -1.54974 -1.19341 0
M  V30 12617 O 1133.51 -2.0621 -1.76607 0
M  V30 12618 C 1131.97 -3.58418 0.326261 0
M  V30 12619 C 1131.58 -4.13022 1.73542 0
M  V30 12620 C 1133.32 -4.24404 -0.0900816 0
M  V30 12621 C 1131.23 -5.6325 1.80287 0
M  V30 12622 H 1130.16 -0.75025 0.0751077 0
M  V30 12623 H 1132.81 -1.62442 0.853508 0
M  V30 12624 H 1131.19 -3.9413 -0.384394 0
M  V30 12625 H 1132.37 -3.88747 2.47411 0
M  V30 12626 H 1130.68 -3.5953 2.10065 0
M  V30 12627 H 1133.28 -5.34666 -0.060004 0
M  V30 12628 H 1133.62 -4.00745 -1.12733 0
M  V30 12629 H 1134.15 -3.93695 0.569979 0
M  V30 12630 H 1130.89 -5.91724 2.82034 0
M  V30 12631 H 1130.41 -5.89479 1.1079 0
M  V30 12632 H 1132.09 -6.2787 1.56167 0
M  V30 12633 N 1132.22 -0.430739 -1.51599 0
M  V30 12634 C 1133.47 0.138133 -2.02329 0
M  V30 12635 C 1133.8 1.42934 -1.31466 0
M  V30 12636 O 1133.08 1.89743 -0.427551 0
M  V30 12637 C 1133.36 0.363677 -3.58259 0
M  V30 12638 C 1133.21 -0.94572 -4.39746 0
M  V30 12639 C 1134.53 1.13637 -4.25176 0
M  V30 12640 H 1131.65 0.0487287 -0.735387 0
M  V30 12641 H 1134.29 -0.568444 -1.81297 0
M  V30 12642 H 1132.44 0.965552 -3.7631 0
M  V30 12643 H 1134.12 -1.58107 -4.33359 0
M  V30 12644 H 1132.36 -1.55183 -4.05094 0
M  V30 12645 H 1133.03 -0.742031 -5.4699 0
M  V30 12646 H 1135.51 0.626608 -4.11355 0
M  V30 12647 H 1134.38 1.26294 -5.34173 0
M  V30 12648 H 1134.64 2.16273 -3.85588 0
M  V30 12649 N 1133.7 1.56767 -0.161869 0
M  V30 12650 C 1134.93 2.01401 0.49523 0
M  V30 12651 C 1135.35 1.04133 1.56646 0
M  V30 12652 O 1134.71 0.0193747 1.8129 0
M  V30 12653 C 1134.76 3.44695 1.05913 0
M  V30 12654 O 1133.86 3.50475 2.1735 0
M  V30 12655 H 1133.2 0.65314 0.1196 0
M  V30 12656 H 1135.73 2.02903 -0.26298 0
M  V30 12657 H 1135.74 3.83805 1.3841 0
M  V30 12658 H 1134.42 4.14991 0.274749 0
M  V30 12659 H 1133 3.23218 1.85969 0
M  V30 12660 N 1135.18 -0.111886 1.57202 0
M  V30 12661 C 1136.41 -0.836317 1.89791 0
M  V30 12662 C 1136.83 -1.72304 0.754513 0
M  V30 12663 O 1136.19 -1.78889 -0.294672 0
M  V30 12664 C 1136.24 -1.63971 3.21164 0
M  V30 12665 O 1135.34 -2.74726 3.0757 0
M  V30 12666 H 1134.68 -0.230833 0.622585 0
M  V30 12667 H 1137.21 -0.0921478 2.04392 0
M  V30 12668 H 1137.22 -2.02746 3.54059 0
M  V30 12669 H 1135.9 -0.98882 4.03974 0
M  V30 12670 H 1134.47 -2.39101 2.86156 0
M  V30 12671 N 1136.66 -1.52894 -0.382264 0
M  V30 12672 C 1137.88 -1.72453 -1.15216 0
M  V30 12673 C 1138.31 -0.444925 -1.82762 0
M  V30 12674 O 1137.67 0.599825 -1.7109 0
M  V30 12675 C 1137.71 -2.87939 -2.17079 0
M  V30 12676 O 1136.82 -2.55383 -3.23811 0
M  V30 12677 H 1136.16 -0.57324 -0.335099 0
M  V30 12678 H 1138.69 -1.99713 -0.444495 0
M  V30 12679 H 1138.7 -3.13628 -2.60963 0
M  V30 12680 H 1137.37 -3.80765 -1.67305 0
M  V30 12681 H 1135.95 -2.40457 -2.85018 0
M  V30 12682 N 1138.14 0.641106 -1.43971 0
M  V30 12683 C 1139.41 1.39897 -1.36704 0
M  V30 12684 C 1139.79 2.1109 -0.0208051 0
M  V30 12685 O 1139.14 2.05638 0.99625 0
M  V30 12686 C 1139.35 2.37366 -2.55849 0
M  V30 12687 C 1140.7 3.01 -2.99473 0
M  V30 12688 O 1141.72 2.47692 -2.55982 0
M  V30 12689 O 1140.58 3.9768 -3.74851 0
M  V30 12690 H 1137.68 0.625623 -0.540855 0
M  V30 12691 H 1140.22 0.666997 -1.56042 0
M  V30 12692 H 1139 1.8379 -3.45452 0
M  V30 12693 H 1138.62 3.17995 -2.38673 0
M  V30 12694 N 1139.62 1.30703 0.880598 0
M  V30 12695 C 1140.86 1.19955 1.63519 0
M  V30 12696 C 1141.19 -0.244214 1.92658 0
M  V30 12697 O 1140.47 -1.17412 1.55063 0
M  V30 12698 C 1140.75 2.03302 2.97221 0
M  V30 12699 C 1140.61 3.55921 2.75028 0
M  V30 12700 C 1141.92 1.87421 3.98198 0
M  V30 12701 H 1139.04 0.43712 0.593376 0
M  V30 12702 H 1141.69 1.60382 1.01871 0
M  V30 12703 H 1139.84 1.68953 3.49839 0
M  V30 12704 H 1141.51 4.00352 2.29164 0
M  V30 12705 H 1139.75 3.79885 2.09452 0
M  V30 12706 H 1140.42 4.09533 3.70117 0
M  V30 12707 H 1142.9 2.17459 3.54755 0
M  V30 12708 H 1141.77 2.48057 4.89652 0
M  V30 12709 H 1142.03 0.834563 4.34151 0
M  V30 12710 N 1141.09 -1.09351 1.1349 0
M  V30 12711 C 1142.34 -1.81185 0.89535 0
M  V30 12712 C 1142.66 -1.86173 -0.580048 0
M  V30 12713 O 1141.93 -1.34784 -1.42162 0
M  V30 12714 H 1140.51 -0.671011 0.328257 0
M  V30 12715 H 1143.17 -1.32255 1.43159 0
M  V30 12716 H 1142.27 -2.84339 1.28676 0
M  V30 12717 N 1142.57 -0.928524 -1.27343 0
M  V30 12718 C 1143.52 -0.399267 -2.24477 0
M  V30 12719 C 1144.51 0.496927 -1.53034 0
M  V30 12720 O 1145.7 0.334237 -1.73816 0
M  V30 12721 C 1142.83 0.346059 -3.41551 0
M  V30 12722 C 1141.91 -0.566699 -4.20297 0
M  V30 12723 N 1142.3 -1.6869 -4.76841 0
M  V30 12724 C 1140.6 -0.369865 -4.44464 0
M  V30 12725 C 1141.3 -2.25466 -5.36228 0
M  V30 12726 N 1140.28 -1.54414 -5.21207 0
M  V30 12727 H 1144.08 -1.25456 -2.65778 0
M  V30 12728 H 1141.59 -0.782894 -1.42283 0
M  V30 12729 H 1143.59 0.742171 -4.10241 0
M  V30 12730 H 1142.25 1.19827 -3.01781 0
M  V30 12731 H 1143.26 -2.06926 -4.74765 0
M  V30 12732 H 1139.94 0.441619 -4.15158 0
M  V30 12733 H 1141.33 -3.19779 -5.90924 0
M  V30 12734 N 1144.05 1.41491 -0.694123 0
M  V30 12735 C 1145.33 1.95004 -0.152571 0
M  V30 12736 C 1145.71 1.63357 1.33707 0
M  V30 12737 O 1145.05 0.939815 2.08278 0
M  V30 12738 C 1145.26 3.46186 -0.44232 0
M  V30 12739 C 1146.61 4.22991 -0.369279 0
M  V30 12740 O 1147.64 3.54198 -0.377152 0
M  V30 12741 O 1146.5 5.45514 -0.328145 0
M  V30 12742 H 1143.59 0.826879 -0.0141253 0
M  V30 12743 H 1146.14 1.51216 -0.770183 0
M  V30 12744 H 1144.91 3.62497 -1.47348 0
M  V30 12745 H 1144.53 3.97064 0.206337 0
M  V30 12746 N 1145.53 0.438773 1.51369 0
M  V30 12747 C 1146.44 -0.378074 2.31534 0
M  V30 12748 C 1147.45 -1.02632 1.40508 0
M  V30 12749 O 1148.63 -1.02138 1.73579 0
M  V30 12750 C 1145.69 -1.46374 3.14286 0
M  V30 12751 C 1144.76 -0.835473 4.21092 0
M  V30 12752 C 1143.99 -1.86941 4.99889 0
M  V30 12753 O 1144.21 -3.0918 4.79337 0
M  V30 12754 O 1143.15 -1.45914 5.83946 0
M  V30 12755 H 1146.97 0.276401 3.0244 0
M  V30 12756 H 1144.56 0.201281 1.48038 0
M  V30 12757 H 1146.44 -2.09335 3.65728 0
M  V30 12758 H 1145.11 -2.10227 2.46143 0
M  V30 12759 H 1144.02 -0.167775 3.73724 0
M  V30 12760 H 1145.35 -0.240406 4.91613 0
M  V30 12761 N 1147.01 -1.56678 0.170181 0
M  V30 12762 C 1148.24 -2.00931 -0.480664 0
M  V30 12763 C 1148.64 -1.04947 -1.57425 0
M  V30 12764 O 1147.99 -0.042229 -1.83651 0
M  V30 12765 C 1148.05 -3.4161 -1.11996 0
M  V30 12766 C 1147.71 -4.5669 -0.168167 0
M  V30 12767 C 1148.71 -5.16273 0.613059 0
M  V30 12768 C 1146.39 -5.02259 -0.0643243 0
M  V30 12769 C 1148.39 -6.19852 1.48534 0
M  V30 12770 C 1146.08 -6.05687 0.811542 0
M  V30 12771 C 1147.07 -6.64355 1.58496 0
M  V30 12772 O 1146.76 -7.65778 2.44619 0
M  V30 12773 H 1146.49 -0.66386 -0.12754 0
M  V30 12774 H 1149.05 -2.03635 0.2687 0
M  V30 12775 H 1147.28 -3.35815 -1.91743 0
M  V30 12776 H 1148.97 -3.69823 -1.67289 0
M  V30 12777 H 1149.73 -4.81951 0.542999 0
M  V30 12778 H 1145.61 -4.56307 -0.656102 0
M  V30 12779 H 1149.16 -6.65572 2.08948 0
M  V30 12780 H 1145.05 -6.39435 0.88281 0
M  V30 12781 H 1145.82 -7.83096 2.38122 0
M  V30 12782 N 1148.48 0.103547 -1.57259 0
M  V30 12783 C 1149.71 0.82624 -1.90232 0
M  V30 12784 C 1150.13 1.71902 -0.763641 0
M  V30 12785 O 1149.49 1.79043 0.285181 0
M  V30 12786 C 1149.54 1.62265 -3.22029 0
M  V30 12787 O 1148.64 2.73091 -3.09023 0
M  V30 12788 H 1147.98 0.227528 -0.6238 0
M  V30 12789 H 1150.51 0.081307 -2.04438 0
M  V30 12790 H 1150.52 2.00865 -3.5513 0
M  V30 12791 H 1149.2 0.967383 -4.04493 0
M  V30 12792 H 1147.78 2.3758 -2.8742 0
M  V30 12793 N 1149.96 1.53094 0.37415 0
M  V30 12794 C 1151.19 1.72758 1.13852 0
M  V30 12795 C 1151.6 0.452638 1.83294 0
M  V30 12796 O 1150.96 -0.573906 1.73241 0
M  V30 12797 C 1151.01 2.88724 2.17534 0
M  V30 12798 O 1150.73 4.11284 1.5092 0
M  V30 12799 C 1152.23 3.2019 3.06584 0
M  V30 12800 H 1149.45 0.578028 0.340771 0
M  V30 12801 H 1152 1.99805 0.435683 0
M  V30 12802 H 1150.15 2.64096 2.83429 0
M  V30 12803 H 1150.57 4.76162 2.19932 0
M  V30 12804 H 1152.04 4.04759 3.75332 0
M  V30 12805 H 1152.52 2.35193 3.70919 0
M  V30 12806 H 1153.12 3.46712 2.46315 0
M  V30 12807 N 1151.44 -0.633461 1.44309 0
M  V30 12808 C 1152.37 -1.75868 1.4698 0
M  V30 12809 C 1153.38 -1.58691 0.363469 0
M  V30 12810 O 1154.57 -1.67048 0.629075 0
M  V30 12811 C 1151.67 -3.1356 1.28582 0
M  V30 12812 C 1150.85 -3.57217 2.52418 0
M  V30 12813 C 1149.91 -4.73779 2.28954 0
M  V30 12814 O 1148.93 -4.8221 3.02428 0
M  V30 12815 N 1150.13 -5.65324 1.31866 0
M  V30 12816 H 1152.9 -1.74048 2.43983 0
M  V30 12817 H 1150.46 -0.817952 1.39718 0
M  V30 12818 H 1152.45 -3.89255 1.10736 0
M  V30 12819 H 1151.02 -3.10036 0.399529 0
M  V30 12820 H 1150.24 -2.71755 2.85557 0
M  V30 12821 H 1151.53 -3.83136 3.3479 0
M  V30 12822 H 1150.93 -5.61204 0.71179 0
M  V30 12823 H 1149.48 -6.40659 1.19998 0
M  V30 12824 N 1152.92 -1.31168 -0.873655 0
M  V30 12825 C 1154.14 -1.23728 -1.66452 0
M  V30 12826 C 1154.57 0.194869 -1.87088 0
M  V30 12827 O 1153.93 1.1397 -1.40998 0
M  V30 12828 C 1153.97 -1.98285 -3.0119 0
M  V30 12829 O 1153.08 -1.31767 -3.90783 0
M  V30 12830 H 1152.42 -0.427362 -0.508191 0
M  V30 12831 H 1154.95 -1.73176 -1.08955 0
M  V30 12832 H 1154.96 -2.0774 -3.51153 0
M  V30 12833 H 1153.63 -3.02437 -2.8549 0
M  V30 12834 H 1152.21 -1.3074 -3.4923 0
M  V30 12835 N 1154.4 1.08748 -1.14068 0
M  V30 12836 C 1155.33 2.17591 -0.84714 0
M  V30 12837 C 1156.31 1.68962 0.196415 0
M  V30 12838 O 1157.49 1.94125 0.0538415 0
M  V30 12839 C 1154.62 3.45823 -0.320005 0
M  V30 12840 C 1153.58 4.07824 -1.2986 0
M  V30 12841 C 1152.9 5.30965 -0.630925 0
M  V30 12842 C 1154.2 4.49512 -2.65963 0
M  V30 12843 H 1155.9 2.42404 -1.75729 0
M  V30 12844 H 1153.44 1.16502 -0.846356 0
M  V30 12845 H 1155.4 4.21276 -0.102271 0
M  V30 12846 H 1154.12 3.20553 0.625561 0
M  V30 12847 H 1152.78 3.34398 -1.50245 0
M  V30 12848 H 1152.43 5.01979 0.320337 0
M  V30 12849 H 1152.13 5.73402 -1.28388 0
M  V30 12850 H 1153.65 6.09136 -0.422635 0
M  V30 12851 H 1155.06 5.16159 -2.49506 0
M  V30 12852 H 1153.46 5.02857 -3.27498 0
M  V30 12853 H 1154.53 3.6157 -3.23102 0
M  V30 12854 N 1155.87 0.935264 1.26849 0
M  V30 12855 C 1157.12 0.580548 1.94313 0
M  V30 12856 C 1157.45 -0.877205 1.73259 0
M  V30 12857 O 1156.73 -1.62679 1.06611 0
M  V30 12858 C 1157.01 0.916445 3.48243 0
M  V30 12859 C 1156.86 2.42851 3.78607 0
M  V30 12860 C 1158.18 0.427665 4.38017 0
M  V30 12861 H 1155.3 0.21239 0.705733 0
M  V30 12862 H 1157.94 1.16841 1.49827 0
M  V30 12863 H 1156.09 0.416169 3.86265 0
M  V30 12864 H 1157.77 3.00106 3.50335 0
M  V30 12865 H 1156.01 2.8745 3.24892 0
M  V30 12866 H 1156.68 2.61405 4.8618 0
M  V30 12867 H 1159.16 0.856525 4.07189 0
M  V30 12868 H 1158.03 0.691571 5.44526 0
M  V30 12869 H 1158.29 -0.672344 4.36958 0
M  V30 12870 N 1157.35 -1.41121 0.701616 0
M  V30 12871 C 1158.3 -2.30765 0.040121 0
M  V30 12872 C 1159.27 -1.47436 -0.764975 0
M  V30 12873 O 1160.45 -1.76209 -0.731775 0
M  V30 12874 C 1157.59 -3.33535 -0.885903 0
M  V30 12875 C 1156.71 -4.3194 -0.0717765 0
M  V30 12876 C 1155.84 -5.21779 -0.995996 0
M  V30 12877 C 1154.88 -6.11849 -0.175133 0
M  V30 12878 N 1154.02 -6.94151 -1.05348 0
M  V30 12879 H 1158.86 -2.86772 0.810312 0
M  V30 12880 H 1156.4 -1.41233 0.411301 0
M  V30 12881 H 1158.35 -3.91675 -1.4369 0
M  V30 12882 H 1156.98 -2.79065 -1.62243 0
M  V30 12883 H 1156.04 -3.75698 0.596221 0
M  V30 12884 H 1157.35 -4.95597 0.56435 0
M  V30 12885 H 1156.5 -5.84782 -1.61601 0
M  V30 12886 H 1155.24 -4.58363 -1.66597 0
M  V30 12887 H 1154.25 -5.4789 0.457916 0
M  V30 12888 H 1155.47 -6.77322 0.491133 0
M  V30 12889 H 1153.42 -6.33338 -1.70936 0
M  V30 12890 H 1153.33 -7.54518 -0.473065 0
M  V30 12891 H 1154.6 -7.61617 -1.66012 0
M  V30 12892 N 1158.83 -0.446794 -1.51134 0
M  V30 12893 C 1159.78 0.359865 -2.27977 0
M  V30 12894 C 1160.75 1.0086 -1.31972 0
M  V30 12895 O 1161.93 1.02569 -1.60886 0
M  V30 12896 C 1159.07 1.44978 -3.1317 0
M  V30 12897 C 1158.19 0.818243 -4.2418 0
M  V30 12898 C 1157.32 1.884 -4.96668 0
M  V30 12899 C 1156.36 1.2314 -5.99586 0
M  V30 12900 N 1155.5 2.23894 -6.65444 0
M  V30 12901 H 1160.34 -0.301775 -2.96468 0
M  V30 12902 H 1157.87 -0.160666 -1.4622 0
M  V30 12903 H 1159.83 2.09308 -3.60896 0
M  V30 12904 H 1158.46 2.08092 -2.46775 0
M  V30 12905 H 1157.51 0.0629889 -3.80348 0
M  V30 12906 H 1158.83 0.301885 -4.97886 0
M  V30 12907 H 1157.98 2.6037 -5.4799 0
M  V30 12908 H 1156.72 2.43411 -4.22614 0
M  V30 12909 H 1155.72 0.497215 -5.47547 0
M  V30 12910 H 1156.95 0.688505 -6.75601 0
M  V30 12911 H 1154.89 2.77967 -5.94197 0
M  V30 12912 H 1154.81 1.77176 -7.34945 0
M  V30 12913 H 1156.08 2.95318 -7.21393 0
M  V30 12914 N 1160.31 1.56586 -0.178487 0
M  V30 12915 C 1161.26 2.1491 0.761432 0
M  V30 12916 C 1162.24 1.08528 1.18788 0
M  V30 12917 O 1163.43 1.34633 1.14904 0
M  V30 12918 C 1160.56 2.79902 1.98771 0
M  V30 12919 C 1159.65 3.93452 1.58293 0
M  V30 12920 N 1160.04 4.97942 0.888124 0
M  V30 12921 C 1158.34 4.04745 1.87343 0
M  V30 12922 C 1159.04 5.7762 0.68772 0
M  V30 12923 N 1158.02 5.2947 1.23136 0
M  V30 12924 H 1161.82 2.93063 0.221693 0
M  V30 12925 H 1159.33 1.62385 0.0219283 0
M  V30 12926 H 1161.33 3.20067 2.67138 0
M  V30 12927 H 1159.99 2.03232 2.53233 0
M  V30 12928 H 1161 5.1502 0.545387 0
M  V30 12929 H 1157.68 3.39186 2.43432 0
M  V30 12930 H 1159.07 6.71759 0.13775 0
M  V30 12931 N 1161.79 -0.095206 1.57312 0
M  V30 12932 C 1162.73 -1.11551 2.02052 0
M  V30 12933 C 1163.7 -1.39808 0.896818 0
M  V30 12934 O 1164.89 -1.51273 1.1628 0
M  V30 12935 C 1162.03 -2.43056 2.44985 0
M  V30 12936 C 1161.14 -2.21531 3.70875 0
M  V30 12937 C 1160.28 -3.46434 4.02687 0
M  V30 12938 C 1159.32 -3.2017 5.21687 0
M  V30 12939 N 1158.45 -4.37339 5.49253 0
M  V30 12940 H 1163.29 -0.727 2.88996 0
M  V30 12941 H 1160.83 -0.347441 1.42938 0
M  V30 12942 H 1162.79 -3.19803 2.67921 0
M  V30 12943 H 1161.42 -2.79754 1.61051 0
M  V30 12944 H 1160.47 -1.35587 3.55416 0
M  V30 12945 H 1161.78 -1.98116 4.57768 0
M  V30 12946 H 1160.94 -4.31589 4.26399 0
M  V30 12947 H 1159.67 -3.72904 3.14315 0
M  V30 12948 H 1158.68 -2.33409 4.97796 0
M  V30 12949 H 1159.9 -2.95047 6.11657 0
M  V30 12950 H 1157.85 -4.63885 4.6384 0
M  V30 12951 H 1157.77 -4.17114 6.30517 0
M  V30 12952 H 1159.04 -5.23559 5.775 0
M  V30 12953 N 1163.26 -1.53291 -0.366026 0
M  V30 12954 C 1164.54 -1.60055 -1.12436 0
M  V30 12955 C 1164.92 -0.407811 -2.07123 0
M  V30 12956 O 1164.27 0.601977 -2.20428 0
M  V30 12957 C 1164.48 -2.95062 -1.86385 0
M  V30 12958 C 1165.83 -3.49623 -2.40934 0
M  V30 12959 O 1166.85 -2.97088 -1.96512 0
M  V30 12960 O 1165.71 -4.41461 -3.2214 0
M  V30 12961 H 1162.8 -0.646476 -0.51575 0
M  V30 12962 H 1165.35 -1.65632 -0.369326 0
M  V30 12963 H 1164.12 -3.73312 -1.17277 0
M  V30 12964 H 1163.75 -2.92973 -2.68798 0
M  V30 12965 N 1164.74 0.6258 -1.44643 0
M  V30 12966 C 1165.99 1.3873 -1.47925 0
M  V30 12967 C 1166.32 1.93868 -0.113469 0
M  V30 12968 O 1165.6 1.73976 0.869639 0
M  V30 12969 C 1165.88 2.54867 -2.54391 0
M  V30 12970 C 1165.73 2.05044 -4.00346 0
M  V30 12971 C 1167.05 3.57043 -2.57309 0
M  V30 12972 H 1164.17 0.503087 -0.538584 0
M  V30 12973 H 1166.81 0.707102 -1.76352 0
M  V30 12974 H 1164.96 3.12894 -2.30281 0
M  V30 12975 H 1166.63 1.51807 -4.35606 0
M  V30 12976 H 1164.88 1.36185 -4.11869 0
M  V30 12977 H 1165.55 2.88681 -4.70497 0
M  V30 12978 H 1168.02 3.08826 -2.78865 0
M  V30 12979 H 1166.9 4.35818 -3.33698 0
M  V30 12980 H 1167.16 4.11464 -1.61708 0
M  V30 12981 N 1166.22 1.31629 0.866686 0
M  V30 12982 C 1167.18 1.1951 1.95576 0
M  V30 12983 C 1168.18 0.121319 1.60342 0
M  V30 12984 O 1169.37 0.370832 1.70207 0
M  V30 12985 C 1166.51 0.835201 3.30511 0
M  V30 12986 H 1167.7 2.16285 2.07752 0
M  V30 12987 H 1165.25 1.15288 1.05539 0
M  V30 12988 H 1165.99 -0.131245 3.24034 0
M  V30 12989 H 1165.77 1.61142 3.57457 0
M  V30 12990 H 1167.26 0.774393 4.10357 0
M  V30 12991 N 1167.7 -1.08142 1.14644 0
M  V30 12992 C 1168.61 -2.18675 0.849607 0
M  V30 12993 C 1169.63 -1.73158 -0.170983 0
M  V30 12994 O 1170.8 -2.014 0.0011579 0
M  V30 12995 C 1167.87 -3.45084 0.334305 0
M  V30 12996 C 1166.93 -4.05213 1.41779 0
M  V30 12997 C 1166.16 -5.25588 0.926981 0
M  V30 12998 O 1166.38 -5.69934 -0.230522 0
M  V30 12999 O 1165.32 -5.77183 1.70715 0
M  V30 13000 H 1169.14 -2.46542 1.77343 0
M  V30 13001 H 1166.73 -1.17328 0.924911 0
M  V30 13002 H 1168.61 -4.21367 0.0529893 0
M  V30 13003 H 1167.29 -3.18788 -0.561755 0
M  V30 13004 H 1166.19 -3.30507 1.7526 0
M  V30 13005 H 1167.53 -4.35764 2.28847 0
M  V30 13006 N 1169.18 -0.941978 -1.26351 0
M  V30 13007 C 1170.09 -0.45833 -2.30079 0
M  V30 13008 C 1171.1 0.468084 -1.67586 0
M  V30 13009 O 1172.28 0.347418 -1.98381 0
M  V30 13010 C 1169.34 0.26797 -3.45663 0
M  V30 13011 C 1168.41 -0.695102 -4.23635 0
M  V30 13012 C 1167.64 -0.003369 -5.337 0
M  V30 13013 O 1167.86 1.21342 -5.57344 0
M  V30 13014 O 1166.8 -0.682476 -5.98018 0
M  V30 13015 H 1170.62 -1.31998 -2.73514 0
M  V30 13016 H 1168.21 -0.707897 -1.31564 0
M  V30 13017 H 1170.09 0.677061 -4.15925 0
M  V30 13018 H 1168.76 1.105 -3.04256 0
M  V30 13019 H 1167.67 -1.15415 -3.55851 0
M  V30 13020 H 1169 -1.49977 -4.68794 0
M  V30 13021 N 1170.66 1.40747 -0.709091 0
M  V30 13022 C 1171.9 2.00233 -0.242836 0
M  V30 13023 C 1172.22 1.56853 1.1686 0
M  V30 13024 O 1173.42 2.08993 1.73304 0
M  V30 13025 C 1171.88 3.57854 -0.383241 0
M  V30 13026 C 1171.49 4.10209 -1.80091 0
M  V30 13027 C 1173.23 4.24494 0.0225511 0
M  V30 13028 C 1171.14 5.60311 -1.89225 0
M  V30 13029 H 1170.07 0.74896 -0.087034 0
M  V30 13030 H 1172.72 1.61064 -0.879243 0
M  V30 13031 H 1171.1 3.94692 0.321642 0
M  V30 13032 H 1172.28 3.84762 -2.53564 0
M  V30 13033 H 1170.59 3.56142 -2.15758 0
M  V30 13034 H 1173.19 5.34694 -0.0250644 0
M  V30 13035 H 1173.53 4.02488 1.06344 0
M  V30 13036 H 1174.06 3.92739 -0.632541 0
M  V30 13037 H 1170.8 5.87162 -2.91412 0
M  V30 13038 H 1170.32 5.87642 -1.20154 0
M  V30 13039 H 1172 6.25306 -1.66136 0
M  V30 13040 N 1172.13 0.454803 1.50895 0
M  V30 13041 C 1173.1 -0.336293 2.26719 0
M  V30 13042 C 1174.1 -0.93464 1.30848 0
M  V30 13043 O 1175.29 -0.80636 1.54413 0
M  V30 13044 C 1172.42 -1.47744 3.07221 0
M  V30 13045 H 1173.61 0.328462 2.98096 0
M  V30 13046 H 1171.16 0.208419 1.54904 0
M  V30 13047 H 1171.9 -2.17773 2.40302 0
M  V30 13048 H 1171.68 -1.05438 3.77658 0
M  V30 13049 H 1173.17 -2.03592 3.6461 0
M  V30 13050 N 1173.61 -1.56489 0.186789 0
M  V30 13051 C 1174.56 -2.20034 -0.754164 0
M  V30 13052 C 1175.55 -1.16899 -1.22601 0
M  V30 13053 O 1176.76 -1.35064 -1.18987 0
M  V30 13054 H 1173.13 -0.705058 -0.261529 0
M  V30 13055 H 1175.11 -2.97766 -0.194418 0
M  V30 13056 C 1173.85 -2.86733 -1.9667 0
M  V30 13057 H 1173.18 -3.65831 -1.61268 0
M  V30 13058 H 1174.62 -3.34645 -2.60363 0
M  V30 13059 C 1173.08 -1.87325 -2.8002 0
M  V30 13060 O 1173.61 -1.36835 -3.77676 0
M  V30 13061 N 1171.81 -1.55738 -2.45345 0
M  V30 13062 H 1171.36 -1.9699 -1.6599 0
M  V30 13063 H 1171.32 -0.894805 -3.01398 0
M  V30 13064 N 1175.09 0.086862 -1.5736 0
M  V30 13065 C 1176.32 0.801004 -1.9044 0
M  V30 13066 C 1176.73 1.72396 -0.779513 0
M  V30 13067 O 1176.07 1.81894 0.256972 0
M  V30 13068 C 1176.13 1.66055 -3.18851 0
M  V30 13069 C 1175.8 0.908561 -4.47877 0
M  V30 13070 C 1176.79 0.234621 -5.1937 0
M  V30 13071 C 1174.48 0.8802 -4.94528 0
M  V30 13072 C 1176.47 -0.45762 -6.35755 0
M  V30 13073 C 1174.16 0.184179 -6.10822 0
M  V30 13074 C 1175.16 -0.483545 -6.81286 0
M  V30 13075 O 1174.85 -1.16839 -7.95364 0
M  V30 13076 H 1174.58 0.233794 -0.634284 0
M  V30 13077 H 1177.13 0.0660113 -2.05294 0
M  V30 13078 H 1175.36 2.43798 -3.00165 0
M  V30 13079 H 1177.05 2.252 -3.37698 0
M  V30 13080 H 1177.82 0.247938 -4.84366 0
M  V30 13081 H 1173.7 1.38938 -4.39565 0
M  V30 13082 H 1177.24 -0.979369 -6.90691 0
M  V30 13083 H 1173.14 0.168737 -6.45279 0
M  V30 13084 H 1173.9 -1.07612 -8.11395 0
M  V30 13085 N 1176.57 1.53483 0.357892 0
M  V30 13086 C 1177.98 1.43426 0.700073 0
M  V30 13087 C 1178.18 0.579493 1.92987 0
M  V30 13088 O 1177.24 0.0649086 2.52417 0
M  V30 13089 C 1178.55 2.86723 0.906099 0
M  V30 13090 C 1180.1 2.96405 1.00563 0
M  V30 13091 C 1180.58 4.4078 1.24407 0
M  V30 13092 N 1182.07 4.44243 1.3116 0
M  V30 13093 C 1182.8 5.53069 1.51333 0
M  V30 13094 N 1182.3 6.71928 1.68774 0
M  V30 13095 N 1184.09 5.40659 1.53765 0
M  V30 13096 H 1176.24 2.07559 -0.450894 0
M  V30 13097 H 1178.5 0.937649 -0.139711 0
M  V30 13098 H 1178.21 3.51622 0.0741579 0
M  V30 13099 H 1178.08 3.30827 1.81199 0
M  V30 13100 H 1180.47 2.31656 1.8281 0
M  V30 13101 H 1180.55 2.55684 0.0769512 0
M  V30 13102 H 1180.2 5.06105 0.426575 0
M  V30 13103 H 1180.13 4.7908 2.18608 0
M  V30 13104 H 1182.62 3.58587 1.19265 0
M  V30 13105 H 1182.93 7.50634 1.83762 0
M  V30 13106 H 1181.28 6.749 1.65937 0
M  V30 13107 H 1184.47 4.46764 1.39713 0
M  V30 13108 H 1184.64 6.25535 1.69146 0
M  V30 13109 N 1178.05 -0.61812 1.44973 0
M  V30 13110 C 1179.46 -1.19994 1.43033 0
M  V30 13111 C 1179.81 -1.95607 0.152422 0
M  V30 13112 O 1178.93 -2.03114 -0.746571 0
M  V30 13113 C 1179.53 -2.18269 2.59122 0
M  V30 13114 C 1178.09 -2.7185 2.60336 0
M  V30 13115 C 1177.23 -1.4707 2.35086 0
M  V30 13116 H 1180.18 -0.408034 1.53365 0
M  V30 13117 H 1180.21 -3.01113 2.32619 0
M  V30 13118 H 1179.72 -1.63208 3.52115 0
M  V30 13119 H 1177.82 -3.30878 1.7132 0
M  V30 13120 H 1177.93 -3.17001 3.59231 0
M  V30 13121 H 1176.3 -1.75658 1.84435 0
M  V30 13122 H 1177.08 -0.938928 3.30211 0
M  V30 13123 N 1179.52 -1.32087 -0.859693 0
M  V30 13124 C 1180.75 -1.25348 -1.64607 0
M  V30 13125 C 1181.17 0.179425 -1.87945 0
M  V30 13126 O 1180.52 1.11487 -1.44489 0
M  V30 13127 C 1180.57 -2.0047 -3.00822 0
M  V30 13128 O 1180.3 -3.38169 -2.7852 0
M  V30 13129 C 1181.8 -2.00694 -3.95268 0
M  V30 13130 H 1179.02 -0.432692 -0.512854 0
M  V30 13131 H 1181.56 -1.7413 -1.07234 0
M  V30 13132 H 1179.72 -1.55423 -3.54855 0
M  V30 13133 H 1180.13 -3.76553 -3.65113 0
M  V30 13134 H 1181.6 -2.57748 -4.88129 0
M  V30 13135 H 1182.08 -0.99196 -4.27851 0
M  V30 13136 H 1182.69 -2.45666 -3.47172 0
M  V30 13137 N 1181 1.07532 -1.15215 0
M  V30 13138 C 1181.93 2.1668 -0.870171 0
M  V30 13139 C 1182.91 1.69161 0.178483 0
M  V30 13140 O 1184.1 1.94172 0.0332489 0
M  V30 13141 C 1181.23 3.45464 -0.356666 0
M  V30 13142 C 1180.18 4.06424 -1.34179 0
M  V30 13143 C 1179.51 5.30266 -0.687206 0
M  V30 13144 C 1180.81 4.46666 -2.70715 0
M  V30 13145 H 1182.5 2.40526 -1.7829 0
M  V30 13146 H 1180.05 1.15598 -0.858665 0
M  V30 13147 H 1182 4.21144 -0.146947 0
M  V30 13148 H 1180.72 3.21199 0.591527 0
M  V30 13149 H 1179.38 3.32786 -1.53783 0
M  V30 13150 H 1179.03 5.0229 0.267077 0
M  V30 13151 H 1178.73 5.72009 -1.34462 0
M  V30 13152 H 1180.26 6.08653 -0.487218 0
M  V30 13153 H 1181.67 5.13483 -2.54966 0
M  V30 13154 H 1180.07 4.99355 -3.32813 0
M  V30 13155 H 1181.14 3.58123 -3.26919 0
M  V30 13156 N 1182.48 0.948665 1.2585 0
M  V30 13157 C 1183.76 0.517832 1.88621 0
M  V30 13158 C 1184.14 -1.00477 1.85654 0
M  V30 13159 O 1183.49 -1.868 1.31598 0
M  V30 13160 C 1183.7 1.08768 3.31618 0
M  V30 13161 C 1185.04 1.16089 4.08422 0
M  V30 13162 O 1186.07 1.0388 3.40716 0
M  V30 13163 O 1184.93 1.35172 5.29519 0
M  V30 13164 H 1182.02 0.169916 0.809356 0
M  V30 13165 H 1184.57 1.04171 1.33964 0
M  V30 13166 H 1183.34 2.13109 3.28177 0
M  V30 13167 H 1182.96 0.54669 3.93824 0
M  V30 13168 N 1183.96 -1.40369 0.716545 0
M  V30 13169 C 1185.19 -2.05181 0.266143 0
M  V30 13170 C 1185.6 -1.53988 -1.09239 0
M  V30 13171 O 1184.96 -0.696859 -1.68672 0
M  V30 13172 C 1185.01 -3.60713 0.238384 0
M  V30 13173 O 1184.73 -4.10018 1.54328 0
M  V30 13174 C 1186.23 -4.42701 -0.230453 0
M  V30 13175 H 1183.45 -0.66028 0.119463 0
M  V30 13176 H 1186 -1.7976 0.97502 0
M  V30 13177 H 1184.15 -3.85101 -0.421466 0
M  V30 13178 H 1184.56 -5.0422 1.4444 0
M  V30 13179 H 1186.04 -5.51642 -0.198728 0
M  V30 13180 H 1186.52 -4.20354 -1.27276 0
M  V30 13181 H 1187.12 -4.23423 0.399155 0
M  V30 13182 N 1185.44 -0.462799 -1.50652 0
M  V30 13183 C 1186.37 0.325724 -2.31217 0
M  V30 13184 C 1187.35 0.997942 -1.3775 0
M  V30 13185 O 1188.53 0.996707 -1.66671 0
M  V30 13186 C 1185.66 1.41283 -3.17264 0
M  V30 13187 C 1184.62 0.862687 -4.19216 0
M  V30 13188 C 1183.94 2.04746 -4.93946 0
M  V30 13189 C 1185.24 -0.120365 -5.22161 0
M  V30 13190 H 1186.94 -0.346666 -2.97386 0
M  V30 13191 H 1184.48 -0.168163 -1.43015 0
M  V30 13192 H 1186.44 1.97188 -3.72418 0
M  V30 13193 H 1185.16 2.11387 -2.48964 0
M  V30 13194 H 1183.82 0.325671 -3.65151 0
M  V30 13195 H 1183.47 2.73529 -4.22127 0
M  V30 13196 H 1183.17 1.68562 -5.62904 0
M  V30 13197 H 1184.69 2.61157 -5.51932 0
M  V30 13198 H 1186.1 0.349226 -5.72235 0
M  V30 13199 H 1184.5 -0.396061 -5.98792 0
M  V30 13200 H 1185.57 -1.04895 -4.73418 0
M  V30 13201 N 1186.91 1.56388 -0.195085 0
M  V30 13202 C 1187.86 2.15705 0.738595 0
M  V30 13203 C 1188.85 1.09782 1.1763 0
M  V30 13204 O 1190.04 1.35844 1.1347 0
M  V30 13205 C 1187.17 2.81994 1.95791 0
M  V30 13206 C 1186.26 3.95108 1.54111 0
M  V30 13207 N 1186.65 4.98856 0.835261 0
M  V30 13208 C 1184.94 4.06709 1.8304 0
M  V30 13209 C 1185.65 5.78317 0.626417 0
M  V30 13210 N 1184.62 5.30746 1.17513 0
M  V30 13211 H 1188.42 2.93281 0.190597 0
M  V30 13212 H 1185.94 1.62399 0.00470391 0
M  V30 13213 H 1187.93 3.22883 2.63728 0
M  V30 13214 H 1186.59 2.05906 2.51063 0
M  V30 13215 H 1187.61 5.1557 0.490732 0
M  V30 13216 H 1184.28 3.41749 2.39821 0
M  V30 13217 H 1185.67 6.71867 0.0664935 0
M  V30 13218 N 1188.39 -0.0785156 1.57404 0
M  V30 13219 C 1189.3 -1.11203 2.0657 0
M  V30 13220 C 1190.32 -1.42822 0.993872 0
M  V30 13221 O 1191.49 -1.53133 1.30814 0
M  V30 13222 C 1188.56 -2.40812 2.4942 0
M  V30 13223 C 1187.62 -2.16225 3.70871 0
M  V30 13224 C 1186.85 -3.39654 4.11668 0
M  V30 13225 O 1187.08 -4.48521 3.524 0
M  V30 13226 O 1186.01 -3.28263 5.04507 0
M  V30 13227 H 1189.84 -0.724381 2.94935 0
M  V30 13228 H 1187.42 -0.292184 1.46515 0
M  V30 13229 H 1189.3 -3.17101 2.77534 0
M  V30 13230 H 1187.98 -2.7897 1.64187 0
M  V30 13231 H 1186.89 -1.37663 3.4785 0
M  V30 13232 H 1188.22 -1.82951 4.56935 0
M  V30 13233 N 1189.87 -1.5367 -0.349747 0
M  V30 13234 C 1190.8 -1.77528 -1.4497 0
M  V30 13235 C 1191.82 -0.656412 -1.4898 0
M  V30 13236 O 1193 -0.933016 -1.52174 0
M  V30 13237 C 1190.1 -1.85445 -2.8366 0
M  V30 13238 C 1189.28 -3.15295 -3.03163 0
M  V30 13239 C 1188.34 -3.1425 -4.22059 0
M  V30 13240 O 1187.36 -3.87994 -4.16472 0
M  V30 13241 N 1188.56 -2.36181 -5.30282 0
M  V30 13242 H 1191.33 -2.72444 -1.24877 0
M  V30 13243 H 1188.89 -1.52644 -0.539586 0
M  V30 13244 H 1190.88 -1.82204 -3.61364 0
M  V30 13245 H 1189.45 -0.977436 -2.96926 0
M  V30 13246 H 1188.67 -3.31711 -2.12983 0
M  V30 13247 H 1189.96 -4.01078 -3.13072 0
M  V30 13248 H 1189.36 -1.75808 -5.37688 0
M  V30 13249 H 1187.92 -2.38744 -6.06502 0
M  V30 13250 N 1191.35 0.610423 -1.45298 0
M  V30 13251 C 1192.31 1.70324 -1.5337 0
M  V30 13252 C 1193.31 1.55393 -0.413492 0
M  V30 13253 O 1194.5 1.60512 -0.676872 0
M  V30 13254 C 1191.63 3.09572 -1.42752 0
M  V30 13255 H 1192.83 1.64535 -2.50736 0
M  V30 13256 H 1190.38 0.825906 -1.32697 0
M  V30 13257 H 1191.11 3.2094 -0.465601 0
M  V30 13258 H 1190.9 3.21817 -2.24 0
M  V30 13259 H 1192.39 3.89178 -1.51427 0
M  V30 13260 N 1192.83 1.32541 0.852676 0
M  V30 13261 C 1194.05 1.2636 1.64462 0
M  V30 13262 C 1194.48 -0.16508 1.87374 0
M  V30 13263 O 1193.83 -1.11712 1.42794 0
M  V30 13264 C 1193.88 2.03052 2.97997 0
M  V30 13265 O 1192.99 1.37967 3.88637 0
M  V30 13266 H 1192.33 0.435393 0.501327 0
M  V30 13267 H 1194.86 1.74888 1.06186 0
M  V30 13268 H 1194.87 2.133 3.47803 0
M  V30 13269 H 1193.54 3.06941 2.80642 0
M  V30 13270 H 1192.12 1.36279 3.47106 0
M  V30 13271 N 1194.3 -1.0692 1.15784 0
M  V30 13272 C 1195.27 -2.12407 0.861167 0
M  V30 13273 C 1196.27 -1.6018 -0.141031 0
M  V30 13274 O 1197.46 -1.73972 0.0891192 0
M  V30 13275 C 1194.59 -3.39693 0.286636 0
M  V30 13276 H 1195.78 -2.40157 1.79623 0
M  V30 13277 H 1193.34 -1.22881 0.965916 0
M  V30 13278 H 1194.07 -3.17587 -0.656417 0
M  V30 13279 H 1193.86 -3.78903 1.0087 0
M  V30 13280 H 1195.35 -4.17488 0.0967971 0
M  V30 13281 N 1195.78 -0.955326 -1.25345 0
M  V30 13282 C 1196.71 -0.494145 -2.28211 0
M  V30 13283 C 1197.69 0.459875 -1.63766 0
M  V30 13284 O 1198.88 0.358679 -1.90859 0
M  V30 13285 C 1196.01 0.228228 -3.46549 0
M  V30 13286 C 1194.96 -0.640601 -4.23179 0
M  V30 13287 C 1194.29 0.212553 -5.34277 0
M  V30 13288 C 1195.59 -1.91906 -4.85767 0
M  V30 13289 H 1197.28 -1.35391 -2.67039 0
M  V30 13290 H 1194.83 -0.652462 -1.2837 0
M  V30 13291 H 1196.78 0.561995 -4.17636 0
M  V30 13292 H 1195.51 1.12224 -3.06714 0
M  V30 13293 H 1194.16 -0.957462 -3.53876 0
M  V30 13294 H 1193.81 1.10634 -4.90682 0
M  V30 13295 H 1193.51 -0.365473 -5.86462 0
M  V30 13296 H 1195.04 0.541271 -6.08196 0
M  V30 13297 H 1196.45 -1.65165 -5.48993 0
M  V30 13298 H 1194.85 -2.44279 -5.48131 0
M  V30 13299 H 1195.92 -2.62173 -4.07914 0
M  V30 13300 N 1197.26 1.39987 -0.723979 0
M  V30 13301 C 1198.67 1.83606 -0.338461 0
M  V30 13302 C 1199.02 1.6051 1.12831 0
M  V30 13303 O 1198.15 1.09041 1.8692 0
M  V30 13304 C 1198.74 3.33308 -0.607533 0
M  V30 13305 C 1197.3 3.75389 -0.275632 0
M  V30 13306 C 1196.45 2.6311 -0.875699 0
M  V30 13307 H 1199.4 1.29135 -0.922483 0
M  V30 13308 H 1199.42 3.80297 0.124424 0
M  V30 13309 H 1198.93 3.50087 -1.67514 0
M  V30 13310 H 1197.03 3.64203 0.786579 0
M  V30 13311 H 1197.15 4.73185 -0.750492 0
M  V30 13312 H 1195.51 2.5289 -0.303122 0
M  V30 13313 H 1196.29 2.82698 -1.94774 0
M  V30 13314 N 1198.74 0.470782 1.50404 0
M  V30 13315 C 1199.67 -0.359838 2.26358 0
M  V30 13316 C 1200.68 -0.95735 1.31676 0
M  V30 13317 O 1201.87 -0.84581 1.57189 0
M  V30 13318 C 1198.97 -1.51864 3.02969 0
M  V30 13319 C 1198.15 -1.03397 4.25003 0
M  V30 13320 C 1197.21 -2.06679 4.83911 0
M  V30 13321 O 1196.23 -1.64754 5.44835 0
M  V30 13322 N 1197.43 -3.39484 4.70883 0
M  V30 13323 H 1200.2 0.291299 2.98281 0
M  V30 13324 H 1197.76 0.301549 1.59067 0
M  V30 13325 H 1199.75 -2.2065 3.39258 0
M  V30 13326 H 1198.32 -2.07448 2.33846 0
M  V30 13327 H 1197.54 -0.172012 3.93825 0
M  V30 13328 H 1198.83 -0.68807 5.04126 0
M  V30 13329 H 1198.23 -3.76256 4.22431 0
M  V30 13330 H 1196.78 -4.04068 5.11441 0
M  V30 13331 N 1200.22 -1.56282 0.203376 0
M  V30 13332 C 1201.13 -2.23086 -0.725922 0
M  V30 13333 C 1202.14 -1.23258 -1.22814 0
M  V30 13334 O 1203.32 -1.5602 -1.27357 0
M  V30 13335 C 1200.38 -2.88358 -1.92485 0
M  V30 13336 C 1199.45 -4.03479 -1.46639 0
M  V30 13337 C 1198.68 -4.65629 -2.60816 0
M  V30 13338 O 1198.9 -4.2672 -3.78506 0
M  V30 13339 O 1197.84 -5.54949 -2.33056 0
M  V30 13340 H 1201.66 -3.03124 -0.18694 0
M  V30 13341 H 1199.25 -1.49377 -0.0262829 0
M  V30 13342 H 1201.13 -3.29623 -2.62539 0
M  V30 13343 H 1199.8 -2.11294 -2.45228 0
M  V30 13344 H 1198.71 -3.66821 -0.734396 0
M  V30 13345 H 1200.04 -4.82232 -0.985535 0
M  V30 13346 N 1201.7 0.070167 -1.57444 0
M  V30 13347 C 1202.65 1.09016 -2.00249 0
M  V30 13348 C 1203.63 1.34387 -0.884809 0
M  V30 13349 O 1204.82 1.34661 -1.14872 0
M  V30 13350 C 1201.95 2.40344 -2.45132 0
M  V30 13351 C 1201.04 2.1824 -3.63637 0
M  V30 13352 N 1201.43 1.6607 -4.7776 0
M  V30 13353 C 1199.73 2.48706 -3.70218 0
M  V30 13354 C 1200.43 1.58819 -5.59599 0
M  V30 13355 N 1199.4 2.04928 -5.03493 0
M  V30 13356 H 1203.2 0.680143 -2.85922 0
M  V30 13357 H 1200.72 0.277212 -1.60017 0
M  V30 13358 H 1202.72 3.1418 -2.74037 0
M  V30 13359 H 1201.38 2.82061 -1.60846 0
M  V30 13360 H 1202.39 1.34911 -5.00019 0
M  V30 13361 H 1199.06 2.93778 -2.96649 0
M  V30 13362 H 1200.45 1.19323 -6.6122 0
M  V30 13363 N 1203.17 1.53854 0.341593 0
M  V30 13364 C 1204.14 1.8128 1.40251 0
M  V30 13365 C 1205.14 0.683915 1.45531 0
M  V30 13366 O 1206.33 0.952202 1.45872 0
M  V30 13367 C 1203.46 1.95658 2.79161 0
M  V30 13368 H 1204.65 2.76053 1.17195 0
M  V30 13369 H 1202.2 1.45296 0.57609 0
M  V30 13370 H 1202.94 1.03034 3.07497 0
M  V30 13371 H 1202.72 2.77788 2.76724 0
M  V30 13372 H 1204.21 2.18387 3.55945 0
M  V30 13373 N 1204.65 -0.602709 1.4562 0
M  V30 13374 C 1205.56 -1.74132 1.5721 0
M  V30 13375 C 1206.58 -1.67909 0.456347 0
M  V30 13376 O 1207.75 -1.88178 0.717714 0
M  V30 13377 C 1204.82 -3.10604 1.54032 0
M  V30 13378 C 1203.88 -3.28244 2.76685 0
M  V30 13379 C 1203.11 -4.58205 2.73649 0
M  V30 13380 O 1203.34 -5.40836 1.81254 0
M  V30 13381 O 1202.27 -4.78663 3.64919 0
M  V30 13382 H 1206.1 -1.67304 2.53462 0
M  V30 13383 H 1203.68 -0.767381 1.28186 0
M  V30 13384 H 1205.56 -3.91904 1.54885 0
M  V30 13385 H 1204.24 -3.17913 0.60934 0
M  V30 13386 H 1203.14 -2.46514 2.81393 0
M  V30 13387 H 1204.48 -3.25814 3.68925 0
M  V30 13388 N 1206.13 -1.32992 -0.845635 0
M  V30 13389 C 1207.35 -1.27231 -1.6379 0
M  V30 13390 C 1207.78 0.155141 -1.87459 0
M  V30 13391 O 1207.14 1.10953 -1.43384 0
M  V30 13392 C 1207.19 -2.04629 -2.96916 0
M  V30 13393 O 1206.29 -1.40027 -3.879 0
M  V30 13394 H 1205.63 -0.438045 -0.499011 0
M  V30 13395 H 1208.16 -1.75448 -1.05257 0
M  V30 13396 H 1208.17 -2.15141 -3.46667 0
M  V30 13397 H 1206.85 -3.08425 -2.79011 0
M  V30 13398 H 1205.42 -1.38118 -3.46378 0
M  V30 13399 N 1207.61 1.06304 -1.1635 0
M  V30 13400 C 1209.02 1.60566 -0.952652 0
M  V30 13401 C 1209.37 1.8963 0.503473 0
M  V30 13402 O 1208.49 1.66964 1.37666 0
M  V30 13403 C 1209.09 2.9172 -1.72292 0
M  V30 13404 C 1207.65 3.42684 -1.55707 0
M  V30 13405 C 1206.8 2.16579 -1.73172 0
M  V30 13406 H 1209.75 0.892563 -1.31221 0
M  V30 13407 H 1209.77 3.61126 -1.19868 0
M  V30 13408 H 1209.28 2.70535 -2.78267 0
M  V30 13409 H 1207.38 3.68929 -0.521726 0
M  V30 13410 H 1207.49 4.18018 -2.34088 0
M  V30 13411 H 1205.86 2.26795 -1.15914 0
M  V30 13412 H 1206.64 1.97877 -2.80535 0
M  V30 13413 N 1209.09 0.96196 1.24836 0
M  V30 13414 C 1210.36 0.537809 1.88061 0
M  V30 13415 C 1210.74 -0.985023 1.8671 0
M  V30 13416 O 1210.09 -1.85394 1.33572 0
M  V30 13417 C 1210.3 1.12279 3.30446 0
M  V30 13418 C 1211.65 1.20414 4.07168 0
M  V30 13419 O 1212.67 1.07488 3.39595 0
M  V30 13420 O 1211.53 1.4078 5.28056 0
M  V30 13421 H 1208.63 0.178491 0.807509 0
M  V30 13422 H 1211.17 1.05586 1.32852 0
M  V30 13423 H 1209.94 2.16578 3.25898 0
M  V30 13424 H 1209.57 0.58843 3.93222 0
M  V30 13425 N 1210.56 -1.39601 0.731392 0
M  V30 13426 C 1211.81 -2.00883 0.278168 0
M  V30 13427 C 1212.14 -1.57897 -1.13059 0
M  V30 13428 O 1211.42 -0.806203 -1.77005 0
M  V30 13429 C 1211.7 -3.58132 0.375969 0
M  V30 13430 C 1211.55 -4.11147 1.82423 0
M  V30 13431 C 1212.87 -4.39425 -0.243702 0
M  V30 13432 H 1209.99 -0.729831 0.102549 0
M  V30 13433 H 1212.63 -1.65859 0.926869 0
M  V30 13434 H 1210.78 -3.881 -0.176329 0
M  V30 13435 H 1212.46 -3.91914 2.43313 0
M  V30 13436 H 1210.7 -3.64842 2.34675 0
M  V30 13437 H 1211.37 -5.20291 1.84396 0
M  V30 13438 H 1213.85 -4.1548 0.227067 0
M  V30 13439 H 1212.72 -5.48709 -0.144907 0
M  V30 13440 H 1212.98 -4.21642 -1.32929 0
M  V30 13441 N 1212.04 -0.478751 -1.50152 0
M  V30 13442 C 1213.46 -0.133356 -1.59042 0
M  V30 13443 C 1213.66 1.36069 -1.48618 0
M  V30 13444 O 1212.71 2.13468 -1.34862 0
M  V30 13445 C 1214.03 -0.690369 -2.92668 0
M  V30 13446 C 1215.58 -0.654481 -3.06081 0
M  V30 13447 C 1216.05 -1.18917 -4.42293 0
M  V30 13448 N 1217.54 -1.14891 -4.48725 0
M  V30 13449 C 1218.28 -1.53305 -5.52526 0
M  V30 13450 N 1217.77 -1.99205 -6.63543 0
M  V30 13451 N 1219.57 -1.4486 -5.43113 0
M  V30 13452 H 1211.72 -1.45037 -1.55171 0
M  V30 13453 H 1213.98 -0.600254 -0.733757 0
M  V30 13454 H 1213.69 -1.7373 -3.05795 0
M  V30 13455 H 1213.56 -0.138227 -3.76947 0
M  V30 13456 H 1215.95 0.383564 -2.92597 0
M  V30 13457 H 1216.03 -1.24352 -2.2354 0
M  V30 13458 H 1215.67 -2.22588 -4.56527 0
M  V30 13459 H 1215.6 -0.57628 -5.23437 0
M  V30 13460 H 1218.09 -0.812344 -3.69066 0
M  V30 13461 H 1218.41 -2.26645 -7.38818 0
M  V30 13462 H 1216.75 -2.03164 -6.64642 0
M  V30 13463 H 1219.94 -1.08836 -4.55272 0
M  V30 13464 H 1220.11 -1.75123 -6.23888 0
M  V30 13465 N 1213.52 1.56172 -0.211661 0
M  V30 13466 C 1214.77 1.97648 0.421871 0
M  V30 13467 C 1215.09 1.10026 1.60995 0
M  V30 13468 O 1214.36 0.175109 1.95116 0
M  V30 13469 H 1212.94 0.729914 0.158852 0
M  V30 13470 H 1215.6 1.92542 -0.302254 0
M  V30 13471 H 1214.7 3.02834 0.754868 0
M  V30 13472 N 1215 -0.0618163 1.57479 0
M  V30 13473 C 1216.41 -0.416827 1.54061 0
M  V30 13474 C 1216.61 -1.78584 0.933277 0
M  V30 13475 O 1215.67 -2.46656 0.54009 0
M  V30 13476 C 1216.98 -0.348728 2.98671 0
M  V30 13477 C 1218.53 -0.428194 3.10057 0
M  V30 13478 C 1219.01 -0.389898 4.56337 0
M  V30 13479 N 1220.5 -0.449677 4.61012 0
M  V30 13480 C 1221.23 -0.442418 5.71691 0
M  V30 13481 N 1220.73 -0.389381 6.91705 0
M  V30 13482 N 1222.52 -0.489719 5.59963 0
M  V30 13483 H 1214.67 0.834487 1.9532 0
M  V30 13484 H 1216.94 0.314149 0.894435 0
M  V30 13485 H 1216.64 0.590738 3.46703 0
M  V30 13486 H 1216.52 -1.15511 3.59078 0
M  V30 13487 H 1218.9 -1.35808 2.61992 0
M  V30 13488 H 1218.98 0.406946 2.52542 0
M  V30 13489 H 1218.63 0.536186 5.05062 0
M  V30 13490 H 1218.56 -1.24271 5.11727 0
M  V30 13491 H 1221.05 -0.49451 3.74651 0
M  V30 13492 H 1221.36 -0.388042 7.71825 0
M  V30 13493 H 1219.71 -0.355918 6.94088 0
M  V30 13494 H 1222.9 -0.528915 4.65102 0
M  V30 13495 H 1223.07 -0.480592 6.46215 0
M  V30 13496 N 1216.48 -1.54033 -0.333429 0
M  V30 13497 C 1217.41 -1.85719 -1.4153 0
M  V30 13498 C 1218.39 -0.713144 -1.54429 0
M  V30 13499 O 1219.57 -0.965984 -1.68471 0
M  V30 13500 C 1216.7 -2.07578 -2.78439 0
M  V30 13501 C 1215.66 -3.23411 -2.80338 0
M  V30 13502 C 1214.98 -3.30622 -4.2023 0
M  V30 13503 C 1216.28 -4.6129 -2.44968 0
M  V30 13504 H 1217.98 -2.76325 -1.15261 0
M  V30 13505 H 1215.52 -1.32957 -0.55303 0
M  V30 13506 H 1217.48 -2.28329 -3.5418 0
M  V30 13507 H 1216.2 -1.13713 -3.06165 0
M  V30 13508 H 1214.86 -3.02531 -2.07052 0
M  V30 13509 H 1214.51 -2.34333 -4.45081 0
M  V30 13510 H 1214.21 -4.08466 -4.22409 0
M  V30 13511 H 1215.73 -3.53596 -4.97798 0
M  V30 13512 H 1217.14 -4.81987 -3.10421 0
M  V30 13513 H 1215.54 -5.41611 -2.58414 0
M  V30 13514 H 1216.61 -4.6421 -1.40134 0
M  V30 13515 N 1217.95 0.594978 -1.45938 0
M  V30 13516 C 1219.18 1.38482 -1.54394 0
M  V30 13517 C 1219.6 1.87222 -0.181563 0
M  V30 13518 O 1218.96 1.60869 0.836119 0
M  V30 13519 C 1219.01 2.55676 -2.54287 0
M  V30 13520 O 1218.11 3.5672 -2.06941 0
M  V30 13521 H 1217.46 0.412918 -0.519995 0
M  V30 13522 H 1219.99 0.722899 -1.91404 0
M  V30 13523 H 1220 3.02756 -2.73501 0
M  V30 13524 H 1218.67 2.19552 -3.53228 0
M  V30 13525 H 1217.25 3.16204 -1.97661 0
M  V30 13526 N 1219.43 1.33438 0.838571 0
M  V30 13527 C 1220.68 1.24665 1.59069 0
M  V30 13528 C 1221 -0.187433 1.94097 0
M  V30 13529 O 1220.27 -1.11625 1.60987 0
M  V30 13530 H 1218.85 0.45843 0.589789 0
M  V30 13531 H 1221.51 1.67161 1.00216 0
M  V30 13532 H 1220.61 1.84057 2.52051 0
M  V30 13533 N 1220.91 -1.05686 1.16912 0
M  V30 13534 C 1222.16 -1.77987 0.948875 0
M  V30 13535 C 1222.47 -1.8845 -0.524011 0
M  V30 13536 O 1223.68 -2.57442 -0.862322 0
M  V30 13537 C 1222.13 -3.19927 1.64848 0
M  V30 13538 C 1221.74 -3.1761 3.15956 0
M  V30 13539 C 1223.49 -3.96719 1.51044 0
M  V30 13540 C 1221.39 -4.54307 3.78628 0
M  V30 13541 H 1220.32 -0.667119 0.35138 0
M  V30 13542 H 1222.97 -1.18496 1.40111 0
M  V30 13543 H 1221.36 -3.79714 1.12397 0
M  V30 13544 H 1222.53 -2.67369 3.75301 0
M  V30 13545 H 1220.85 -2.54317 3.29715 0
M  V30 13546 H 1223.44 -4.97779 1.95243 0
M  V30 13547 H 1223.79 -4.13748 0.460268 0
M  V30 13548 H 1224.32 -3.43468 2.00685 0
M  V30 13549 H 1221.06 -4.42484 4.8362 0
M  V30 13550 H 1220.58 -5.04717 3.24069 0
M  V30 13551 H 1222.26 -5.23255 3.80543 0
M  V30 13552 N 1222.39 -0.968567 -1.24324 0
M  V30 13553 C 1223.3 -0.50703 -2.29055 0
M  V30 13554 C 1224.31 0.432431 -1.68541 0
M  V30 13555 O 1225.49 0.30526 -1.99073 0
M  V30 13556 C 1222.56 0.194589 -3.46153 0
M  V30 13557 C 1221.62 -0.784805 -4.22066 0
M  V30 13558 C 1220.85 -0.116574 -5.33573 0
M  V30 13559 O 1221.07 1.09492 -5.59792 0
M  V30 13560 O 1220.01 -0.809171 -5.96436 0
M  V30 13561 H 1223.83 -1.3777 -2.70653 0
M  V30 13562 H 1221.42 -0.735645 -1.30033 0
M  V30 13563 H 1223.3 0.588684 -4.17268 0
M  V30 13564 H 1221.97 1.04021 -3.06531 0
M  V30 13565 H 1220.88 -1.22938 -3.53323 0
M  V30 13566 H 1222.21 -1.59887 -4.65507 0
M  V30 13567 N 1223.87 1.39211 -0.738786 0
M  V30 13568 C 1224.78 2.34374 -0.102958 0
M  V30 13569 C 1225.79 1.58514 0.717596 0
M  V30 13570 O 1226.97 1.90786 0.645186 0
M  V30 13571 C 1224.03 3.37562 0.790733 0
M  V30 13572 C 1223.09 4.29279 -0.0425028 0
M  V30 13573 C 1222.33 5.27539 0.808628 0
M  V30 13574 O 1222.55 5.32396 2.04722 0
M  V30 13575 O 1221.48 6.0144 0.235279 0
M  V30 13576 H 1225.31 2.90412 -0.888498 0
M  V30 13577 H 1222.9 1.40803 -0.499498 0
M  V30 13578 H 1224.78 4.00783 1.30196 0
M  V30 13579 H 1223.45 2.83903 1.55502 0
M  V30 13580 H 1222.36 3.69268 -0.599335 0
M  V30 13581 H 1223.69 4.86154 -0.7691 0
M  V30 13582 N 1225.34 0.486708 1.49896 0
M  V30 13583 C 1226.76 0.141788 1.58969 0
M  V30 13584 C 1226.96 -1.35279 1.49338 0
M  V30 13585 O 1226.02 -2.1275 1.35992 0
M  V30 13586 C 1227.33 0.70588 2.92297 0
M  V30 13587 C 1228.88 0.670704 3.0573 0
M  V30 13588 C 1229.35 1.21261 4.41656 0
M  V30 13589 N 1230.84 1.17269 4.4811 0
M  V30 13590 C 1231.58 1.56233 5.51705 0
M  V30 13591 N 1231.07 2.02721 6.62477 0
M  V30 13592 N 1232.87 1.47738 5.42337 0
M  V30 13593 H 1225.02 1.45858 1.544 0
M  V30 13594 H 1227.28 0.604137 0.730563 0
M  V30 13595 H 1226.99 1.7535 3.04869 0
M  V30 13596 H 1226.86 0.158215 3.76868 0
M  V30 13597 H 1229.25 -0.368041 2.92796 0
M  V30 13598 H 1229.33 1.25535 2.22878 0
M  V30 13599 H 1228.97 2.25006 4.5534 0
M  V30 13600 H 1228.9 0.604031 5.23124 0
M  V30 13601 H 1231.39 0.831905 3.6863 0
M  V30 13602 H 1231.71 2.3056 7.37606 0
M  V30 13603 H 1230.05 2.06686 6.63556 0
M  V30 13604 H 1233.24 1.11249 4.54688 0
M  V30 13605 H 1233.42 1.78429 6.2295 0
M  V30 13606 N 1226.82 -1.56058 0.219941 0
M  V30 13607 C 1228.05 -2.02358 -0.416497 0
M  V30 13608 C 1228.46 -1.09903 -1.54007 0
M  V30 13609 O 1227.8 -0.100635 -1.83424 0
M  V30 13610 C 1227.87 -3.45 -1.01072 0
M  V30 13611 C 1227.53 -4.56994 -0.0227891 0
M  V30 13612 C 1228.53 -5.14061 0.776997 0
M  V30 13613 C 1226.21 -5.02209 0.0954981 0
M  V30 13614 C 1228.21 -6.14813 1.68179 0
M  V30 13615 C 1225.89 -6.02799 1.00383 0
M  V30 13616 C 1226.89 -6.58977 1.79552 0
M  V30 13617 O 1226.58 -7.57608 2.68858 0
M  V30 13618 H 1226.31 -0.667581 -0.106355 0
M  V30 13619 H 1228.87 -2.02677 0.333348 0
M  V30 13620 H 1227.1 -3.41745 -1.80962 0
M  V30 13621 H 1228.78 -3.74958 -1.55439 0
M  V30 13622 H 1229.55 -4.79979 0.696053 0
M  V30 13623 H 1225.43 -4.58164 -0.510599 0
M  V30 13624 H 1228.97 -6.58588 2.30017 0
M  V30 13625 H 1224.87 -6.36302 1.08579 0
M  V30 13626 H 1225.64 -7.75124 2.62915 0
M  V30 13627 N 1228.3 0.053464 -1.57509 0
M  V30 13628 C 1229.25 1.06155 -2.04939 0
M  V30 13629 C 1230.22 1.37382 -0.93357 0
M  V30 13630 O 1231.4 1.48137 -1.2025 0
M  V30 13631 C 1228.54 2.36476 -2.51343 0
M  V30 13632 C 1227.66 2.1162 -3.76618 0
M  V30 13633 C 1226.79 3.35636 -4.11731 0
M  V30 13634 C 1225.83 3.06226 -5.29993 0
M  V30 13635 N 1224.97 4.22623 -5.60655 0
M  V30 13636 H 1229.81 0.650122 -2.90822 0
M  V30 13637 H 1227.34 0.309421 -1.43809 0
M  V30 13638 H 1229.3 3.12588 -2.76306 0
M  V30 13639 H 1227.93 2.75386 -1.68411 0
M  V30 13640 H 1226.98 1.26116 -3.58886 0
M  V30 13641 H 1228.3 1.85909 -4.6286 0
M  V30 13642 H 1227.45 4.20132 -4.37692 0
M  V30 13643 H 1226.19 3.64439 -3.24092 0
M  V30 13644 H 1225.19 2.20128 -5.03809 0
M  V30 13645 H 1226.42 2.78726 -6.19265 0
M  V30 13646 H 1224.37 4.51424 -4.75976 0
M  V30 13647 H 1224.28 4.0025 -6.41355 0
M  V30 13648 H 1225.55 5.08063 -5.91178 0
M  V30 13649 N 1229.78 1.54207 0.325255 0
M  V30 13650 C 1230.69 1.86495 1.42326 0
M  V30 13651 C 1231.71 0.756718 1.56684 0
M  V30 13652 O 1232.88 1.05084 1.71812 0
M  V30 13653 C 1229.95 2.08414 2.77064 0
M  V30 13654 C 1229.01 3.32221 2.71897 0
M  V30 13655 C 1228.24 3.53085 4.00209 0
M  V30 13656 O 1228.46 2.77421 4.98391 0
M  V30 13657 O 1227.4 4.46559 4.0357 0
M  V30 13658 H 1231.22 2.79859 1.17951 0
M  V30 13659 H 1228.81 1.40091 0.519124 0
M  V30 13660 H 1230.69 2.24171 3.56827 0
M  V30 13661 H 1229.37 1.18238 3.01333 0
M  V30 13662 H 1228.27 3.21851 1.90691 0
M  V30 13663 H 1229.61 4.22449 2.52582 0
M  V30 13664 N 1231.26 -0.58723 1.46251 0
M  V30 13665 C 1232.5 -1.3476 1.51551 0
M  V30 13666 C 1232.84 -1.93499 0.16483 0
M  V30 13667 O 1232.11 -1.7622 -0.823207 0
M  V30 13668 C 1232.39 -2.48033 2.61059 0
M  V30 13669 C 1232.25 -1.94358 4.05642 0
M  V30 13670 C 1233.57 -3.50096 2.66685 0
M  V30 13671 H 1230.69 -0.48863 0.551733 0
M  V30 13672 H 1233.33 -0.660097 1.78165 0
M  V30 13673 H 1231.48 -3.06679 2.38496 0
M  V30 13674 H 1233.15 -1.40204 4.39478 0
M  V30 13675 H 1231.39 -1.25217 4.15335 0
M  V30 13676 H 1232.06 -2.76105 4.77986 0
M  V30 13677 H 1234.54 -3.01324 2.86955 0
M  V30 13678 H 1233.42 -4.26817 3.45135 0
M  V30 13679 H 1233.68 -4.07032 1.7256 0
M  V30 13680 N 1232.74 -1.33881 -0.831482 0
M  V30 13681 C 1233.7 -1.24654 -1.92339 0
M  V30 13682 C 1234.7 -0.163788 -1.59964 0
M  V30 13683 O 1235.89 -0.415829 -1.69164 0
M  V30 13684 C 1233.02 -0.922537 -3.2818 0
M  V30 13685 H 1234.21 -2.21717 -2.01944 0
M  V30 13686 H 1231.77 -1.18046 -1.02445 0
M  V30 13687 H 1232.5 0.0452872 -3.24268 0
M  V30 13688 H 1232.29 -1.70562 -3.53059 0
M  V30 13689 H 1233.78 -0.88292 -4.0816 0
M  V30 13690 N 1234.21 1.05064 -1.1747 0
M  V30 13691 C 1235.12 2.16346 -0.907286 0
M  V30 13692 C 1236.14 1.7355 0.125013 0
M  V30 13693 O 1237.32 2.01326 -0.0545551 0
M  V30 13694 C 1234.38 3.44077 -0.425681 0
M  V30 13695 C 1233.44 4.01311 -1.52473 0
M  V30 13696 C 1232.67 5.22946 -1.06601 0
M  V30 13697 O 1232.9 5.70345 0.0793329 0
M  V30 13698 O 1231.83 5.72454 -1.85958 0
M  V30 13699 H 1235.66 2.41754 -1.83817 0
M  V30 13700 H 1233.24 1.14834 -0.955693 0
M  V30 13701 H 1235.12 4.21078 -0.164689 0
M  V30 13702 H 1233.8 3.20166 0.477037 0
M  V30 13703 H 1232.71 3.25744 -1.83961 0
M  V30 13704 H 1234.04 4.29543 -2.4032 0
M  V30 13705 N 1235.69 0.975146 1.23809 0
M  V30 13706 C 1236.62 0.530389 2.27396 0
M  V30 13707 C 1237.6 -0.433763 1.64476 0
M  V30 13708 O 1238.79 -0.32827 1.91405 0
M  V30 13709 C 1235.92 -0.173066 3.46869 0
M  V30 13710 C 1234.87 0.707844 4.22106 0
M  V30 13711 C 1234.2 -0.127527 5.34548 0
M  V30 13712 C 1235.5 1.99609 4.82652 0
M  V30 13713 H 1237.19 1.39622 2.64851 0
M  V30 13714 H 1234.74 0.672802 1.27316 0
M  V30 13715 H 1236.69 -0.495481 4.18477 0
M  V30 13716 H 1235.41 -1.0733 3.0846 0
M  V30 13717 H 1234.07 1.01364 3.52308 0
M  V30 13718 H 1233.72 -1.02814 4.9238 0
M  V30 13719 H 1233.42 0.458728 5.85807 0
M  V30 13720 H 1234.95 -0.444443 6.0898 0
M  V30 13721 H 1236.36 1.73878 5.46296 0
M  V30 13722 H 1234.76 2.52969 5.44175 0
M  V30 13723 H 1235.83 2.68629 4.03691 0
M  V30 13724 N 1237.17 -1.38817 0.746158 0
M  V30 13725 C 1238.4 -2.0457 0.309605 0
M  V30 13726 C 1238.81 -1.5627 -1.05948 0
M  V30 13727 O 1238.17 -0.73248 -1.67156 0
M  V30 13728 C 1238.22 -3.60126 0.314843 0
M  V30 13729 O 1237.94 -4.06652 1.6299 0
M  V30 13730 C 1239.44 -4.4309 -0.136497 0
M  V30 13731 H 1236.66 -0.657597 0.133441 0
M  V30 13732 H 1239.21 -1.77651 1.01293 0
M  V30 13733 H 1237.36 -3.85908 -0.339685 0
M  V30 13734 H 1237.78 -5.01042 1.55103 0
M  V30 13735 H 1239.25 -5.5194 -0.0816714 0
M  V30 13736 H 1239.73 -4.22959 -1.18332 0
M  V30 13737 H 1240.33 -4.22481 0.488879 0
M  V30 13738 N 1238.65 -0.49465 -1.49636 0
M  V30 13739 C 1240.06 -0.150217 -1.58892 0
M  V30 13740 C 1240.26 1.34485 -1.50053 0
M  V30 13741 O 1239.32 2.12026 -1.37118 0
M  V30 13742 C 1240.63 -0.721372 -2.91919 0
M  V30 13743 C 1242.18 -0.686908 -3.0537 0
M  V30 13744 C 1242.66 -1.23601 -4.41006 0
M  V30 13745 N 1244.15 -1.19644 -4.47481 0
M  V30 13746 C 1244.88 -1.59157 -5.50869 0
M  V30 13747 N 1244.38 -2.06232 -6.61393 0
M  V30 13748 N 1246.17 -1.50612 -5.41546 0
M  V30 13749 H 1238.32 -1.46675 -1.53624 0
M  V30 13750 H 1240.58 -0.608003 -0.727349 0
M  V30 13751 H 1240.29 -1.76964 -3.03935 0
M  V30 13752 H 1240.16 -0.178199 -3.76779 0
M  V30 13753 H 1242.55 0.352508 -2.92987 0
M  V30 13754 H 1242.63 -1.26716 -2.22209 0
M  V30 13755 H 1242.28 -2.27418 -4.5414 0
M  V30 13756 H 1242.21 -0.631765 -5.22797 0
M  V30 13757 H 1244.7 -0.851443 -3.68183 0
M  V30 13758 H 1245.01 -2.34469 -7.36372 0
M  V30 13759 H 1243.36 -2.10202 -6.6245 0
M  V30 13760 H 1246.55 -1.13659 -4.54092 0
M  V30 13761 H 1246.72 -1.8173 -6.21995 0
M  V30 13762 N 1240.13 1.55939 -0.228214 0
M  V30 13763 C 1241.06 2.2357 0.6737 0
M  V30 13764 C 1242.04 1.20964 1.1959 0
M  V30 13765 O 1243.22 1.49568 1.23867 0
M  V30 13766 C 1240.35 2.92076 1.87906 0
M  V30 13767 C 1239.31 4.01211 1.49043 0
M  V30 13768 C 1238.63 4.57047 2.77511 0
M  V30 13769 C 1239.93 5.17914 0.67544 0
M  V30 13770 H 1241.63 2.99199 0.109806 0
M  V30 13771 H 1239.17 1.43908 0.0513732 0
M  V30 13772 H 1241.12 3.38083 2.51551 0
M  V30 13773 H 1239.85 2.13906 2.46803 0
M  V30 13774 H 1238.51 3.55945 0.877411 0
M  V30 13775 H 1238.16 3.75599 3.34566 0
M  V30 13776 H 1237.86 5.30707 2.52239 0
M  V30 13777 H 1239.38 5.05776 3.42087 0
M  V30 13778 H 1240.79 5.60261 1.21575 0
M  V30 13779 H 1239.19 5.97847 0.519536 0
M  V30 13780 H 1240.26 4.83866 -0.316495 0
M  V30 13781 N 1241.6 -0.0451101 1.57535 0
M  V30 13782 C 1243.02 -0.400463 1.54494 0
M  V30 13783 C 1243.22 -1.77584 0.952166 0
M  V30 13784 O 1242.28 -2.46069 0.566221 0
M  V30 13785 C 1243.59 -0.31703 2.99024 0
M  V30 13786 C 1245.14 -0.395284 3.10494 0
M  V30 13787 C 1245.61 -0.341475 4.56725 0
M  V30 13788 N 1247.1 -0.400755 4.61463 0
M  V30 13789 C 1247.84 -0.381757 5.72128 0
M  V30 13790 N 1247.33 -0.315995 6.92079 0
M  V30 13791 N 1249.13 -0.4303 5.60451 0
M  V30 13792 H 1241.28 0.855156 1.94424 0
M  V30 13793 H 1243.54 0.323618 0.891053 0
M  V30 13794 H 1243.25 0.627477 3.46057 0
M  V30 13795 H 1243.12 -1.11696 3.60283 0
M  V30 13796 H 1245.51 -1.33022 2.63418 0
M  V30 13797 H 1245.59 0.433709 2.52096 0
M  V30 13798 H 1245.23 0.589725 5.04465 0
M  V30 13799 H 1245.16 -1.18836 5.13016 0
M  V30 13800 H 1247.65 -0.454745 3.75154 0
M  V30 13801 H 1247.97 -0.306158 7.72193 0
M  V30 13802 H 1246.31 -0.282281 6.94427 0
M  V30 13803 H 1249.5 -0.479555 4.65637 0
M  V30 13804 H 1249.68 -0.412025 6.46689 0
M  V30 13805 N 1243.08 -1.54377 -0.317073 0
M  V30 13806 C 1244.03 -1.84214 -1.39046 0
M  V30 13807 C 1245 -0.689742 -1.51102 0
M  V30 13808 O 1246.18 -0.936809 -1.66218 0
M  V30 13809 C 1243.32 -2.08087 -2.75307 0
M  V30 13810 C 1242.44 -3.35756 -2.7183 0
M  V30 13811 C 1241.57 -3.49556 -3.9998 0
M  V30 13812 C 1240.61 -4.71076 -3.90837 0
M  V30 13813 N 1239.75 -4.81767 -5.10729 0
M  V30 13814 H 1244.59 -2.75785 -1.12902 0
M  V30 13815 H 1242.13 -1.36575 -0.546404 0
M  V30 13816 H 1244.08 -2.19921 -3.54529 0
M  V30 13817 H 1242.71 -1.19801 -2.99746 0
M  V30 13818 H 1241.77 -3.32627 -1.84563 0
M  V30 13819 H 1243.08 -4.2509 -2.60959 0
M  V30 13820 H 1242.23 -3.60967 -4.87635 0
M  V30 13821 H 1240.97 -2.58326 -4.13665 0
M  V30 13822 H 1239.98 -4.59715 -3.01566 0
M  V30 13823 H 1241.2 -5.63698 -3.78711 0
M  V30 13824 H 1239.15 -3.93455 -5.24908 0
M  V30 13825 H 1239.06 -5.65077 -5.02219 0
M  V30 13826 H 1240.33 -4.97517 -6.00081 0
M  V30 13827 N 1244.56 0.579466 -1.4656 0
M  V30 13828 C 1245.49 1.70291 -1.53406 0
M  V30 13829 C 1246.51 1.57232 -0.422116 0
M  V30 13830 O 1247.69 1.64598 -0.69064 0
M  V30 13831 C 1244.79 3.08572 -1.40131 0
M  V30 13832 C 1243.97 3.47602 -2.65502 0
M  V30 13833 C 1243.03 4.64955 -2.4638 0
M  V30 13834 O 1242.05 4.70653 -3.20116 0
M  V30 13835 N 1243.25 5.60041 -1.52756 0
M  V30 13836 H 1246.02 1.64873 -2.50274 0
M  V30 13837 H 1243.58 0.765533 -1.42658 0
M  V30 13838 H 1245.57 3.84877 -1.25106 0
M  V30 13839 H 1244.14 3.0834 -0.514322 0
M  V30 13840 H 1243.36 2.60969 -2.95446 0
M  V30 13841 H 1244.65 3.70446 -3.48779 0
M  V30 13842 H 1244.05 5.58176 -0.919587 0
M  V30 13843 H 1242.61 6.35764 -1.43693 0
M  V30 13844 N 1246.04 1.3432 0.824371 0
M  V30 13845 C 1247 1.25672 1.91675 0
M  V30 13846 C 1248 0.172269 1.59875 0
M  V30 13847 O 1249.19 0.424794 1.68941 0
M  V30 13848 C 1246.32 0.939928 3.27686 0
M  V30 13849 H 1247.52 2.22785 2.00766 0
M  V30 13850 H 1245.07 1.18587 1.01817 0
M  V30 13851 H 1245.8 -0.0280898 3.24288 0
M  V30 13852 H 1245.59 1.72432 3.5215 0
M  V30 13853 H 1247.08 0.904553 4.07686 0
M  V30 13854 N 1247.52 -1.0444 1.18026 0
M  V30 13855 C 1248.45 -2.14297 0.927314 0
M  V30 13856 C 1249.43 -1.69575 -0.13357 0
M  V30 13857 O 1250.61 -1.94191 0.0182439 0
M  V30 13858 C 1247.74 -3.44397 0.448134 0
M  V30 13859 C 1246.7 -4.02723 1.44907 0
M  V30 13860 C 1246.02 -5.28257 0.827555 0
M  V30 13861 C 1247.32 -4.39331 2.82463 0
M  V30 13862 H 1249.02 -2.35715 1.84605 0
M  V30 13863 H 1246.56 -1.13281 0.889012 0
M  V30 13864 H 1248.52 -4.20606 0.258554 0
M  V30 13865 H 1247.24 -3.22654 -0.506159 0
M  V30 13866 H 1245.9 -3.28591 1.62552 0
M  V30 13867 H 1245.55 -5.02822 -0.13381 0
M  V30 13868 H 1245.25 -5.68242 1.49581 0
M  V30 13869 H 1246.77 -6.07147 0.64842 0
M  V30 13870 H 1248.18 -5.06543 2.68491 0
M  V30 13871 H 1246.58 -4.90355 3.45936 0
M  V30 13872 H 1247.65 -3.4933 3.36299 0
M  V30 13873 N 1248.99 -0.981699 -1.2329 0
M  V30 13874 C 1249.93 -0.481042 -2.24095 0
M  V30 13875 C 1250.94 0.417818 -1.57347 0
M  V30 13876 O 1252.13 0.221746 -1.77117 0
M  V30 13877 C 1249.23 0.323324 -3.37354 0
M  V30 13878 C 1248.4 -0.568975 -4.33684 0
M  V30 13879 C 1247.46 0.181761 -5.25886 0
M  V30 13880 O 1246.49 -0.429059 -5.67581 0
M  V30 13881 N 1247.69 1.46737 -5.61648 0
M  V30 13882 H 1250.45 -1.34781 -2.67683 0
M  V30 13883 H 1248.01 -0.855117 -1.37475 0
M  V30 13884 H 1250.01 0.833934 -3.96015 0
M  V30 13885 H 1248.58 1.09111 -2.9294 0
M  V30 13886 H 1247.8 -1.2604 -3.73507 0
M  V30 13887 H 1249.08 -1.17704 -4.94998 0
M  V30 13888 H 1248.48 1.98513 -5.29725 0
M  V30 13889 H 1247.04 1.92339 -6.22775 0
M  V30 13890 N 1250.47 1.3842 -0.753509 0
M  V30 13891 C 1251.75 1.94181 -0.235142 0
M  V30 13892 C 1252.13 1.68881 1.26659 0
M  V30 13893 O 1251.48 1.02731 2.04104 0
M  V30 13894 C 1251.69 3.43998 -0.588751 0
M  V30 13895 C 1253.04 4.21044 -0.548352 0
M  V30 13896 O 1254.06 3.52279 -0.52704 0
M  V30 13897 O 1252.92 5.43631 -0.559221 0
M  V30 13898 H 1250.01 0.825536 -0.0491834 0
M  V30 13899 H 1252.56 1.47813 -0.833626 0
M  V30 13900 H 1251.33 3.55921 -1.6259 0
M  V30 13901 H 1250.95 3.97582 0.0377429 0
M  V30 13902 N 1251.95 0.502579 1.49372 0
M  V30 13903 C 1253.18 -0.0381429 2.06865 0
M  V30 13904 C 1253.59 -1.30674 1.36271 0
M  V30 13905 O 1252.95 -1.77078 0.441532 0
M  V30 13906 C 1253 -0.294068 3.60302 0
M  V30 13907 O 1252.72 0.924244 4.2824 0
M  V30 13908 C 1254.22 -0.878253 4.34513 0
M  V30 13909 H 1251.44 0.0211756 0.670666 0
M  V30 13910 H 1253.99 0.700387 1.92132 0
M  V30 13911 H 1252.14 -0.982583 3.74732 0
M  V30 13912 H 1252.56 0.688062 5.19967 0
M  V30 13913 H 1254.03 -1.0069 5.42739 0
M  V30 13914 H 1254.51 -1.87643 3.97098 0
M  V30 13915 H 1255.11 -0.227157 4.24693 0
M  V30 13916 N 1253.43 -1.55816 0.23648 0
M  V30 13917 C 1254.36 -2.23924 -0.661834 0
M  V30 13918 C 1255.34 -1.21597 -1.18946 0
M  V30 13919 O 1256.52 -1.50222 -1.23073 0
M  V30 13920 C 1253.65 -2.93069 -1.86355 0
M  V30 13921 C 1252.61 -4.01996 -1.46913 0
M  V30 13922 C 1251.93 -4.58512 -2.75083 0
M  V30 13923 C 1253.23 -5.18265 -0.647964 0
M  V30 13924 H 1254.93 -2.99253 -0.0939368 0
M  V30 13925 H 1252.47 -1.43934 -0.0437407 0
M  V30 13926 H 1254.43 -3.39412 -2.49755 0
M  V30 13927 H 1253.15 -2.15212 -2.45665 0
M  V30 13928 H 1251.81 -3.56406 -0.858522 0
M  V30 13929 H 1251.46 -3.77368 -3.3257 0
M  V30 13930 H 1251.16 -5.32037 -2.49421 0
M  V30 13931 H 1252.68 -5.07583 -3.39399 0
M  V30 13932 H 1254.1 -5.60898 -1.18602 0
M  V30 13933 H 1252.49 -5.98114 -0.487823 0
M  V30 13934 H 1253.56 -4.83691 0.342151 0
M  V30 13935 N 1254.91 0.036755 -1.57557 0
M  V30 13936 C 1255.87 1.02435 -2.05036 0
M  V30 13937 C 1256.87 1.29506 -0.953146 0
M  V30 13938 O 1258.06 1.24638 -1.217 0
M  V30 13939 C 1255.19 2.3592 -2.46079 0
M  V30 13940 H 1256.38 0.614384 -2.93539 0
M  V30 13941 H 1253.94 0.283396 -1.53709 0
M  V30 13942 H 1254.67 2.8168 -1.60708 0
M  V30 13943 H 1254.46 2.17603 -3.26177 0
M  V30 13944 H 1255.95 3.06839 -2.83266 0
M  V30 13945 N 1256.39 1.54543 0.308881 0
M  V30 13946 C 1257.32 1.87947 1.38557 0
M  V30 13947 C 1258.3 0.737622 1.53275 0
M  V30 13948 O 1259.48 0.992664 1.66913 0
M  V30 13949 C 1256.61 2.11982 2.75102 0
M  V30 13950 C 1255.57 3.2783 2.75158 0
M  V30 13951 C 1254.89 3.37266 4.14917 0
M  V30 13952 C 1256.19 4.65129 2.37598 0
M  V30 13953 H 1257.89 2.78123 1.1085 0
M  V30 13954 H 1255.43 1.3382 0.531808 0
M  V30 13955 H 1257.38 2.33935 3.50503 0
M  V30 13956 H 1256.11 1.18569 3.04317 0
M  V30 13957 H 1254.77 3.05787 2.02212 0
M  V30 13958 H 1254.42 2.41384 4.41296 0
M  V30 13959 H 1254.12 4.15135 4.15857 0
M  V30 13960 H 1255.64 3.61471 4.92109 0
M  V30 13961 H 1257.05 4.86865 3.02714 0
M  V30 13962 H 1255.45 5.45653 2.49765 0
M  V30 13963 H 1256.52 4.6638 1.32731 0
M  V30 13964 N 1257.86 -0.571685 1.46866 0
M  V30 13965 C 1259.09 -1.35327 1.56109 0
M  V30 13966 C 1259.5 -1.88086 0.20504 0
M  V30 13967 O 1258.84 -1.64896 -0.809626 0
M  V30 13968 C 1258.91 -2.56939 2.51441 0
M  V30 13969 C 1258.57 -2.2557 3.97451 0
M  V30 13970 C 1259.57 -1.83737 4.86351 0
M  V30 13971 C 1257.25 -2.37375 4.42672 0
M  V30 13972 C 1259.25 -1.54118 6.18487 0
M  V30 13973 C 1256.93 -2.07368 5.7484 0
M  V30 13974 C 1257.93 -1.65806 6.62569 0
M  V30 13975 O 1257.62 -1.36173 7.92283 0
M  V30 13976 H 1257.35 -0.419368 0.530194 0
M  V30 13977 H 1259.91 -0.700859 1.93073 0
M  V30 13978 H 1258.14 -3.25023 2.09517 0
M  V30 13979 H 1259.82 -3.19012 2.5097 0
M  V30 13980 H 1260.59 -1.74122 4.52666 0
M  V30 13981 H 1256.47 -2.68686 3.74605 0
M  V30 13982 H 1260.01 -1.21603 6.8692 0
M  V30 13983 H 1255.91 -2.16611 6.08071 0
M  V30 13984 H 1256.68 -1.49926 8.04652 0
M  V30 13985 N 1259.34 -1.34755 -0.817236 0
M  V30 13986 C 1260.29 -1.26801 -1.92848 0
M  V30 13987 C 1261.26 -0.142077 -1.65491 0
M  V30 13988 O 1262.44 -0.324006 -1.88029 0
M  V30 13989 C 1259.58 -1.03513 -3.2921 0
M  V30 13990 C 1258.7 -2.24932 -3.68822 0
M  V30 13991 C 1257.83 -1.94881 -4.94161 0
M  V30 13992 C 1256.87 -3.12411 -5.2637 0
M  V30 13993 N 1256.01 -2.82207 -6.42887 0
M  V30 13994 H 1260.85 -2.21832 -1.98983 0
M  V30 13995 H 1258.38 -1.10284 -0.973439 0
M  V30 13996 H 1260.34 -0.88047 -4.07803 0
M  V30 13997 H 1258.97 -0.121478 -3.22571 0
M  V30 13998 H 1258.02 -2.51299 -2.85575 0
M  V30 13999 H 1259.34 -3.12726 -3.88592 0
M  V30 14000 H 1258.49 -1.76184 -5.80555 0
M  V30 14001 H 1257.23 -1.04355 -4.76405 0
M  V30 14002 H 1256.23 -3.31698 -4.3847 0
M  V30 14003 H 1257.46 -4.03724 -5.46062 0
M  V30 14004 H 1255.41 -1.94263 -6.26576 0
M  V30 14005 H 1255.32 -3.63534 -6.62857 0
M  V30 14006 H 1256.59 -2.67026 -7.32337 0
M  V30 14007 N 1260.82 1.03812 -1.18578 0
M  V30 14008 C 1261.75 2.11436 -0.858502 0
M  V30 14009 C 1262.73 1.61594 0.180604 0
M  V30 14010 O 1263.91 1.88408 0.058995 0
M  V30 14011 C 1261.04 3.37514 -0.283154 0
M  V30 14012 C 1260.09 4.0621 -1.29985 0
M  V30 14013 S 1260.92 4.52936 -2.85673 0
M  V30 14014 C 1262.08 5.82245 -2.29656 0
M  V30 14015 H 1262.31 2.38871 -1.76997 0
M  V30 14016 H 1259.84 1.16617 -1.01192 0
M  V30 14017 H 1261.8 4.10478 0.0422898 0
M  V30 14018 H 1260.46 3.08189 0.60647 0
M  V30 14019 H 1259.65 4.96845 -0.84621 0
M  V30 14020 H 1259.26 3.39374 -1.57166 0
M  V30 14021 H 1261.55 6.56321 -1.68074 0
M  V30 14022 H 1262.49 6.32375 -3.18602 0
M  V30 14023 H 1262.9 5.37472 -1.72581 0
M  V30 14024 N 1262.3 0.988223 1.22768 0
M  V30 14025 C 1263.54 0.661461 1.91392 0
M  V30 14026 C 1263.87 -0.805942 1.77016 0
M  V30 14027 O 1263.13 -1.5978 1.12999 0
M  V30 14028 C 1263.43 1.00744 3.42907 0
M  V30 14029 C 1263.09 2.46634 3.77469 0
M  V30 14030 C 1261.75 2.86503 3.86613 0
M  V30 14031 C 1264.11 3.41217 3.9398 0
M  V30 14032 C 1261.43 4.19954 4.09702 0
M  V30 14033 C 1263.79 4.74321 4.18572 0
M  V30 14034 C 1262.45 5.13938 4.25939 0
M  V30 14035 H 1261.72 0.242046 0.700353 0
M  V30 14036 H 1264.37 1.24354 1.45631 0
M  V30 14037 H 1262.67 0.34338 3.90292 0
M  V30 14038 H 1264.37 0.732714 3.94249 0
M  V30 14039 H 1260.96 2.14729 3.70931 0
M  V30 14040 H 1265.14 3.11589 3.86298 0
M  V30 14041 H 1260.4 4.50243 4.13631 0
M  V30 14042 H 1264.57 5.47561 4.30291 0
M  V30 14043 H 1262.2 6.17364 4.43583 0
M  V30 14044 N 1263.78 -1.38018 0.760839 0
M  V30 14045 C 1265 -2.04757 0.330038 0
M  V30 14046 C 1265.43 -1.57009 -1.03585 0
M  V30 14047 O 1264.78 -0.725349 -1.66158 0
M  V30 14048 C 1264.83 -3.58696 0.370082 0
M  V30 14049 O 1263.94 -4.07507 -0.633361 0
M  V30 14050 H 1263.28 -0.648023 0.144782 0
M  V30 14051 H 1265.81 -1.7655 1.03399 0
M  V30 14052 H 1265.82 -4.07387 0.223515 0
M  V30 14053 H 1264.49 -3.92806 1.36661 0
M  V30 14054 H 1263.07 -3.70165 -0.45081 0
M  V30 14055 N 1265.25 -0.510493 -1.49103 0
M  V30 14056 C 1266.16 0.267176 -2.33074 0
M  V30 14057 C 1267.18 0.958117 -1.45245 0
M  V30 14058 O 1268.36 0.937399 -1.78255 0
M  V30 14059 C 1265.42 1.31212 -3.20911 0
M  V30 14060 C 1264.48 0.633613 -4.24598 0
M  V30 14061 C 1263.71 1.62878 -5.08239 0
M  V30 14062 O 1263.94 2.85958 -4.93543 0
M  V30 14063 O 1262.87 1.17887 -5.90242 0
M  V30 14064 H 1266.7 -0.420384 -3.00776 0
M  V30 14065 H 1264.28 -0.271683 -1.46909 0
M  V30 14066 H 1266.16 1.91647 -3.75299 0
M  V30 14067 H 1264.84 1.98244 -2.55892 0
M  V30 14068 H 1263.75 -0.0107246 -3.74098 0
M  V30 14069 H 1265.08 0.0055777 -4.922 0
M  V30 14070 N 1266.73 1.55688 -0.24474 0
M  V30 14071 C 1267.69 2.20014 0.642382 0
M  V30 14072 C 1268.69 1.16877 1.10437 0
M  V30 14073 O 1269.88 1.41972 1.00943 0
M  V30 14074 C 1267.02 2.84198 1.88267 0
M  V30 14075 H 1268.21 2.9979 0.0811937 0
M  V30 14076 H 1265.76 1.56299 0.00480917 0
M  V30 14077 H 1266.5 2.08354 2.48514 0
M  V30 14078 H 1266.28 3.59747 1.55963 0
M  V30 14079 H 1267.77 3.33434 2.5142 0
M  V30 14080 N 1268.21 -0.0283989 1.57574 0
M  V30 14081 C 1269.49 -0.754527 1.80461 0
M  V30 14082 C 1269.87 -1.93539 0.842966 0
M  V30 14083 O 1269.21 -2.28212 -0.114714 0
M  V30 14084 C 1269.42 -1.18694 3.28196 0
M  V30 14085 C 1270.77 -1.60257 3.93196 0
M  V30 14086 O 1271.8 -1.2815 3.32349 0
M  V30 14087 O 1270.66 -2.19853 5.00327 0
M  V30 14088 H 1267.75 -0.364936 0.742126 0
M  V30 14089 H 1270.3 -0.00512589 1.69699 0
M  V30 14090 H 1269.07 -0.34398 3.89785 0
M  V30 14091 H 1268.69 -1.99633 3.43849 0
M  V30 14092 N 1269.69 -1.54705 -0.300681 0
M  V30 14093 C 1270.65 -1.84934 -1.35395 0
M  V30 14094 C 1271.65 -0.72226 -1.43666 0
M  V30 14095 O 1272.84 -0.990543 -1.43296 0
M  V30 14096 C 1269.97 -2.02991 -2.73875 0
M  V30 14097 H 1271.17 -2.79063 -1.09835 0
M  V30 14098 H 1268.72 -1.46772 -0.537365 0
M  V30 14099 H 1269.45 -1.11151 -3.04657 0
M  V30 14100 H 1269.24 -2.85027 -2.69262 0
M  V30 14101 H 1270.73 -2.27747 -3.5003 0
M  V30 14102 N 1271.17 0.563888 -1.47167 0
M  V30 14103 C 1272.41 1.33221 -1.55021 0
M  V30 14104 C 1272.77 1.90904 -0.204835 0
M  V30 14105 O 1273.97 2.68334 -0.158201 0
M  V30 14106 C 1272.24 2.41757 -2.63227 0
M  V30 14107 S 1273.8 3.28765 -2.90619 0
M  V30 14108 H 1270.62 0.453623 -0.547491 0
M  V30 14109 H 1273.22 0.646265 -1.84509 0
M  V30 14110 H 1271.93 1.97803 -3.59586 0
M  V30 14111 H 1271.46 3.151 -2.35532 0
M  V30 14112 H 1273.47 4.41065 -2.27323 0
M  V30 14113 N 1272.64 1.35187 0.810078 0
M  V30 14114 C 1273.55 1.29926 1.95337 0
M  V30 14115 C 1274.57 0.204748 1.72791 0
M  V30 14116 O 1275.75 0.433507 1.96679 0
M  V30 14117 C 1272.81 1.06736 3.29861 0
M  V30 14118 C 1271.87 2.25466 3.65326 0
M  V30 14119 C 1271.11 2.03373 4.93432 0
M  V30 14120 O 1271.33 0.998419 5.61594 0
M  V30 14121 O 1270.26 2.90648 5.27075 0
M  V30 14122 H 1274.09 2.26137 2.02721 0
M  V30 14123 H 1271.67 1.15523 0.947354 0
M  V30 14124 H 1273.56 0.956367 4.10404 0
M  V30 14125 H 1272.23 0.135735 3.23415 0
M  V30 14126 H 1271.14 2.42129 2.85175 0
M  V30 14127 H 1272.47 3.17063 3.76473 0
M  V30 14128 N 1274.12 -1.03182 1.19127 0
M  V30 14129 C 1275.05 -2.13301 0.94999 0
M  V30 14130 C 1276.03 -1.69707 -0.115577 0
M  V30 14131 O 1277.22 -1.94161 0.0388395 0
M  V30 14132 C 1274.35 -3.43902 0.484637 0
M  V30 14133 C 1273.3 -4.01164 1.4917 0
M  V30 14134 C 1272.63 -5.2735 0.883537 0
M  V30 14135 C 1273.93 -4.36311 2.87107 0
M  V30 14136 H 1275.62 -2.33743 1.87095 0
M  V30 14137 H 1273.17 -1.12332 0.900977 0
M  V30 14138 H 1275.12 -4.20308 0.30315 0
M  V30 14139 H 1273.85 -3.23173 -0.471909 0
M  V30 14140 H 1272.5 -3.26849 1.66028 0
M  V30 14141 H 1272.15 -5.02936 -0.0804712 0
M  V30 14142 H 1271.85 -5.66624 1.55599 0
M  V30 14143 H 1273.38 -6.06425 0.71278 0
M  V30 14144 H 1274.79 -5.03666 2.73848 0
M  V30 14145 H 1273.19 -4.86659 3.51117 0
M  V30 14146 H 1274.26 -3.45743 3.39985 0
M  V30 14147 N 1275.6 -0.99472 -1.22242 0
M  V30 14148 C 1276.85 -0.682256 -1.91616 0
M  V30 14149 C 1277.2 0.777397 -1.75995 0
M  V30 14150 O 1276.49 1.55509 -1.11926 0
M  V30 14151 C 1276.69 -1.02561 -3.42368 0
M  V30 14152 C 1276.52 -2.5171 -3.72656 0
M  V30 14153 C 1275.29 -3.18144 -3.92571 0
M  V30 14154 C 1277.49 -3.49835 -3.76988 0
M  V30 14155 N 1275.47 -4.5675 -4.10186 0
M  V30 14156 C 1276.84 -4.73907 -3.99765 0
M  V30 14157 C 1278.89 -3.44116 -3.59845 0
M  V30 14158 C 1277.6 -5.92957 -4.07179 0
M  V30 14159 C 1279.62 -4.62545 -3.68519 0
M  V30 14160 C 1278.98 -5.85417 -3.91748 0
M  V30 14161 H 1275.08 -0.300961 -0.721766 0
M  V30 14162 H 1277.67 -1.2751 -1.47137 0
M  V30 14163 H 1275.84 -0.461327 -3.85651 0
M  V30 14164 H 1277.57 -0.66895 -3.99133 0
M  V30 14165 H 1274.33 -2.68608 -3.9006 0
M  V30 14166 H 1274.75 -5.28649 -4.22917 0
M  V30 14167 H 1279.39 -2.50134 -3.40871 0
M  V30 14168 H 1277.11 -6.87341 -4.24956 0
M  V30 14169 H 1280.7 -4.59711 -3.56591 0
M  V30 14170 H 1279.58 -6.75525 -3.98291 0
M  V30 14171 N 1277.08 1.37613 -0.768148 0
M  V30 14172 C 1278.33 1.99023 -0.327543 0
M  V30 14173 C 1278.64 1.61669 1.10103 0
M  V30 14174 O 1279.85 2.16155 1.64284 0
M  V30 14175 C 1278.3 3.55906 -0.534674 0
M  V30 14176 C 1277.91 4.02201 -1.97327 0
M  V30 14177 C 1279.65 4.24208 -0.157512 0
M  V30 14178 C 1277.56 5.51781 -2.12819 0
M  V30 14179 H 1276.49 0.744595 -0.118722 0
M  V30 14180 H 1279.14 1.5719 -0.946764 0
M  V30 14181 H 1277.52 3.95701 0.153951 0
M  V30 14182 H 1278.7 3.73661 -2.69655 0
M  V30 14183 H 1277.01 3.46671 -2.30669 0
M  V30 14184 H 1279.61 5.34107 -0.251824 0
M  V30 14185 H 1279.95 4.06636 0.89177 0
M  V30 14186 H 1280.49 3.89703 -0.798546 0
M  V30 14187 H 1277.23 5.74274 -3.16053 0
M  V30 14188 H 1276.75 5.82017 -1.4497 0
M  V30 14189 H 1278.42 6.17697 -1.92508 0
M  V30 14190 N 1278.56 0.518393 1.4883 0
M  V30 14191 C 1279.83 -0.0837498 1.95421 0
M  V30 14192 C 1280.21 -1.52435 1.46037 0
M  V30 14193 O 1279.56 -2.18093 0.681736 0
M  V30 14194 C 1279.77 0.0215333 3.48993 0
M  V30 14195 C 1281.12 -0.143615 4.24357 0
M  V30 14196 O 1282.14 -0.0528223 3.56161 0
M  V30 14197 O 1281 -0.332231 5.45489 0
M  V30 14198 H 1278.1 -0.0857132 0.822546 0
M  V30 14199 H 1280.64 0.582169 1.59402 0
M  V30 14200 H 1279.41 1.02549 3.77623 0
M  V30 14201 H 1279.04 -0.683756 3.91677 0
M  V30 14202 N 1280.03 -1.55556 0.252993 0
M  V30 14203 C 1280.94 -2.25283 -0.654581 0
M  V30 14204 C 1281.96 -1.27103 -1.18831 0
M  V30 14205 O 1283.14 -1.59993 -1.22329 0
M  V30 14206 C 1280.2 -2.94336 -1.83214 0
M  V30 14207 C 1279.26 -4.0794 -1.33728 0
M  V30 14208 C 1278.5 -4.73691 -2.45871 0
M  V30 14209 O 1278.72 -4.38545 -3.64738 0
M  V30 14210 O 1277.65 -5.62083 -2.15283 0
M  V30 14211 H 1281.48 -3.03565 -0.0904091 0
M  V30 14212 H 1279.06 -1.49385 0.0212535 0
M  V30 14213 H 1280.95 -3.37808 -2.5192 0
M  V30 14214 H 1279.62 -2.18989 -2.38381 0
M  V30 14215 H 1278.53 -3.68971 -0.617323 0
M  V30 14216 H 1279.86 -4.85124 -0.831617 0
M  V30 14217 N 1281.51 0.0200419 -1.57587 0
M  V30 14218 C 1282.46 1.01784 -2.07144 0
M  V30 14219 C 1283.43 1.3537 -0.962501 0
M  V30 14220 O 1284.61 1.45553 -1.23365 0
M  V30 14221 C 1281.75 2.31091 -2.56302 0
M  V30 14222 C 1280.87 2.03584 -3.81022 0
M  V30 14223 C 1280 3.26827 -4.18757 0
M  V30 14224 C 1279.04 2.94915 -5.36369 0
M  V30 14225 N 1278.18 4.10636 -5.69493 0
M  V30 14226 H 1283.02 0.588288 -2.92136 0
M  V30 14227 H 1280.56 0.278848 -1.44433 0
M  V30 14228 H 1282.51 3.06656 -2.82874 0
M  V30 14229 H 1281.14 2.71752 -1.74215 0
M  V30 14230 H 1280.2 1.18475 -3.6148 0
M  V30 14231 H 1281.51 1.76049 -4.66699 0
M  V30 14232 H 1280.66 4.10753 -4.46505 0
M  V30 14233 H 1279.4 3.57483 -3.31749 0
M  V30 14234 H 1278.41 2.09392 -5.08365 0
M  V30 14235 H 1279.63 2.65528 -6.25037 0
M  V30 14236 H 1277.58 4.41226 -4.85444 0
M  V30 14237 H 1277.49 3.86556 -6.497 0
M  V30 14238 H 1278.76 4.95409 -6.01822 0
M  V30 14239 N 1282.99 1.54862 0.292472 0
M  V30 14240 C 1283.9 1.89472 1.38339 0
M  V30 14241 C 1284.92 0.789783 1.55043 0
M  V30 14242 O 1286.09 1.08705 1.69544 0
M  V30 14243 C 1283.16 2.14244 2.72581 0
M  V30 14244 C 1282.22 3.37913 2.64789 0
M  V30 14245 C 1281.45 3.61494 3.92629 0
M  V30 14246 O 1281.67 2.87931 4.92394 0
M  V30 14247 O 1280.61 4.55019 3.94007 0
M  V30 14248 H 1284.43 2.82298 1.11989 0
M  V30 14249 H 1282.02 1.41161 0.489291 0
M  V30 14250 H 1283.9 2.31689 3.51991 0
M  V30 14251 H 1282.58 1.24603 2.98757 0
M  V30 14252 H 1281.48 3.25823 1.83821 0
M  V30 14253 H 1282.82 4.27711 2.43565 0
M  V30 14254 N 1284.47 -0.556076 1.47464 0
M  V30 14255 C 1285.4 -1.67829 1.56096 0
M  V30 14256 C 1286.41 -1.56541 0.447077 0
M  V30 14257 O 1287.6 -1.63478 0.716739 0
M  V30 14258 C 1284.7 -3.06303 1.45023 0
M  V30 14259 C 1283.88 -3.43334 2.70999 0
M  V30 14260 C 1282.93 -4.60976 2.53746 0
M  V30 14261 O 1281.96 -4.65501 3.27564 0
M  V30 14262 N 1283.16 -5.5754 1.61647 0
M  V30 14263 H 1285.93 -1.6087 2.52865 0
M  V30 14264 H 1283.49 -0.74274 1.43857 0
M  V30 14265 H 1285.48 -3.82838 1.31214 0
M  V30 14266 H 1284.05 -3.07483 0.563311 0
M  V30 14267 H 1283.27 -2.56236 2.99561 0
M  V30 14268 H 1284.56 -3.64851 3.54629 0
M  V30 14269 H 1283.96 -5.56642 1.00827 0
M  V30 14270 H 1282.51 -6.33397 1.53789 0
M  V30 14271 N 1285.95 -1.35615 -0.802897 0
M  V30 14272 C 1287.19 -1.30293 -1.5619 0
M  V30 14273 C 1287.55 0.120656 -1.92021 0
M  V30 14274 O 1286.84 1.07195 -1.58807 0
M  V30 14275 C 1287.04 -2.14653 -2.8576 0
M  V30 14276 C 1286.86 -3.65072 -2.62589 0
M  V30 14277 C 1285.63 -4.34294 -2.58295 0
M  V30 14278 C 1287.83 -4.58639 -2.32712 0
M  V30 14279 N 1285.81 -5.70437 -2.2688 0
M  V30 14280 C 1287.19 -5.82931 -2.11168 0
M  V30 14281 C 1289.24 -4.47343 -2.18606 0
M  V30 14282 C 1287.94 -6.97196 -1.76946 0
M  V30 14283 C 1289.97 -5.61462 -1.85781 0
M  V30 14284 C 1289.33 -6.84784 -1.65075 0
M  V30 14285 H 1285.43 -0.532038 -0.573114 0
M  V30 14286 H 1288.01 -1.70533 -0.939498 0
M  V30 14287 H 1286.19 -1.76679 -3.45889 0
M  V30 14288 H 1287.92 -2.00823 -3.51358 0
M  V30 14289 H 1284.67 -3.86947 -2.73073 0
M  V30 14290 H 1285.1 -6.42302 -2.13956 0
M  V30 14291 H 1289.74 -3.52599 -2.33311 0
M  V30 14292 H 1287.46 -7.91904 -1.60979 0
M  V30 14293 H 1291.04 -5.54677 -1.7557 0
M  V30 14294 H 1289.92 -7.71594 -1.40046 0
M  V30 14295 N 1287.43 1.02549 -1.19673 0
M  V30 14296 C 1288.36 2.12794 -0.961289 0
M  V30 14297 C 1289.34 1.69766 0.106575 0
M  V30 14298 O 1290.52 1.94138 -0.0491358 0
M  V30 14299 C 1287.65 3.4364 -0.502868 0
M  V30 14300 C 1286.61 4.00367 -1.51296 0
M  V30 14301 C 1285.93 5.26874 -0.911491 0
M  V30 14302 C 1287.23 4.34782 -2.89416 0
M  V30 14303 H 1288.93 2.32748 -1.88331 0
M  V30 14304 H 1286.47 1.11852 -0.906922 0
M  V30 14305 H 1288.42 4.20141 -0.325436 0
M  V30 14306 H 1287.15 3.23418 0.454764 0
M  V30 14307 H 1285.81 3.25964 -1.67759 0
M  V30 14308 H 1285.46 5.02971 0.0537982 0
M  V30 14309 H 1285.16 5.65791 -1.58602 0
M  V30 14310 H 1286.68 6.06039 -0.74493 0
M  V30 14311 H 1288.09 5.02207 -2.76516 0
M  V30 14312 H 1286.49 4.8479 -3.53693 0
M  V30 14313 H 1287.56 3.43935 -3.41814 0
M  V30 14314 N 1288.9 1.00119 1.21713 0
M  V30 14315 C 1289.85 0.551452 2.25969 0
M  V30 14316 C 1290.85 -0.402075 1.64559 0
M  V30 14317 O 1292.05 -0.273685 1.77907 0
M  V30 14318 H 1288.43 0.159968 0.734789 0
M  V30 14319 H 1290.4 1.44201 2.61244 0
M  V30 14320 C 1289.15 -0.109992 3.47526 0
M  V30 14321 H 1288.47 0.614686 3.95046 0
M  V30 14322 H 1289.91 -0.388007 4.22221 0
M  V30 14323 C 1288.37 -1.34798 3.08757 0
M  V30 14324 O 1288.9 -2.44266 3.189 0
M  V30 14325 N 1287.1 -1.2263 2.63458 0
M  V30 14326 H 1286.65 -0.335571 2.55405 0
M  V30 14327 H 1286.61 -2.05565 2.37887 0
M  V30 14328 N 1290.38 -1.37203 0.775435 0
M  V30 14329 C 1291.33 -2.32102 0.152051 0
M  V30 14330 C 1292.32 -1.55117 -0.680806 0
M  V30 14331 O 1293.53 -1.70486 -0.577455 0
M  V30 14332 H 1289.9 -0.751386 0.0303853 0
M  V30 14333 H 1291.88 -2.82259 0.968121 0
M  V30 14334 C 1290.62 -3.40378 -0.709788 0
M  V30 14335 H 1289.95 -3.99723 -0.0782879 0
M  V30 14336 H 1291.39 -4.09134 -1.11288 0
M  V30 14337 C 1289.85 -2.80769 -1.862 0
M  V30 14338 O 1290.38 -2.71813 -2.95771 0
M  V30 14339 N 1288.58 -2.38259 -1.66376 0
M  V30 14340 H 1288.13 -2.45743 -0.772531 0
M  V30 14341 H 1288.09 -1.98721 -2.43634 0
M  V30 14342 N 1291.86 -0.526279 -1.48553 0
M  V30 14343 C 1292.79 0.2857 -2.26404 0
M  V30 14344 C 1293.77 0.948104 -1.32098 0
M  V30 14345 O 1294.95 0.973228 -1.61433 0
M  V30 14346 C 1292.08 1.40432 -3.08215 0
M  V30 14347 C 1291.13 0.853705 -4.17869 0
M  V30 14348 S 1291.96 -0.275518 -5.34791 0
M  V30 14349 C 1293.12 0.845667 -6.20161 0
M  V30 14350 H 1293.35 -0.375004 -2.94925 0
M  V30 14351 H 1290.88 -0.311999 -1.51215 0
M  V30 14352 H 1292.84 2.04513 -3.55928 0
M  V30 14353 H 1291.5 2.03673 -2.39115 0
M  V30 14354 H 1290.69 1.69278 -4.74722 0
M  V30 14355 H 1290.3 0.289659 -3.72877 0
M  V30 14356 H 1292.59 1.74517 -6.54637 0
M  V30 14357 H 1293.53 0.315189 -7.07398 0
M  V30 14358 H 1293.94 1.1244 -5.53188 0
M  V30 14359 N 1293.34 1.5542 -0.261239 0
M  V30 14360 C 1294.27 2.19334 0.665214 0
M  V30 14361 C 1295.28 1.17388 1.128 0
M  V30 14362 O 1296.47 1.44183 1.0523 0
M  V30 14363 C 1293.57 2.79425 1.91768 0
M  V30 14364 C 1292.74 4.06929 1.60399 0
M  V30 14365 C 1291.8 4.51199 2.70751 0
M  V30 14366 O 1290.83 5.17272 2.37526 0
M  V30 14367 N 1292.03 4.20179 4.00537 0
M  V30 14368 H 1294.8 2.99467 0.118262 0
M  V30 14369 H 1292.36 1.61693 -0.0817727 0
M  V30 14370 H 1294.35 3.05992 2.64861 0
M  V30 14371 H 1292.92 2.03366 2.37405 0
M  V30 14372 H 1292.14 3.87798 0.707559 0
M  V30 14373 H 1293.43 4.9003 1.36924 0
M  V30 14374 H 1292.83 3.67164 4.30357 0
M  V30 14375 H 1291.38 4.51549 4.7005 0
M  V30 14376 N 1294.82 -0.0116844 1.57596 0
M  V30 14377 C 1296.06 -0.698089 1.89234 0
M  V30 14378 C 1296.38 -1.75581 0.862016 0
M  V30 14379 O 1297.58 -2.49602 1.06822 0
M  V30 14380 C 1296.04 -1.29277 3.3588 0
M  V30 14381 C 1295.65 -0.27049 4.47183 0
M  V30 14382 C 1297.39 -1.95805 3.76644 0
M  V30 14383 C 1295.3 -0.874502 5.84899 0
M  V30 14384 H 1294.23 -0.264495 0.706087 0
M  V30 14385 H 1296.88 0.0469451 1.8344 0
M  V30 14386 H 1295.26 -2.08809 3.36474 0
M  V30 14387 H 1296.44 0.499381 4.58086 0
M  V30 14388 H 1294.75 0.293676 4.15363 0
M  V30 14389 H 1297.35 -2.41879 4.76863 0
M  V30 14390 H 1297.69 -2.78366 3.09545 0
M  V30 14391 H 1298.22 -1.23023 3.78299 0
M  V30 14392 H 1294.96 -0.0879263 6.55441 0
M  V30 14393 H 1294.48 -1.61381 5.77682 0
M  V30 14394 H 1296.16 -1.37665 6.32185 0
M  V30 14395 N 1296.29 -1.55015 -0.284256 0
M  V30 14396 C 1297.7 -1.65915 -0.856104 0
M  V30 14397 C 1298.06 -0.578758 -1.8747 0
M  V30 14398 O 1297.18 0.281733 -2.14558 0
M  V30 14399 C 1297.78 -3.0077 -1.55957 0
M  V30 14400 C 1296.33 -3.13735 -2.0796 0
M  V30 14401 C 1295.48 -2.61669 -0.917849 0
M  V30 14402 H 1298.43 -1.58583 -0.0608587 0
M  V30 14403 H 1298.45 -2.9313 -2.42601 0
M  V30 14404 H 1297.97 -3.79382 -0.81798 0
M  V30 14405 H 1296.07 -2.39875 -2.85115 0
M  V30 14406 H 1296.18 -4.20138 -2.30263 0
M  V30 14407 H 1294.54 -2.18542 -1.3081 0
M  V30 14408 H 1295.33 -3.42774 -0.189946 0
M  V30 14409 N 1297.77 0.548248 -1.47757 0
M  V30 14410 C 1298.68 1.68178 -1.63565 0
M  V30 14411 C 1299.7 1.661 -0.518351 0
M  V30 14412 O 1300.87 1.85384 -0.787061 0
M  V30 14413 C 1297.94 3.04673 -1.65454 0
M  V30 14414 C 1297 3.17749 -2.88677 0
M  V30 14415 C 1296.23 4.47733 -2.90466 0
M  V30 14416 O 1296.46 5.33736 -2.01201 0
M  V30 14417 O 1295.39 4.64789 -3.82433 0
M  V30 14418 H 1299.22 1.57781 -2.59497 0
M  V30 14419 H 1296.8 0.719277 -1.30946 0
M  V30 14420 H 1298.68 3.85885 -1.69324 0
M  V30 14421 H 1297.36 3.15433 -0.726912 0
M  V30 14422 H 1296.26 2.359 -2.90348 0
M  V30 14423 H 1297.6 3.11897 -3.80763 0
M  V30 14424 N 1299.25 1.36039 0.795694 0
M  V30 14425 C 1300.2 1.29853 1.90806 0
M  V30 14426 C 1301.17 0.168387 1.65244 0
M  V30 14427 O 1302.35 0.353879 1.8749 0
M  V30 14428 C 1299.49 1.08737 3.27521 0
M  V30 14429 C 1298.6 2.30771 3.65197 0
M  V30 14430 C 1297.74 2.02718 4.90998 0
M  V30 14431 C 1296.78 3.20746 5.21333 0
M  V30 14432 N 1295.92 2.92399 6.38316 0
M  V30 14433 H 1300.76 2.2497 1.95429 0
M  V30 14434 H 1298.29 1.11819 0.955771 0
M  V30 14435 H 1300.25 0.945236 4.06351 0
M  V30 14436 H 1298.88 0.172781 3.22337 0
M  V30 14437 H 1297.93 2.5581 2.81541 0
M  V30 14438 H 1299.24 3.18869 3.83568 0
M  V30 14439 H 1298.4 1.85398 5.77679 0
M  V30 14440 H 1297.14 1.11921 4.74684 0
M  V30 14441 H 1296.14 3.38632 4.33138 0
M  V30 14442 H 1297.37 4.1236 5.3957 0
M  V30 14443 H 1295.31 2.04207 6.23406 0
M  V30 14444 H 1295.23 3.74034 6.56989 0
M  V30 14445 H 1296.5 2.78643 7.27996 0
M  V30 14446 N 1300.73 -1.01913 1.20215 0
M  V30 14447 C 1301.66 -2.12282 0.97256 0
M  V30 14448 C 1302.64 -1.6982 -0.0975709 0
M  V30 14449 O 1303.82 -1.94109 0.0594307 0
M  V30 14450 C 1300.95 -3.43369 0.521085 0
M  V30 14451 C 1299.91 -3.99559 1.53417 0
M  V30 14452 C 1299.23 -5.26383 0.93942 0
M  V30 14453 C 1300.53 -4.33241 2.91718 0
M  V30 14454 H 1302.23 -2.31746 1.89563 0
M  V30 14455 H 1299.77 -1.1137 0.912841 0
M  V30 14456 H 1301.73 -4.19963 0.347713 0
M  V30 14457 H 1300.45 -3.23655 -0.437605 0
M  V30 14458 H 1299.11 -3.25069 1.69486 0
M  V30 14459 H 1298.76 -5.02993 -0.0271236 0
M  V30 14460 H 1298.46 -5.64942 1.616 0
M  V30 14461 H 1299.98 -6.05635 0.777059 0
M  V30 14462 H 1301.4 -5.00734 2.79175 0
M  V30 14463 H 1299.79 -4.82907 3.56259 0
M  V30 14464 H 1300.86 -3.42118 3.43633 0
M  V30 14465 N 1302.21 -1.00763 -1.2118 0
M  V30 14466 C 1303.12 -0.579646 -2.27326 0
M  V30 14467 C 1304.13 0.378592 -1.69831 0
M  V30 14468 O 1305.31 0.241772 -1.99944 0
M  V30 14469 C 1302.37 0.0843648 -3.46597 0
M  V30 14470 C 1301.43 -0.918685 -4.19355 0
M  V30 14471 C 1300.67 -0.286267 -5.32932 0
M  V30 14472 O 1300.89 0.916274 -5.62993 0
M  V30 14473 O 1299.82 -0.998513 -5.9356 0
M  V30 14474 H 1303.65 -1.46311 -2.66133 0
M  V30 14475 H 1301.24 -0.776641 -1.27627 0
M  V30 14476 H 1303.12 0.455636 -4.18929 0
M  V30 14477 H 1301.79 0.942166 -3.09685 0
M  V30 14478 H 1300.7 -1.34116 -3.49233 0
M  V30 14479 H 1302.03 -1.74616 -4.60185 0
M  V30 14480 N 1303.68 1.3679 -0.7827 0
M  V30 14481 C 1304.96 1.93639 -0.276278 0
M  V30 14482 C 1305.34 1.7153 1.23048 0
M  V30 14483 O 1304.69 1.07037 2.01879 0
M  V30 14484 C 1304.9 3.42672 -0.661586 0
M  V30 14485 C 1306.25 4.19786 -0.637538 0
M  V30 14486 O 1307.27 3.51082 -0.601645 0
M  V30 14487 O 1306.13 5.42323 -0.674408 0
M  V30 14488 H 1303.22 0.824307 -0.0666832 0
M  V30 14489 H 1305.77 1.46012 -0.864792 0
M  V30 14490 H 1304.54 3.52393 -1.70103 0
M  V30 14491 H 1304.17 3.97573 -0.0465987 0
M  V30 14492 N 1305.16 0.53415 1.48272 0
M  V30 14493 C 1306.09 -0.215037 2.32508 0
M  V30 14494 C 1307.07 -0.931083 1.42355 0
M  V30 14495 O 1308.26 -0.916051 1.71237 0
M  V30 14496 C 1305.39 -1.25985 3.23643 0
M  V30 14497 C 1304.34 -0.661692 4.22854 0
M  V30 14498 C 1303.67 -1.80946 5.03153 0
M  V30 14499 C 1304.97 0.369358 5.20992 0
M  V30 14500 H 1306.66 0.488158 2.95394 0
M  V30 14501 H 1304.21 0.236206 1.4205 0
M  V30 14502 H 1306.16 -1.79195 3.81402 0
M  V30 14503 H 1304.89 -1.99268 2.58766 0
M  V30 14504 H 1303.54 -0.151082 3.66289 0
M  V30 14505 H 1303.19 -2.53077 4.34696 0
M  V30 14506 H 1302.89 -1.41513 5.70305 0
M  V30 14507 H 1304.42 -2.34526 5.63764 0
M  V30 14508 H 1305.83 -0.0758076 5.7325 0
M  V30 14509 H 1304.23 0.681301 5.9622 0
M  V30 14510 H 1305.3 1.27363 4.67875 0
M  V30 14511 N 1306.64 -1.55279 0.269478 0
M  V30 14512 C 1307.55 -2.25965 -0.63065 0
M  V30 14513 C 1308.57 -1.28357 -1.17476 0
M  V30 14514 O 1309.74 -1.61281 -1.20625 0
M  V30 14515 C 1306.81 -2.96263 -1.80081 0
M  V30 14516 C 1305.87 -4.09336 -1.29394 0
M  V30 14517 C 1305.1 -4.76272 -2.40833 0
M  V30 14518 O 1305.32 -4.42389 -3.60066 0
M  V30 14519 O 1304.26 -5.64334 -2.09309 0
M  V30 14520 H 1308.08 -3.03644 -0.0582069 0
M  V30 14521 H 1305.67 -1.49354 0.0370966 0
M  V30 14522 H 1307.55 -3.40461 -2.48322 0
M  V30 14523 H 1306.23 -2.21505 -2.36045 0
M  V30 14524 H 1305.13 -3.69605 -0.578154 0
M  V30 14525 H 1306.47 -4.85978 -0.780117 0
M  V30 14526 N 1308.12 0.00332656 -1.576 0
M  V30 14527 C 1309.36 0.68989 -1.90705 0
M  V30 14528 C 1309.7 1.73608 -0.870291 0
M  V30 14529 O 1308.97 1.94181 0.111416 0
M  V30 14530 C 1309.26 1.33605 -3.34397 0
M  V30 14531 C 1309.11 0.301638 -4.48787 0
M  V30 14532 C 1310.43 2.26313 -3.77453 0
M  V30 14533 H 1307.55 0.249328 -0.693545 0
M  V30 14534 H 1310.19 -0.0472847 -1.89941 0
M  V30 14535 H 1308.34 1.96437 -3.35179 0
M  V30 14536 H 1310.01 -0.326738 -4.60141 0
M  V30 14537 H 1308.25 -0.376451 -4.32163 0
M  V30 14538 H 1308.92 0.792741 -5.46278 0
M  V30 14539 H 1311.4 1.73502 -3.78201 0
M  V30 14540 H 1310.28 2.68492 -4.78752 0
M  V30 14541 H 1310.54 3.14082 -3.11135 0
M  V30 14542 N 1309.6 1.55164 0.276031 0
M  V30 14543 C 1310.85 1.74833 1.0058 0
M  V30 14544 C 1311.16 0.555089 1.87558 0
M  V30 14545 O 1312.36 0.634127 2.63991 0
M  V30 14546 C 1310.82 3.09417 1.83818 0
M  V30 14547 C 1310.43 4.36299 1.01721 0
M  V30 14548 C 1312.17 3.38437 2.56244 0
M  V30 14549 C 1310.08 5.61923 1.8438 0
M  V30 14550 H 1309.01 0.651676 0.379254 0
M  V30 14551 H 1311.66 1.81626 0.26161 0
M  V30 14552 H 1310.04 2.96654 2.62321 0
M  V30 14553 H 1311.22 4.59969 0.276565 0
M  V30 14554 H 1309.53 4.144 0.407645 0
M  V30 14555 H 1312.13 4.29501 3.18485 0
M  V30 14556 H 1312.47 2.58432 3.26372 0
M  V30 14557 H 1313 3.52284 1.84773 0
M  V30 14558 H 1309.74 6.44667 1.18679 0
M  V30 14559 H 1309.26 5.424 2.56051 0
M  V30 14560 H 1310.94 6.0011 2.4182 0
M  V30 14561 N 1311.07 -0.540404 1.48045 0
M  V30 14562 C 1312.01 -1.66164 1.57867 0
M  V30 14563 C 1313.02 -1.56058 0.463655 0
M  V30 14564 O 1314.21 -1.62709 0.734038 0
M  V30 14565 C 1311.31 -3.04748 1.48263 0
M  V30 14566 C 1310.48 -3.40441 2.74625 0
M  V30 14567 C 1309.54 -4.58259 2.58621 0
M  V30 14568 O 1308.57 -4.62 3.32482 0
M  V30 14569 N 1309.77 -5.55794 1.67551 0
M  V30 14570 H 1312.53 -1.58179 2.54557 0
M  V30 14571 H 1310.09 -0.727441 1.44637 0
M  V30 14572 H 1312.09 -3.81425 1.35267 0
M  V30 14573 H 1310.66 -3.06868 0.595892 0
M  V30 14574 H 1309.88 -2.53044 3.02262 0
M  V30 14575 H 1311.16 -3.61069 3.58478 0
M  V30 14576 H 1310.56 -5.55541 1.06725 0
M  V30 14577 H 1309.12 -6.3173 1.60499 0
M  V30 14578 N 1312.55 -1.36459 -0.788468 0
M  V30 14579 C 1313.5 -1.27391 -1.89092 0
M  V30 14580 C 1314.49 -0.165201 -1.6005 0
M  V30 14581 O 1315.68 -0.398097 -1.72465 0
M  V30 14582 C 1312.81 -1.06639 -3.26317 0
M  V30 14583 C 1311.89 -2.21981 -3.61366 0
M  V30 14584 N 1312.28 -3.47302 -3.67716 0
M  V30 14585 C 1310.58 -2.13767 -3.91433 0
M  V30 14586 C 1311.28 -4.2326 -3.99031 0
M  V30 14587 N 1310.26 -3.52211 -4.14063 0
M  V30 14588 H 1314.06 -2.22318 -1.92229 0
M  V30 14589 H 1311.58 -1.29191 -0.98404 0
M  V30 14590 H 1313.57 -0.982292 -4.05162 0
M  V30 14591 H 1312.23 -0.126129 -3.24455 0
M  V30 14592 H 1313.24 -3.81424 -3.50337 0
M  V30 14593 H 1309.92 -1.27702 -3.9749 0
M  V30 14594 H 1311.31 -5.31643 -4.1086 0
M  V30 14595 N 1314.03 1.01274 -1.20754 0
M  V30 14596 C 1315.45 1.27256 -0.963221 0
M  V30 14597 C 1315.65 1.98349 0.354972 0
M  V30 14598 O 1314.7 2.28116 1.08255 0
M  V30 14599 C 1316.02 2.1038 -2.14851 0
M  V30 14600 C 1317.56 2.23633 -2.18991 0
M  V30 14601 C 1318.04 3.10136 -3.37016 0
M  V30 14602 N 1319.53 3.17724 -3.37054 0
M  V30 14603 C 1320.26 3.84891 -4.25025 0
M  V30 14604 N 1319.76 4.54152 -5.23181 0
M  V30 14605 N 1321.55 3.81454 -4.12855 0
M  V30 14606 H 1313.7 0.535534 -2.05538 0
M  V30 14607 H 1315.97 0.299006 -0.899611 0
M  V30 14608 H 1315.67 1.65484 -3.10335 0
M  V30 14609 H 1315.55 3.11122 -2.13267 0
M  V30 14610 H 1317.93 2.67753 -1.24067 0
M  V30 14611 H 1318.02 1.22387 -2.24622 0
M  V30 14612 H 1317.66 2.66721 -4.32229 0
M  V30 14613 H 1317.59 4.11478 -3.28623 0
M  V30 14614 H 1320.08 2.68412 -2.66014 0
M  V30 14615 H 1320.39 5.03084 -5.86623 0
M  V30 14616 H 1318.74 4.52964 -5.27113 0
M  V30 14617 H 1321.93 3.26494 -3.35439 0
M  V30 14618 H 1322.1 4.33523 -4.81624 0
M  V30 14619 N 1315.51 1.01404 1.20644 0
M  V30 14620 C 1316.76 0.701909 1.89946 0
M  V30 14621 C 1317.08 -0.768212 1.78686 0
M  V30 14622 O 1316.34 -1.57348 1.16363 0
M  V30 14623 C 1316.64 1.07995 3.40693 0
M  V30 14624 C 1316.3 2.54585 3.72152 0
M  V30 14625 C 1314.97 2.94639 3.80449 0
M  V30 14626 C 1317.32 3.49497 3.86654 0
M  V30 14627 C 1314.65 4.2855 4.00702 0
M  V30 14628 C 1317 4.83093 4.08416 0
M  V30 14629 C 1315.66 5.22857 4.14942 0
M  V30 14630 H 1314.93 0.256847 0.695062 0
M  V30 14631 H 1317.58 1.27415 1.4296 0
M  V30 14632 H 1315.88 0.426089 3.89476 0
M  V30 14633 H 1317.58 0.816176 3.92606 0
M  V30 14634 H 1314.17 2.22548 3.66292 0
M  V30 14635 H 1318.36 3.19713 3.79602 0
M  V30 14636 H 1313.61 4.58916 4.03988 0
M  V30 14637 H 1317.79 5.56565 4.18579 0
M  V30 14638 H 1315.41 6.26634 4.30388 0
M  V30 14639 N 1316.99 -1.36373 0.789944 0
M  V30 14640 C 1317.9 -2.3383 0.189873 0
M  V30 14641 C 1318.91 -1.61068 -0.65827 0
M  V30 14642 O 1320.09 -1.93049 -0.573932 0
M  V30 14643 C 1317.15 -3.40264 -0.664905 0
M  V30 14644 C 1316.22 -4.28825 0.201798 0
M  V30 14645 C 1315.45 -5.30176 -0.612278 0
M  V30 14646 O 1315.67 -5.39627 -1.84821 0
M  V30 14647 O 1314.61 -6.01899 -0.0118964 0
M  V30 14648 H 1318.43 -2.86915 0.995671 0
M  V30 14649 H 1316.02 -1.38852 0.551412 0
M  V30 14650 H 1317.9 -4.05339 -1.15231 0
M  V30 14651 H 1316.57 -2.89478 -1.44858 0
M  V30 14652 H 1315.48 -3.66789 0.735974 0
M  V30 14653 H 1316.81 -4.82965 0.949003 0
M  V30 14654 N 1318.47 -0.542005 -1.47987 0
M  V30 14655 C 1319.69 -0.0146835 -2.07395 0
M  V30 14656 C 1320.12 1.26266 -1.39422 0
M  V30 14657 O 1319.47 1.75259 -0.464118 0
M  V30 14658 C 1319.52 0.179937 -3.60151 0
M  V30 14659 O 1318.63 1.24596 -3.93128 0
M  V30 14660 H 1317.97 -0.0445076 -0.662507 0
M  V30 14661 H 1320.5 -0.753352 -1.90226 0
M  V30 14662 H 1320.51 0.398876 -4.06046 0
M  V30 14663 H 1319.18 -0.753093 -4.09025 0
M  V30 14664 H 1317.76 1.00872 -3.58997 0
M  V30 14665 N 1319.94 1.55134 -0.277709 0
M  V30 14666 C 1320.87 2.256 0.602232 0
M  V30 14667 C 1321.85 1.24708 1.15681 0
M  V30 14668 O 1323.04 1.53433 1.19046 0
M  V30 14669 C 1320.17 2.97907 1.78519 0
M  V30 14670 C 1319.12 4.0575 1.36203 0
M  V30 14671 C 1318.45 4.65644 2.62829 0
M  V30 14672 C 1319.75 5.19801 0.510327 0
M  V30 14673 H 1321.44 2.99396 0.0145622 0
M  V30 14674 H 1318.99 1.43999 0.00556389 0
M  V30 14675 H 1320.94 3.45915 2.40668 0
M  V30 14676 H 1319.67 2.21649 2.39873 0
M  V30 14677 H 1318.33 3.58557 0.763726 0
M  V30 14678 H 1317.97 3.86053 3.22447 0
M  V30 14679 H 1317.67 5.38463 2.35227 0
M  V30 14680 H 1319.2 5.16403 3.25823 0
M  V30 14681 H 1320.61 5.63845 1.03689 0
M  V30 14682 H 1319.01 5.99197 0.329073 0
M  V30 14683 H 1320.08 4.82614 -0.470273 0
M  V30 14684 N 1321.42 0.00503138 1.57599 0
M  V30 14685 C 1322.33 -1.00097 2.12174 0
M  V30 14686 C 1323.35 -1.37353 1.06818 0
M  V30 14687 O 1324.52 -1.45984 1.38747 0
M  V30 14688 C 1321.59 -2.27252 2.61835 0
M  V30 14689 C 1320.65 -1.96262 3.81811 0
M  V30 14690 C 1319.88 -3.17355 4.29094 0
M  V30 14691 O 1320.11 -4.2921 3.75679 0
M  V30 14692 O 1319.04 -3.01059 5.21198 0
M  V30 14693 H 1322.87 -0.567024 2.9836 0
M  V30 14694 H 1320.45 -0.214109 1.47858 0
M  V30 14695 H 1322.33 -3.01944 2.93952 0
M  V30 14696 H 1321.01 -2.69875 1.78744 0
M  V30 14697 H 1319.91 -1.19031 3.54658 0
M  V30 14698 H 1321.25 -1.58473 4.65991 0
M  V30 14699 N 1322.9 -1.55308 -0.267798 0
M  V30 14700 C 1324.31 -1.66814 -0.838459 0
M  V30 14701 C 1324.66 -0.598609 -1.86845 0
M  V30 14702 O 1323.79 0.25896 -2.14845 0
M  V30 14703 C 1324.38 -3.02408 -1.52758 0
M  V30 14704 C 1322.94 -3.15923 -2.04621 0
M  V30 14705 C 1322.09 -2.62628 -0.890044 0
M  V30 14706 H 1325.04 -1.58639 -0.0440354 0
M  V30 14707 H 1325.06 -2.95687 -2.39478 0
M  V30 14708 H 1324.57 -3.80228 -0.777695 0
M  V30 14709 H 1322.67 -2.42886 -2.82555 0
M  V30 14710 H 1322.79 -4.22556 -2.25794 0
M  V30 14711 H 1321.15 -2.19918 -1.28485 0
M  V30 14712 H 1321.93 -3.42956 -0.153579 0
M  V30 14713 N 1324.38 0.532545 -1.4833 0
M  V30 14714 C 1325.29 1.66433 -1.65339 0
M  V30 14715 C 1326.3 1.65541 -0.535939 0
M  V30 14716 O 1327.48 1.84539 -0.806679 0
M  V30 14717 C 1324.54 3.02901 -1.68676 0
M  V30 14718 C 1323.61 3.14669 -2.92031 0
M  V30 14719 C 1322.84 4.44627 -2.95199 0
M  V30 14720 O 1323.06 5.31572 -2.06851 0
M  V30 14721 O 1322 4.60707 -3.87341 0
M  V30 14722 H 1325.82 1.5502 -2.61156 0
M  V30 14723 H 1323.41 0.705348 -1.31701 0
M  V30 14724 H 1325.29 3.84068 -1.73407 0
M  V30 14725 H 1323.96 3.14644 -0.760327 0
M  V30 14726 H 1322.87 2.32807 -2.92834 0
M  V30 14727 H 1324.2 3.07841 -3.8405 0
M  V30 14728 N 1325.86 1.36875 0.78122 0
M  V30 14729 C 1326.79 1.26232 1.90107 0
M  V30 14730 C 1327.77 0.144779 1.61954 0
M  V30 14731 O 1328.95 0.317344 1.8581 0
M  V30 14732 C 1326.08 0.949543 3.25117 0
M  V30 14733 C 1325.12 2.08266 3.72193 0
M  V30 14734 S 1325.96 3.70141 3.86983 0
M  V30 14735 C 1327.11 3.40994 5.24856 0
M  V30 14736 H 1327.35 2.21016 1.98844 0
M  V30 14737 H 1324.88 1.22387 0.941324 0
M  V30 14738 H 1326.84 0.775902 4.031 0
M  V30 14739 H 1325.5 0.0193416 3.14094 0
M  V30 14740 H 1324.69 1.81858 4.70046 0
M  V30 14741 H 1324.29 2.21595 3.01284 0
M  V30 14742 H 1326.58 2.95395 6.09711 0
M  V30 14743 H 1327.53 4.38141 5.56272 0
M  V30 14744 H 1327.94 2.76146 4.92345 0
M  V30 14745 N 1327.33 -1.00632 1.21289 0
M  V30 14746 C 1328.28 -2.11502 0.96798 0
M  V30 14747 C 1329.28 -1.6919 -0.0843024 0
M  V30 14748 O 1330.48 -1.79875 0.06697 0
M  V30 14749 H 1326.86 -0.691398 0.295759 0
M  V30 14750 H 1328.83 -2.29337 1.90911 0
M  V30 14751 C 1327.58 -3.43357 0.547818 0
M  V30 14752 H 1326.9 -3.76348 1.34915 0
M  V30 14753 H 1328.34 -4.21957 0.415759 0
M  V30 14754 C 1326.8 -3.28648 -0.741086 0
M  V30 14755 O 1327.33 -3.59267 -1.79695 0
M  V30 14756 N 1325.53 -2.81866 -0.707084 0
M  V30 14757 H 1325.08 -2.57149 0.152447 0
M  V30 14758 H 1325.04 -2.72406 -1.56979 0
M  V30 14759 N 1328.81 -1.02043 -1.20104 0
M  V30 14760 C 1329.76 -0.587332 -2.25063 0
M  V30 14761 C 1330.75 0.375844 -1.65178 0
M  V30 14762 O 1331.96 0.245347 -1.7832 0
M  V30 14763 H 1328.33 -0.171637 -0.732151 0
M  V30 14764 H 1330.31 -1.48339 -2.58917 0
M  V30 14765 C 1329.05 0.0546893 -3.47657 0
M  V30 14766 H 1328.38 -0.677457 -3.94018 0
M  V30 14767 H 1329.82 0.320786 -4.22785 0
M  V30 14768 C 1328.28 1.29869 -3.10863 0
M  V30 14769 O 1328.81 2.39161 -3.22746 0
M  V30 14770 N 1327.01 1.18423 -2.65376 0
M  V30 14771 H 1326.56 0.294895 -2.55906 0
M  V30 14772 H 1326.52 2.01755 -2.41128 0
M  V30 14773 N 1330.29 1.35952 -0.797165 0
M  V30 14774 C 1331.22 2.28649 -0.15877 0
M  V30 14775 C 1332.24 1.49842 0.636481 0
M  V30 14776 O 1333.42 1.72191 0.47039 0
M  V30 14777 C 1330.52 3.29373 0.797913 0
M  V30 14778 C 1329.7 4.3737 0.0510574 0
M  V30 14779 C 1328.76 5.18009 0.924826 0
M  V30 14780 O 1327.78 5.67935 0.379223 0
M  V30 14781 N 1328.98 5.352 2.24813 0
M  V30 14782 H 1331.75 2.84075 -0.955056 0
M  V30 14783 H 1329.31 1.48201 -0.651767 0
M  V30 14784 H 1331.3 3.80209 1.38646 0
M  V30 14785 H 1329.87 2.74531 1.49504 0
M  V30 14786 H 1329.09 3.87594 -0.718633 0
M  V30 14787 H 1330.38 5.0668 -0.464025 0
M  V30 14788 H 1329.78 4.96266 2.71545 0
M  V30 14789 H 1328.34 5.89252 2.78614 0
M  V30 14790 N 1331.77 0.549846 1.47697 0
M  V30 14791 C 1332.73 -0.191427 2.28399 0
M  V30 14792 C 1333.73 -0.849533 1.36527 0
M  V30 14793 O 1334.92 -0.706526 1.59229 0
M  V30 14794 C 1332.05 -1.27907 3.15995 0
M  V30 14795 H 1333.25 0.517375 2.95404 0
M  V30 14796 H 1330.8 0.30651 1.53265 0
M  V30 14797 H 1331.53 -2.0205 2.53665 0
M  V30 14798 H 1331.32 -0.812066 3.83599 0
M  V30 14799 H 1332.81 -1.79992 3.76819 0
M  V30 14800 N 1333.25 -1.54984 0.285932 0
M  V30 14801 C 1334.47 -2.04699 -0.333621 0
M  V30 14802 C 1334.9 -1.16252 -1.47875 0
M  V30 14803 O 1334.25 -0.163376 -1.80562 0
M  V30 14804 C 1334.3 -3.52022 -0.78187 0
M  V30 14805 O 1333.41 -3.66639 -1.88812 0
M  V30 14806 H 1332.75 -0.660579 -0.0673203 0
M  V30 14807 H 1335.28 -2.00171 0.423386 0
M  V30 14808 H 1335.29 -3.93591 -1.07473 0
M  V30 14809 H 1333.96 -4.15862 0.055893 0
M  V30 14810 H 1332.54 -3.36974 -1.59696 0
M  V30 14811 N 1334.72 -0.0133892 -1.57594 0
M  V30 14812 C 1336.14 0.342848 -1.55874 0
M  V30 14813 C 1336.34 1.73928 -1.01742 0
M  V30 14814 O 1335.4 2.43798 -0.657158 0
M  V30 14815 C 1336.71 0.205831 -2.99995 0
M  V30 14816 C 1338.26 0.279774 -3.11747 0
M  V30 14817 C 1338.73 0.171729 -4.57678 0
M  V30 14818 N 1340.22 0.22921 -4.62633 0
M  V30 14819 C 1340.96 0.169153 -5.7315 0
M  V30 14820 N 1340.45 0.0589166 -6.92775 0
M  V30 14821 N 1342.25 0.221995 -5.61661 0
M  V30 14822 H 1334.4 -0.926727 -1.91117 0
M  V30 14823 H 1336.66 -0.356466 -0.878428 0
M  V30 14824 H 1336.37 -0.755482 -3.4349 0
M  V30 14825 H 1336.24 0.982476 -3.6418 0
M  V30 14826 H 1338.63 1.23154 -2.68174 0
M  V30 14827 H 1338.71 -0.526974 -2.50313 0
M  V30 14828 H 1338.35 -0.776547 -5.01928 0
M  V30 14829 H 1338.28 0.997138 -5.17073 0
M  V30 14830 H 1340.77 0.315196 -3.76583 0
M  V30 14831 H 1341.09 0.0193526 -7.72798 0
M  V30 14832 H 1339.43 0.0243543 -6.94996 0
M  V30 14833 H 1342.62 0.306406 -4.67096 0
M  V30 14834 H 1342.8 0.171727 -6.47772 0
M  V30 14835 N 1336.2 1.55448 0.259558 0
M  V30 14836 C 1337.45 1.76948 0.990816 0
M  V30 14837 C 1337.78 0.576401 1.85449 0
M  V30 14838 O 1337.06 -0.425693 1.89784 0
M  V30 14839 C 1337.34 3.08221 1.86204 0
M  V30 14840 C 1337.19 4.37909 1.0274 0
M  V30 14841 C 1338.51 3.35627 2.84679 0
M  V30 14842 H 1335.63 0.64377 0.358788 0
M  V30 14843 H 1338.27 1.88182 0.262211 0
M  V30 14844 H 1336.42 2.98775 2.48326 0
M  V30 14845 H 1338.09 4.5933 0.425855 0
M  V30 14846 H 1336.34 4.32533 0.331308 0
M  V30 14847 H 1337.01 5.26116 1.6705 0
M  V30 14848 H 1339.48 3.44954 2.32693 0
M  V30 14849 H 1338.36 4.28719 3.42769 0
M  V30 14850 H 1338.62 2.55921 3.60496 0
M  V30 14851 N 1337.68 -0.524672 1.4861 0
M  V30 14852 C 1338.64 -1.61092 1.63039 0
M  V30 14853 C 1339.64 -1.52718 0.503387 0
M  V30 14854 O 1340.83 -1.56293 0.769304 0
M  V30 14855 C 1337.97 -3.00722 1.60558 0
M  V30 14856 H 1339.16 -1.49636 2.59902 0
M  V30 14857 H 1336.71 -0.747135 1.37287 0
M  V30 14858 H 1337.45 -3.1768 0.651926 0
M  V30 14859 H 1337.23 -3.0821 2.42382 0
M  V30 14860 H 1338.72 -3.79688 1.73859 0
M  V30 14861 N 1339.16 -1.37287 -0.77395 0
M  V30 14862 C 1340.4 -1.3257 -1.5347 0
M  V30 14863 C 1340.74 0.090346 -1.9399 0
M  V30 14864 O 1340.01 1.04719 -1.63903 0
M  V30 14865 C 1340.3 -2.26277 -2.80126 0
M  V30 14866 C 1340.15 -3.76651 -2.45874 0
M  V30 14867 C 1341.47 -2.18471 -3.82045 0
M  V30 14868 H 1338.59 -0.48289 -0.556764 0
M  V30 14869 H 1341.23 -1.6797 -0.888039 0
M  V30 14870 H 1339.38 -1.96219 -3.35306 0
M  V30 14871 H 1341.05 -4.17296 -1.96626 0
M  V30 14872 H 1339.29 -3.95327 -1.78602 0
M  V30 14873 H 1339.96 -4.3765 -3.36403 0
M  V30 14874 H 1342.44 -2.44962 -3.36352 0
M  V30 14875 H 1341.32 -2.86183 -4.68392 0
M  V30 14876 H 1341.58 -1.17692 -4.26147 0
M  V30 14877 N 1340.64 0.999871 -1.21821 0
M  V30 14878 C 1341.88 1.74098 -1.04009 0
M  V30 14879 C 1342.22 1.89499 0.424716 0
M  V30 14880 O 1341.49 1.43306 1.31505 0
M  V30 14881 C 1341.77 3.1506 -1.74382 0
M  V30 14882 C 1341.63 3.0735 -3.28414 0
M  V30 14883 C 1342.95 4.1409 -1.49055 0
M  V30 14884 H 1340.06 0.631935 -0.379245 0
M  V30 14885 H 1342.71 1.16534 -1.50066 0
M  V30 14886 H 1340.86 3.64206 -1.35227 0
M  V30 14887 H 1342.53 2.65879 -3.76969 0
M  V30 14888 H 1340.77 2.44325 -3.58452 0
M  V30 14889 H 1341.44 4.07069 -3.72825 0
M  V30 14890 H 1343.92 3.73672 -1.83054 0
M  V30 14891 H 1342.79 5.10853 -2.008 0
M  V30 14892 H 1343.06 4.40085 -0.421641 0
M  V30 14893 N 1342.11 1.02678 1.19562 0
M  V30 14894 C 1343.06 0.599259 2.24748 0
M  V30 14895 C 1344.06 -0.367079 1.65375 0
M  V30 14896 O 1345.26 -0.235887 1.78448 0
M  V30 14897 H 1341.64 0.175517 0.73123 0
M  V30 14898 H 1343.61 1.4971 2.58127 0
M  V30 14899 C 1342.36 -0.0362515 3.47681 0
M  V30 14900 H 1341.68 0.698343 3.93654 0
M  V30 14901 H 1343.12 -0.298361 4.22949 0
M  V30 14902 C 1341.58 -1.28218 3.11547 0
M  V30 14903 O 1342.11 -2.37446 3.24009 0
M  V30 14904 N 1340.32 -1.17014 2.66 0
M  V30 14905 H 1339.86 -0.28132 2.56059 0
M  V30 14906 H 1339.82 -2.00473 2.42194 0
M  V30 14907 N 1343.59 -1.35528 0.804364 0
M  V30 14908 C 1344.52 -2.28562 0.170893 0
M  V30 14909 C 1345.54 -1.50178 -0.628526 0
M  V30 14910 O 1346.73 -1.72438 -0.461252 0
M  V30 14911 C 1343.83 -3.29792 -0.780434 0
M  V30 14912 C 1343 -4.37391 -0.0278619 0
M  V30 14913 C 1342.06 -5.18492 -0.897341 0
M  V30 14914 O 1341.08 -5.68128 -0.349098 0
M  V30 14915 N 1342.29 -5.36385 -2.21971 0
M  V30 14916 H 1345.05 -2.83565 0.970108 0
M  V30 14917 H 1342.61 -1.47854 0.659617 0
M  V30 14918 H 1344.6 -3.80939 -1.36628 0
M  V30 14919 H 1343.17 -2.7532 -1.48046 0
M  V30 14920 H 1342.39 -3.87208 0.739178 0
M  V30 14921 H 1343.68 -5.06426 0.490889 0
M  V30 14922 H 1343.08 -4.97699 -2.6891 0
M  V30 14923 H 1341.64 -5.90721 -2.75485 0
M  V30 14924 N 1345.07 -0.557671 -1.47404 0
M  V30 14925 C 1346.32 -0.0316382 -2.01675 0
M  V30 14926 C 1346.63 1.32656 -1.43742 0
M  V30 14927 O 1347.84 1.94253 -1.89678 0
M  V30 14928 C 1346.3 -0.00606931 -3.59899 0
M  V30 14929 C 1345.9 -1.36106 -4.26825 0
M  V30 14930 C 1347.65 0.467332 -4.2192 0
M  V30 14931 C 1345.55 -1.29457 -5.77057 0
M  V30 14932 H 1344.48 -0.00805738 -0.753957 0
M  V30 14933 H 1347.14 -0.705592 -1.69392 0
M  V30 14934 H 1345.52 0.733541 -3.89147 0
M  V30 14935 H 1346.69 -2.11842 -4.09218 0
M  V30 14936 H 1345.01 -1.77243 -3.76794 0
M  V30 14937 H 1347.6 0.535478 -5.32012 0
M  V30 14938 H 1347.95 1.47942 -3.89126 0
M  V30 14939 H 1348.48 -0.217434 -3.97205 0
M  V30 14940 H 1345.22 -2.28267 -6.14471 0
M  V30 14941 H 1344.74 -0.579022 -5.96999 0
M  V30 14942 H 1346.42 -0.996834 -6.39275 0
M  V30 14943 N 1346.55 1.54831 -0.294147 0
M  V30 14944 C 1347.51 2.21946 0.572061 0
M  V30 14945 C 1348.51 1.20331 1.06663 0
M  V30 14946 O 1349.7 1.45112 0.963757 0
M  V30 14947 C 1346.83 2.90044 1.7913 0
M  V30 14948 H 1348.03 2.99897 -0.0142234 0
M  V30 14949 H 1345.58 1.56235 -0.0449187 0
M  V30 14950 H 1346.32 2.16154 2.4176 0
M  V30 14951 H 1346.1 3.64527 1.44439 0
M  V30 14952 H 1347.59 3.41263 2.40684 0
M  V30 14953 N 1348.03 0.0217466 1.57585 0
M  V30 14954 C 1349.44 -0.334576 1.56054 0
M  V30 14955 C 1349.64 -1.73386 1.02663 0
M  V30 14956 O 1348.7 -2.43447 0.670078 0
M  V30 14957 C 1350.01 -0.189919 3.001 0
M  V30 14958 C 1351.56 -0.263238 3.11891 0
M  V30 14959 C 1352.04 -0.147455 4.57763 0
M  V30 14960 N 1353.53 -0.204672 4.62748 0
M  V30 14961 C 1354.26 -0.138755 5.73232 0
M  V30 14962 N 1353.76 -0.0221762 6.92796 0
M  V30 14963 N 1355.55 -0.192206 5.61771 0
M  V30 14964 H 1347.7 0.936849 1.90622 0
M  V30 14965 H 1349.96 0.361119 0.876526 0
M  V30 14966 H 1349.67 0.773687 3.43084 0
M  V30 14967 H 1349.54 -0.963148 3.64696 0
M  V30 14968 H 1351.93 -1.2173 2.68823 0
M  V30 14969 H 1352.01 0.540241 2.5003 0
M  V30 14970 H 1351.66 0.803155 5.0151 0
M  V30 14971 H 1351.59 -0.969703 5.17595 0
M  V30 14972 H 1354.08 -0.29522 3.76745 0
M  V30 14973 H 1354.39 0.021631 7.72797 0
M  V30 14974 H 1352.74 0.0125033 6.94999 0
M  V30 14975 H 1355.93 -0.28163 4.67252 0
M  V30 14976 H 1356.1 -0.137372 6.47854 0
M  V30 14977 N 1349.51 -1.55583 -0.251311 0
M  V30 14978 C 1350.44 -1.86388 -1.33387 0
M  V30 14979 C 1351.45 -0.749829 -1.44504 0
M  V30 14980 O 1352.64 -1.0279 -1.45933 0
M  V30 14981 C 1349.74 -2.0311 -2.71293 0
M  V30 14982 C 1348.91 -3.33937 -2.82498 0
M  V30 14983 C 1347.97 -3.40455 -4.01219 0
M  V30 14984 O 1347 -4.13695 -3.90954 0
M  V30 14985 N 1348.2 -2.69427 -5.14188 0
M  V30 14986 H 1350.96 -2.79834 -1.07298 0
M  V30 14987 H 1348.53 -1.55766 -0.441418 0
M  V30 14988 H 1350.52 -2.04817 -3.49045 0
M  V30 14989 H 1349.09 -1.16429 -2.90109 0
M  V30 14990 H 1348.31 -3.44584 -1.91456 0
M  V30 14991 H 1349.6 -4.20176 -2.86931 0
M  V30 14992 H 1348.99 -2.09647 -5.25419 0
M  V30 14993 H 1347.55 -2.76832 -5.90091 0
M  V30 14994 N 1350.98 0.516783 -1.48886 0
M  V30 14995 C 1351.91 1.62897 -1.67292 0
M  V30 14996 C 1352.89 1.61903 -0.521671 0
M  V30 14997 O 1354.08 1.78892 -0.755728 0
M  V30 14998 C 1351.21 3.01444 -1.72478 0
M  V30 14999 C 1350.16 3.173 -2.87236 0
M  V30 15000 C 1349.49 4.5704 -2.77522 0
M  V30 15001 C 1350.79 2.98818 -4.28375 0
M  V30 15002 H 1352.48 1.47748 -2.60405 0
M  V30 15003 H 1350.03 0.709361 -1.25316 0
M  V30 15004 H 1351.98 3.79135 -1.83942 0
M  V30 15005 H 1350.71 3.17645 -0.759538 0
M  V30 15006 H 1349.37 2.4203 -2.75349 0
M  V30 15007 H 1349.01 4.70096 -1.78938 0
M  V30 15008 H 1348.71 4.68593 -3.54534 0
M  V30 15009 H 1350.24 5.36813 -2.90972 0
M  V30 15010 H 1351.65 3.66291 -4.41026 0
M  V30 15011 H 1350.05 3.21854 -5.06488 0
M  V30 15012 H 1351.12 1.95102 -4.43918 0
M  V30 15013 N 1352.46 1.37696 0.766659 0
M  V30 15014 C 1353.39 1.28241 1.88758 0
M  V30 15015 C 1354.37 0.161948 1.61791 0
M  V30 15016 O 1355.56 0.337034 1.85462 0
M  V30 15017 C 1352.68 0.983972 3.24092 0
M  V30 15018 C 1351.73 2.12202 3.69963 0
M  V30 15019 S 1352.56 3.74225 3.83035 0
M  V30 15020 C 1353.72 3.46542 5.2121 0
M  V30 15021 H 1353.95 2.23113 1.96489 0
M  V30 15022 H 1351.48 1.23378 0.92829 0
M  V30 15023 H 1353.44 0.818612 4.02255 0
M  V30 15024 H 1352.1 0.0526544 3.14056 0
M  V30 15025 H 1351.3 1.86834 4.68091 0
M  V30 15026 H 1350.9 2.24778 2.98916 0
M  V30 15027 H 1353.19 3.01845 6.06544 0
M  V30 15028 H 1354.13 4.44016 5.51593 0
M  V30 15029 H 1354.54 2.81353 4.89388 0
M  V30 15030 N 1353.94 -0.993397 1.22349 0
M  V30 15031 C 1354.89 -2.06784 0.960445 0
M  V30 15032 C 1355.87 -1.60655 -0.0887385 0
M  V30 15033 O 1357.07 -1.76581 0.121716 0
M  V30 15034 C 1354.19 -3.39034 0.539552 0
M  V30 15035 C 1353.28 -3.91798 1.62344 0
M  V30 15036 N 1353.67 -4.17791 2.85104 0
M  V30 15037 C 1351.97 -4.20197 1.49501 0
M  V30 15038 C 1352.67 -4.6067 3.55187 0
M  V30 15039 N 1351.65 -4.64333 2.82658 0
M  V30 15040 H 1355.45 -2.24821 1.89295 0
M  V30 15041 H 1352.96 -1.17509 1.12095 0
M  V30 15042 H 1354.96 -4.15573 0.332419 0
M  V30 15043 H 1353.62 -3.22397 -0.38606 0
M  V30 15044 H 1354.63 -4.05999 3.21536 0
M  V30 15045 H 1351.31 -4.12634 0.635546 0
M  V30 15046 H 1352.7 -4.89408 4.60358 0
M  V30 15047 N 1355.42 -1.03311 -1.19015 0
M  V30 15048 C 1356.64 -0.751686 -1.93299 0
M  V30 15049 C 1357.07 0.68392 -1.75226 0
M  V30 15050 O 1356.43 1.47274 -1.05736 0
M  V30 15051 C 1356.47 -1.11335 -3.42982 0
M  V30 15052 O 1355.58 -0.234434 -4.11733 0
M  V30 15053 H 1354.92 -0.277331 -0.60331 0
M  V30 15054 H 1357.45 -1.38092 -1.5097 0
M  V30 15055 H 1357.46 -1.07204 -3.93664 0
M  V30 15056 H 1356.13 -2.15922 -3.55458 0
M  V30 15057 H 1354.71 -0.3347 -3.71395 0
M  V30 15058 N 1356.9 1.35099 -0.81154 0
M  V30 15059 C 1358.14 1.98233 -0.393453 0
M  V30 15060 C 1358.46 1.64688 1.04417 0
M  V30 15061 O 1357.73 0.931845 1.72318 0
M  V30 15062 H 1356.31 0.733283 -0.142496 0
M  V30 15063 H 1358.98 1.6493 -1.03847 0
M  V30 15064 H 1358.07 3.08017 -0.503188 0
M  V30 15065 N 1358.37 0.56548 1.47106 0
M  V30 15066 C 1359.32 -0.198133 2.27137 0
M  V30 15067 C 1360.31 -0.877743 1.3485 0
M  V30 15068 O 1361.5 -0.774683 1.59147 0
M  V30 15069 C 1358.63 -1.22223 3.20806 0
M  V30 15070 C 1357.71 -0.545616 4.20576 0
M  V30 15071 N 1358.11 0.389029 5.04302 0
M  V30 15072 C 1356.4 -0.798517 4.38793 0
M  V30 15073 C 1357.1 0.782852 5.76408 0
M  V30 15074 N 1356.08 0.13583 5.4343 0
M  V30 15075 H 1359.88 0.520354 2.89257 0
M  V30 15076 H 1357.4 0.386013 1.57746 0
M  V30 15077 H 1359.39 -1.78332 3.76833 0
M  V30 15078 H 1358.05 -1.94172 2.60244 0
M  V30 15079 H 1359.06 0.763644 5.12239 0
M  V30 15080 H 1355.74 -1.50589 3.89396 0
M  V30 15081 H 1357.13 1.55133 6.53746 0
M  V30 15082 N 1359.85 -1.54672 0.302354 0
M  V30 15083 C 1361.26 -1.85731 -0.190019 0
M  V30 15084 C 1361.61 -1.22427 -1.53317 0
M  V30 15085 O 1360.74 -0.522461 -2.09998 0
M  V30 15086 C 1361.33 -3.36971 -0.351562 0
M  V30 15087 C 1359.89 -3.68056 -0.788155 0
M  V30 15088 C 1359.04 -2.7711 0.102705 0
M  V30 15089 H 1361.99 -1.49823 0.523324 0
M  V30 15090 H 1362.01 -3.61547 -1.18592 0
M  V30 15091 H 1361.52 -3.83016 0.626152 0
M  V30 15092 H 1359.63 -3.2753 -1.77637 0
M  V30 15093 H 1359.74 -4.75244 -0.606604 0
M  V30 15094 H 1358.1 -2.51243 -0.418235 0
M  V30 15095 H 1358.89 -3.25975 1.0768 0
M  V30 15096 N 1361.33 -0.0301034 -1.57571 0
M  V30 15097 C 1362.56 0.662045 -1.9655 0
M  V30 15098 C 1362.98 1.64811 -0.906581 0
M  V30 15099 O 1362.34 1.80816 0.132415 0
M  V30 15100 C 1362.39 1.34389 -3.34622 0
M  V30 15101 O 1361.49 2.45919 -3.31056 0
M  V30 15102 H 1360.83 0.173842 -0.640839 0
M  V30 15103 H 1363.36 -0.092248 -2.04392 0
M  V30 15104 H 1363.37 1.70045 -3.70875 0
M  V30 15105 H 1362.05 0.621092 -4.11236 0
M  V30 15106 H 1360.62 2.12367 -3.06521 0
M  V30 15107 N 1362.81 1.55714 0.243056 0
M  V30 15108 C 1363.72 1.93777 1.32241 0
M  V30 15109 C 1364.73 0.838709 1.52452 0
M  V30 15110 O 1365.91 1.14044 1.66 0
M  V30 15111 C 1362.98 2.22808 2.65627 0
M  V30 15112 C 1362.04 3.46166 2.53904 0
M  V30 15113 C 1361.27 3.73802 3.8093 0
M  V30 15114 O 1361.49 3.0345 4.82985 0
M  V30 15115 O 1360.43 4.67323 3.79332 0
M  V30 15116 H 1364.25 2.85718 1.02951 0
M  V30 15117 H 1361.84 1.42646 0.444135 0
M  V30 15118 H 1363.72 2.4277 3.44442 0
M  V30 15119 H 1362.39 1.34045 2.94642 0
M  V30 15120 H 1361.3 3.31506 1.73362 0
M  V30 15121 H 1362.63 4.35244 2.29834 0
M  V30 15122 N 1364.29 -0.50888 1.49158 0
M  V30 15123 C 1365.23 -1.61129 1.65246 0
M  V30 15124 C 1366.2 -1.58582 0.49405 0
M  V30 15125 O 1367.39 -1.76689 0.720122 0
M  V30 15126 C 1364.53 -2.99311 1.71776 0
M  V30 15127 C 1363.64 -3.11933 2.98868 0
M  V30 15128 C 1362.78 -4.408 2.96426 0
M  V30 15129 C 1361.82 -4.47027 4.18131 0
M  V30 15130 N 1360.95 -5.67311 4.13645 0
M  V30 15131 H 1365.79 -1.4672 2.59379 0
M  V30 15132 H 1363.33 -0.713978 1.28611 0
M  V30 15133 H 1365.29 -3.79392 1.73543 0
M  V30 15134 H 1363.92 -3.12442 0.811159 0
M  V30 15135 H 1362.97 -2.24966 3.06748 0
M  V30 15136 H 1364.28 -3.12393 3.8886 0
M  V30 15137 H 1363.44 -5.29194 2.96712 0
M  V30 15138 H 1362.17 -4.42893 2.04199 0
M  V30 15139 H 1361.18 -3.57036 4.18097 0
M  V30 15140 H 1362.4 -4.46656 5.11542 0
M  V30 15141 H 1360.35 -5.70261 3.2425 0
M  V30 15142 H 1360.27 -5.69355 4.97364 0
M  V30 15143 H 1361.54 -6.57934 4.18022 0
M  V30 15144 N 1365.76 -1.381 -0.759346 0
M  V30 15145 C 1366.67 -1.37086 -1.9038 0
M  V30 15146 C 1367.69 -0.268738 -1.71912 0
M  V30 15147 O 1368.87 -0.506205 -1.94935 0
M  V30 15148 C 1365.93 -1.18905 -3.25672 0
M  V30 15149 C 1364.99 -2.3887 -3.56707 0
M  V30 15150 C 1364.23 -2.21546 -4.85544 0
M  V30 15151 O 1364.45 -1.20616 -5.57501 0
M  V30 15152 O 1363.38 -3.10009 -5.15924 0
M  V30 15153 H 1367.21 -2.33505 -1.94188 0
M  V30 15154 H 1364.79 -1.18959 -0.903826 0
M  V30 15155 H 1366.68 -1.10803 -4.06572 0
M  V30 15156 H 1365.35 -0.255675 -3.22689 0
M  V30 15157 H 1364.26 -2.52546 -2.75992 0
M  V30 15158 H 1365.59 -3.30817 -3.64446 0
M  V30 15159 N 1367.24 0.986894 -1.22875 0
M  V30 15160 C 1368.49 1.72152 -1.05103 0
M  V30 15161 C 1368.8 1.91185 0.413248 0
M  V30 15162 O 1370.01 2.62031 0.710759 0
M  V30 15163 C 1368.47 3.09771 -1.8322 0
M  V30 15164 C 1368.07 2.98648 -3.33936 0
M  V30 15165 C 1369.82 3.87238 -1.73917 0
M  V30 15166 C 1367.73 4.31459 -4.04471 0
M  V30 15167 H 1366.66 0.645498 -0.389677 0
M  V30 15168 H 1369.31 1.10125 -1.46781 0
M  V30 15169 H 1367.69 3.72515 -1.34345 0
M  V30 15170 H 1368.86 2.45033 -3.9025 0
M  V30 15171 H 1367.18 2.34661 -3.43982 0
M  V30 15172 H 1369.77 4.85549 -2.23933 0
M  V30 15173 H 1370.12 4.1036 -0.700711 0
M  V30 15174 H 1370.65 3.31183 -2.20369 0
M  V30 15175 H 1367.39 4.13534 -5.08596 0
M  V30 15176 H 1366.91 4.84964 -3.52944 0
M  V30 15177 H 1368.59 5.00179 -4.10403 0
M  V30 15178 N 1368.72 1.0394 1.18466 0
M  V30 15179 C 1369.67 0.629352 2.22054 0
M  V30 15180 C 1370.64 -0.362187 1.62103 0
M  V30 15181 O 1371.82 -0.256457 1.89069 0
M  V30 15182 C 1368.96 -0.00282888 3.451 0
M  V30 15183 C 1368.08 1.03602 4.19393 0
M  V30 15184 C 1367.21 0.372492 5.29892 0
M  V30 15185 C 1366.25 1.39652 5.95956 0
M  V30 15186 N 1365.39 0.758053 6.97996 0
M  V30 15187 H 1370.23 1.51722 2.56485 0
M  V30 15188 H 1367.76 0.759043 1.26004 0
M  V30 15189 H 1369.72 -0.386688 4.15404 0
M  V30 15190 H 1368.35 -0.854224 3.11292 0
M  V30 15191 H 1367.4 1.53784 3.47929 0
M  V30 15192 H 1368.72 1.81387 4.64651 0
M  V30 15193 H 1367.87 -0.065642 6.06664 0
M  V30 15194 H 1366.61 -0.437462 4.85734 0
M  V30 15195 H 1365.61 1.84481 5.17926 0
M  V30 15196 H 1366.84 2.20816 6.42197 0
M  V30 15197 H 1364.78 -0.0316173 6.55992 0
M  V30 15198 H 1364.7 1.47363 7.41499 0
M  V30 15199 H 1365.97 0.344273 7.78739 0
M  V30 15200 N 1370.2 -1.34667 0.818693 0
M  V30 15201 C 1371.16 -2.27908 0.243037 0
M  V30 15202 C 1372.16 -1.50106 -0.576622 0
M  V30 15203 O 1373.35 -1.69701 -0.393342 0
M  V30 15204 C 1370.48 -3.34455 -0.659759 0
M  V30 15205 H 1371.68 -2.80332 1.06555 0
M  V30 15206 H 1369.23 -1.44727 0.590237 0
M  V30 15207 H 1369.96 -2.87238 -1.50549 0
M  V30 15208 H 1369.75 -3.92031 -0.073567 0
M  V30 15209 H 1371.24 -4.04016 -1.05646 0
M  V30 15210 N 1371.68 -0.573274 -1.46804 0
M  V30 15211 C 1372.61 0.20305 -2.28299 0
M  V30 15212 C 1373.62 0.864367 -1.37958 0
M  V30 15213 O 1374.81 0.735516 -1.62642 0
M  V30 15214 C 1371.91 1.30633 -3.12711 0
M  V30 15215 C 1371.08 0.738741 -4.31116 0
M  V30 15216 C 1370.14 1.72853 -4.96999 0
M  V30 15217 O 1369.17 1.2683 -5.5489 0
M  V30 15218 N 1370.37 3.06239 -4.93151 0
M  V30 15219 H 1373.14 -0.496086 -2.95566 0
M  V30 15220 H 1370.7 -0.410411 -1.56612 0
M  V30 15221 H 1372.69 1.96755 -3.53652 0
M  V30 15222 H 1371.26 1.90846 -2.47581 0
M  V30 15223 H 1370.48 -0.0996941 -3.94074 0
M  V30 15224 H 1371.77 0.339154 -5.07668 0
M  V30 15225 H 1371.16 3.46262 -4.47347 0
M  V30 15226 H 1369.72 3.67876 -5.38062 0
M  V30 15227 N 1373.15 1.5451 -0.310553 0
M  V30 15228 C 1374.09 2.2134 0.595098 0
M  V30 15229 C 1375.1 1.20917 1.09009 0
M  V30 15230 O 1376.29 1.47458 1.0059 0
M  V30 15231 C 1373.39 2.85384 1.82782 0
M  V30 15232 C 1372.56 4.11826 1.47372 0
M  V30 15233 C 1371.62 4.59584 2.56259 0
M  V30 15234 O 1370.65 5.24567 2.20949 0
M  V30 15235 N 1371.85 4.32709 3.86967 0
M  V30 15236 H 1374.61 2.99691 0.0229291 0
M  V30 15237 H 1372.17 1.61351 -0.133173 0
M  V30 15238 H 1374.17 3.14263 2.54992 0
M  V30 15239 H 1372.74 2.10816 2.30815 0
M  V30 15240 H 1371.96 3.89853 0.583826 0
M  V30 15241 H 1373.24 4.94138 1.21265 0
M  V30 15242 H 1372.64 3.80669 4.18458 0
M  V30 15243 H 1371.2 4.66275 4.55446 0
M  V30 15244 N 1374.63 0.0384594 1.57553 0
M  V30 15245 C 1375.91 -0.677308 1.83499 0
M  V30 15246 C 1376.29 -1.89789 0.924294 0
M  V30 15247 O 1375.64 -2.28493 -0.0178185 0
M  V30 15248 C 1375.85 -1.04667 3.32935 0
M  V30 15249 C 1377.2 -1.43436 3.99639 0
M  V30 15250 O 1378.22 -1.13938 3.37486 0
M  V30 15251 O 1377.08 -1.98435 5.09201 0
M  V30 15252 H 1374.17 -0.333131 0.756936 0
M  V30 15253 H 1376.72 0.066854 1.69568 0
M  V30 15254 H 1375.49 -0.178349 3.90893 0
M  V30 15255 H 1375.11 -1.8487 3.52007 0
M  V30 15256 N 1376.11 -1.55841 -0.234795 0
M  V30 15257 C 1377.06 -1.91326 -1.29086 0
M  V30 15258 C 1378.03 -0.768868 -1.47233 0
M  V30 15259 O 1379.21 -1.0236 -1.61019 0
M  V30 15260 C 1376.35 -2.22388 -2.6389 0
M  V30 15261 C 1375.47 -3.49693 -2.5365 0
M  V30 15262 C 1374.6 -3.70267 -3.80889 0
M  V30 15263 C 1373.64 -4.91132 -3.65317 0
M  V30 15264 N 1372.78 -5.08163 -4.84474 0
M  V30 15265 H 1377.62 -2.81382 -0.981246 0
M  V30 15266 H 1375.15 -1.3928 -0.47324 0
M  V30 15267 H 1377.11 -2.38404 -3.42373 0
M  V30 15268 H 1375.74 -1.35521 -2.92974 0
M  V30 15269 H 1374.79 -3.41943 -1.66672 0
M  V30 15270 H 1376.11 -4.38326 -2.38059 0
M  V30 15271 H 1375.26 -3.86308 -4.67815 0
M  V30 15272 H 1374 -2.7989 -3.9939 0
M  V30 15273 H 1373 -4.75054 -2.76774 0
M  V30 15274 H 1374.23 -5.8298 -3.48298 0
M  V30 15275 H 1372.18 -4.20726 -5.03314 0
M  V30 15276 H 1372.09 -5.90904 -4.71559 0
M  V30 15277 H 1373.36 -5.28627 -5.72865 0
M  V30 15278 N 1377.59 0.500963 -1.49426 0
M  V30 15279 C 1378.52 1.61114 -1.69011 0
M  V30 15280 C 1379.5 1.61341 -0.538813 0
M  V30 15281 O 1380.69 1.78081 -0.77466 0
M  V30 15282 C 1377.82 2.99598 -1.75666 0
M  V30 15283 C 1376.77 3.14236 -2.90585 0
M  V30 15284 C 1376.1 4.54071 -2.82354 0
M  V30 15285 C 1377.4 2.94258 -4.3152 0
M  V30 15286 H 1379.09 1.44978 -2.61957 0
M  V30 15287 H 1376.64 0.69603 -1.26061 0
M  V30 15288 H 1378.59 3.77163 -1.87953 0
M  V30 15289 H 1377.31 3.16822 -0.793186 0
M  V30 15290 H 1375.97 2.39096 -2.779 0
M  V30 15291 H 1375.62 4.68172 -1.83914 0
M  V30 15292 H 1375.32 4.64806 -3.59485 0
M  V30 15293 H 1376.84 5.33696 -2.96649 0
M  V30 15294 H 1378.26 3.61592 -4.44886 0
M  V30 15295 H 1376.65 3.16464 -5.09873 0
M  V30 15296 H 1377.72 1.90383 -4.45962 0
M  V30 15297 N 1379.07 1.38501 0.752011 0
M  V30 15298 C 1380.02 1.35975 1.88716 0
M  V30 15299 C 1381.01 0.245392 1.67613 0
M  V30 15300 O 1382.22 0.414514 1.75162 0
M  V30 15301 H 1378.59 0.424221 0.620919 0
M  V30 15302 H 1380.56 2.3176 1.87962 0
M  V30 15303 C 1379.31 1.20326 3.26216 0
M  V30 15304 H 1378.63 2.05336 3.43041 0
M  V30 15305 H 1380.07 1.22613 4.05884 0
M  V30 15306 C 1378.53 -0.0897029 3.36781 0
M  V30 15307 O 1379.06 -1.06615 3.87293 0
M  V30 15308 N 1377.27 -0.147065 2.90228 0
M  V30 15309 H 1376.82 0.648216 2.49311 0
M  V30 15310 H 1376.77 -1.01174 2.97676 0
M  V30 15311 N 1380.55 -0.980364 1.23396 0
M  V30 15312 C 1381.77 -1.75689 1.09275 0
M  V30 15313 C 1382.19 -1.85418 -0.355773 0
M  V30 15314 O 1381.55 -1.33337 -1.24609 0
M  V30 15315 C 1381.6 -3.18378 1.71223 0
M  V30 15316 O 1381.32 -3.09154 3.10411 0
M  V30 15317 C 1382.82 -4.12425 1.62545 0
M  V30 15318 H 1380.04 -0.551354 0.382427 0
M  V30 15319 H 1382.58 -1.23169 1.63247 0
M  V30 15320 H 1380.74 -3.67925 1.21285 0
M  V30 15321 H 1381.15 -3.9898 3.40464 0
M  V30 15322 H 1382.63 -5.1025 2.10592 0
M  V30 15323 H 1383.1 -4.35296 0.584275 0
M  V30 15324 H 1383.71 -3.68782 2.1185 0
M  V30 15325 N 1382.02 -1.04567 -1.17913 0
M  V30 15326 C 1383.44 -0.76584 -1.40025 0
M  V30 15327 C 1383.64 0.642484 -1.90983 0
M  V30 15328 O 1382.7 1.40589 -2.0974 0
M  V30 15329 C 1384.01 -1.81616 -2.39658 0
M  V30 15330 C 1385.56 -1.83765 -2.53376 0
M  V30 15331 C 1386.03 -2.87803 -3.56277 0
M  V30 15332 N 1387.52 -2.86726 -3.63789 0
M  V30 15333 C 1388.26 -3.63876 -4.4315 0
M  V30 15334 N 1387.75 -4.50793 -5.26077 0
M  V30 15335 N 1389.55 -3.52344 -4.37962 0
M  V30 15336 H 1381.7 -1.95442 -0.831647 0
M  V30 15337 H 1383.96 -0.84593 -0.42791 0
M  V30 15338 H 1383.67 -2.8266 -2.09275 0
M  V30 15339 H 1383.54 -1.65251 -3.39075 0
M  V30 15340 H 1385.93 -0.833896 -2.83073 0
M  V30 15341 H 1386.01 -2.04208 -1.54055 0
M  V30 15342 H 1385.65 -3.88361 -3.2732 0
M  V30 15343 H 1385.58 -2.64614 -4.55288 0
M  V30 15344 H 1388.07 -2.237 -3.04576 0
M  V30 15345 H 1388.39 -5.0636 -5.83798 0
M  V30 15346 H 1386.73 -4.54858 -5.2548 0
M  V30 15347 H 1389.92 -2.8384 -3.72226 0
M  V30 15348 H 1390.1 -4.12718 -4.99568 0
M  V30 15349 N 1383.5 1.34231 -0.825823 0
M  V30 15350 C 1384.75 1.98909 -0.425081 0
M  V30 15351 C 1385.1 1.64281 1.00148 0
M  V30 15352 O 1384.4 0.905666 1.68844 0
M  V30 15353 C 1384.59 3.52861 -0.56778 0
M  V30 15354 C 1384.42 4.02446 -2.00666 0
M  V30 15355 C 1383.19 4.30902 -2.63916 0
M  V30 15356 C 1385.39 4.19609 -2.97376 0
M  V30 15357 N 1383.37 4.66541 -3.99014 0
M  V30 15358 C 1384.74 4.5846 -4.1739 0
M  V30 15359 C 1386.79 4.01865 -2.93954 0
M  V30 15360 C 1385.5 4.81422 -5.34439 0
M  V30 15361 C 1387.52 4.25994 -4.10223 0
M  V30 15362 C 1386.89 4.65136 -5.28988 0
M  V30 15363 H 1382.98 0.755001 -0.203711 0
M  V30 15364 H 1385.57 1.62588 -1.07114 0
M  V30 15365 H 1383.74 3.8837 0.0483939 0
M  V30 15366 H 1385.47 4.04459 -0.139755 0
M  V30 15367 H 1382.23 4.21916 -2.15137 0
M  V30 15368 H 1382.65 4.88592 -4.68623 0
M  V30 15369 H 1387.29 3.70729 -2.03272 0
M  V30 15370 H 1385.01 5.11424 -6.25677 0
M  V30 15371 H 1388.6 4.13798 -4.08978 0
M  V30 15372 H 1387.48 4.83439 -6.1746 0
M  V30 15373 N 1384.98 0.581051 1.46498 0
M  V30 15374 C 1386.2 0.0696654 2.07283 0
M  V30 15375 C 1386.63 -1.22525 1.42721 0
M  V30 15376 O 1385.99 -1.73967 0.510421 0
M  V30 15377 C 1386.04 -0.0843864 3.60501 0
M  V30 15378 O 1385.14 -1.14129 3.96293 0
M  V30 15379 H 1384.48 0.0620572 0.661094 0
M  V30 15380 H 1387.01 0.803522 1.88161 0
M  V30 15381 H 1387.02 -0.29108 4.0696 0
M  V30 15382 H 1385.7 0.861274 4.06884 0
M  V30 15383 H 1384.27 -0.913186 3.61546 0
M  V30 15384 N 1386.46 -1.54343 0.318742 0
M  V30 15385 C 1387.39 -2.21652 -0.583351 0
M  V30 15386 C 1388.4 -1.21494 -1.08366 0
M  V30 15387 O 1389.59 -1.4799 -0.998064 0
M  V30 15388 C 1386.69 -2.86349 -1.81266 0
M  V30 15389 C 1385.86 -4.12601 -1.45186 0
M  V30 15390 C 1384.92 -4.60937 -2.53818 0
M  V30 15391 O 1383.95 -5.25731 -2.18164 0
M  V30 15392 N 1385.15 -4.34755 -3.84667 0
M  V30 15393 H 1387.92 -2.99699 -0.00703539 0
M  V30 15394 H 1385.48 -1.61278 0.141728 0
M  V30 15395 H 1387.47 -3.15611 -2.53321 0
M  V30 15396 H 1386.04 -2.12037 -2.29693 0
M  V30 15397 H 1385.26 -3.90157 -0.563143 0
M  V30 15398 H 1386.55 -4.94774 -1.18642 0
M  V30 15399 H 1385.95 -3.82883 -4.16434 0
M  V30 15400 H 1384.5 -4.68683 -4.52967 0
M  V30 15401 N 1387.94 -0.0468143 -1.5753 0
M  V30 15402 C 1389.18 0.627939 -1.92518 0
M  V30 15403 C 1389.51 1.71107 -0.924801 0
M  V30 15404 O 1388.77 1.95597 0.0635812 0
M  V30 15405 C 1389.06 1.26669 -3.342 0
M  V30 15406 C 1388.73 0.312184 -4.49818 0
M  V30 15407 C 1387.39 0.0495202 -4.81175 0
M  V30 15408 C 1389.74 -0.342228 -5.20075 0
M  V30 15409 C 1387.07 -0.875064 -5.80137 0
M  V30 15410 C 1389.42 -1.25498 -6.20027 0
M  V30 15411 C 1388.09 -1.52636 -6.49814 0
M  V30 15412 H 1387.36 0.229779 -0.704473 0
M  V30 15413 H 1390.01 -0.112363 -1.9117 0
M  V30 15414 H 1388.31 2.08215 -3.31894 0
M  V30 15415 H 1390.01 1.79563 -3.5855 0
M  V30 15416 H 1386.6 0.527088 -4.25347 0
M  V30 15417 H 1390.78 -0.152384 -4.96066 0
M  V30 15418 H 1386.04 -1.09284 -6.01554 0
M  V30 15419 H 1390.21 -1.76815 -6.7358 0
M  V30 15420 H 1387.84 -2.24443 -7.26312 0
M  V30 15421 N 1389.41 1.55964 0.226527 0
M  V30 15422 C 1390.83 1.48844 0.575999 0
M  V30 15423 C 1391.03 0.740966 1.87382 0
M  V30 15424 O 1390.09 0.278599 2.50958 0
M  V30 15425 C 1391.4 2.93371 0.65984 0
M  V30 15426 C 1392.95 3.03862 0.750802 0
M  V30 15427 C 1393.42 4.49738 0.86603 0
M  V30 15428 N 1394.91 4.5376 0.930379 0
M  V30 15429 C 1395.65 5.63905 1.03916 0
M  V30 15430 N 1395.14 6.83814 1.1122 0
M  V30 15431 N 1396.94 5.51746 1.07391 0
M  V30 15432 H 1389.09 2.02991 -0.625179 0
M  V30 15433 H 1391.35 0.922435 -0.218674 0
M  V30 15434 H 1391.06 3.50985 -0.22411 0
M  V30 15435 H 1390.93 3.44994 1.52509 0
M  V30 15436 H 1393.32 2.46316 1.6252 0
M  V30 15437 H 1393.4 2.55416 -0.140019 0
M  V30 15438 H 1393.04 5.079 -0.00388632 0
M  V30 15439 H 1392.97 4.95884 1.77219 0
M  V30 15440 H 1395.46 3.67404 0.884451 0
M  V30 15441 H 1395.78 7.63507 1.19484 0
M  V30 15442 H 1394.12 6.86535 1.08142 0
M  V30 15443 H 1397.31 4.56997 1.01347 0
M  V30 15444 H 1397.49 6.37619 1.15523 0
M  V30 15445 N 1390.89 -0.493031 1.4969 0
M  V30 15446 C 1391.8 -1.61991 1.69694 0
M  V30 15447 C 1392.82 -1.64061 0.579641 0
M  V30 15448 O 1393.99 -1.82335 0.855323 0
M  V30 15449 C 1391.06 -2.98323 1.76648 0
M  V30 15450 C 1390.12 -3.06816 3.00271 0
M  V30 15451 C 1389.35 -4.36644 3.06883 0
M  V30 15452 O 1389.58 -5.25901 2.20872 0
M  V30 15453 O 1388.51 -4.50275 3.99419 0
M  V30 15454 H 1392.34 -1.48042 2.65174 0
M  V30 15455 H 1389.92 -0.670182 1.33525 0
M  V30 15456 H 1391.8 -3.79335 1.83529 0
M  V30 15457 H 1390.48 -3.12517 0.843482 0
M  V30 15458 H 1389.39 -2.24962 2.98903 0
M  V30 15459 H 1390.72 -2.97551 3.92077 0
M  V30 15460 N 1392.37 -1.38898 -0.744656 0
M  V30 15461 C 1393.3 -1.39571 -1.87195 0
M  V30 15462 C 1394.28 -0.260372 -1.68095 0
M  V30 15463 O 1395.47 -0.464776 -1.88556 0
M  V30 15464 C 1392.6 -1.22889 -3.24832 0
M  V30 15465 C 1391.55 -2.33721 -3.58551 0
M  V30 15466 C 1390.88 -2.02136 -4.9502 0
M  V30 15467 C 1392.18 -3.7601 -3.62511 0
M  V30 15468 H 1393.87 -2.33908 -1.86889 0
M  V30 15469 H 1391.42 -1.12591 -0.897739 0
M  V30 15470 H 1393.37 -1.21983 -4.03359 0
M  V30 15471 H 1392.09 -0.250172 -3.2564 0
M  V30 15472 H 1390.75 -2.33828 -2.82348 0
M  V30 15473 H 1390.4 -1.02726 -4.92399 0
M  V30 15474 H 1390.1 -2.76371 -5.18549 0
M  V30 15475 H 1391.62 -2.02864 -5.75915 0
M  V30 15476 H 1393.04 -3.77885 -4.31133 0
M  V30 15477 H 1391.44 -4.49524 -3.97553 0
M  V30 15478 H 1392.51 -4.07682 -2.62533 0
M  V30 15479 N 1393.85 0.973806 -1.23914 0
M  V30 15480 C 1395.09 1.71852 -1.07678 0
M  V30 15481 C 1395.43 1.90357 0.384425 0
M  V30 15482 O 1394.7 1.46063 1.28436 0
M  V30 15483 C 1394.99 3.1129 -1.81026 0
M  V30 15484 C 1394.84 3.00315 -3.3486 0
M  V30 15485 C 1396.16 4.10835 -1.57805 0
M  V30 15486 H 1393.28 0.623749 -0.392564 0
M  V30 15487 H 1395.92 1.13325 -1.52504 0
M  V30 15488 H 1394.07 3.61255 -1.42922 0
M  V30 15489 H 1395.74 2.57823 -3.82524 0
M  V30 15490 H 1393.98 2.36667 -3.63553 0
M  V30 15491 H 1394.65 3.9907 -3.81376 0
M  V30 15492 H 1397.13 3.69705 -1.90939 0
M  V30 15493 H 1396.01 5.06478 -2.11591 0
M  V30 15494 H 1396.27 4.39091 -0.514894 0
M  V30 15495 N 1395.33 1.05191 1.17357 0
M  V30 15496 C 1396.6 0.675826 1.83554 0
M  V30 15497 C 1396.98 -0.843812 1.93502 0
M  V30 15498 O 1396.33 -1.74975 1.46956 0
M  V30 15499 C 1396.54 1.36481 3.21207 0
M  V30 15500 C 1397.89 1.50285 3.97114 0
M  V30 15501 O 1398.91 1.32382 3.30686 0
M  V30 15502 O 1397.77 1.79562 5.16159 0
M  V30 15503 H 1394.87 0.237898 0.792044 0
M  V30 15504 H 1397.41 1.1515 1.24654 0
M  V30 15505 H 1396.18 2.40156 3.08935 0
M  V30 15506 H 1395.81 0.878491 3.87774 0
M  V30 15507 N 1396.8 -1.33791 0.83293 0
M  V30 15508 C 1398.22 -1.50893 0.519955 0
M  V30 15509 C 1398.42 -1.7749 -0.953919 0
M  V30 15510 O 1397.48 -1.83168 -1.73798 0
M  V30 15511 C 1398.79 -2.66741 1.38815 0
M  V30 15512 C 1400.34 -2.80625 1.38631 0
M  V30 15513 C 1400.81 -3.99528 2.23922 0
M  V30 15514 N 1402.3 -4.06753 2.21599 0
M  V30 15515 C 1403.04 -4.97937 2.84335 0
M  V30 15516 N 1402.53 -5.94276 3.561 0
M  V30 15517 N 1404.33 -4.90887 2.73837 0
M  V30 15518 H 1396.48 -1.14788 1.7871 0
M  V30 15519 H 1398.74 -0.563822 0.762108 0
M  V30 15520 H 1398.45 -2.53748 2.43525 0
M  V30 15521 H 1398.32 -3.62001 1.05996 0
M  V30 15522 H 1400.71 -2.93053 0.346951 0
M  V30 15523 H 1400.79 -1.86144 1.75454 0
M  V30 15524 H 1400.43 -3.8786 3.27914 0
M  V30 15525 H 1400.36 -4.93242 1.84444 0
M  V30 15526 H 1402.85 -3.37802 1.69406 0
M  V30 15527 H 1403.17 -6.60504 4.01191 0
M  V30 15528 H 1401.51 -5.9437 3.60207 0
M  V30 15529 H 1404.7 -4.14586 2.17338 0
M  V30 15530 H 1404.88 -5.61752 3.23014 0
M  V30 15531 N 1398.28 -0.588812 -1.46187 0
M  V30 15532 C 1399.23 0.140932 -2.30369 0
M  V30 15533 C 1400.2 0.878216 -1.40984 0
M  V30 15534 O 1401.38 0.867678 -1.69929 0
M  V30 15535 C 1398.52 1.14468 -3.25563 0
M  V30 15536 C 1397.64 0.410215 -4.30048 0
M  V30 15537 C 1396.77 1.40203 -5.12364 0
M  V30 15538 C 1395.81 0.65431 -6.08593 0
M  V30 15539 N 1394.95 1.59448 -6.83755 0
M  V30 15540 H 1399.79 -0.582976 -2.92242 0
M  V30 15541 H 1397.33 -0.299302 -1.44023 0
M  V30 15542 H 1399.28 1.73957 -3.79203 0
M  V30 15543 H 1397.91 1.83623 -2.65485 0
M  V30 15544 H 1396.97 -0.299822 -3.79217 0
M  V30 15545 H 1398.28 -0.174043 -4.98496 0
M  V30 15546 H 1397.43 2.06953 -5.70312 0
M  V30 15547 H 1396.17 2.02022 -4.4389 0
M  V30 15548 H 1395.18 -0.0269371 -5.49793 0
M  V30 15549 H 1396.4 0.0414285 -6.79087 0
M  V30 15550 H 1394.35 2.20066 -6.17986 0
M  V30 15551 H 1394.26 1.06318 -7.48487 0
M  V30 15552 H 1395.53 2.25215 -7.46256 0
M  V30 15553 N 1399.76 1.54172 -0.326923 0
M  V30 15554 C 1400.71 2.24454 0.537501 0
M  V30 15555 C 1401.68 1.23658 1.10896 0
M  V30 15556 O 1402.86 1.52348 1.14868 0
M  V30 15557 C 1400 3.00839 1.69085 0
M  V30 15558 C 1399.12 4.16459 1.1483 0
M  V30 15559 C 1398.25 4.80368 2.26761 0
M  V30 15560 C 1397.29 5.88085 1.69771 0
M  V30 15561 N 1396.43 6.45842 2.75378 0
M  V30 15562 H 1401.27 2.97921 -0.0684022 0
M  V30 15563 H 1398.8 1.4703 -0.0455287 0
M  V30 15564 H 1400.76 3.43375 2.36959 0
M  V30 15565 H 1399.39 2.297 2.26799 0
M  V30 15566 H 1398.44 3.78683 0.361004 0
M  V30 15567 H 1399.76 4.93986 0.69132 0
M  V30 15568 H 1398.91 5.25889 3.02533 0
M  V30 15569 H 1397.65 4.02228 2.75796 0
M  V30 15570 H 1396.65 5.41963 0.924985 0
M  V30 15571 H 1397.88 6.68123 1.21609 0
M  V30 15572 H 1395.82 5.70574 3.23699 0
M  V30 15573 H 1395.74 7.18792 2.34253 0
M  V30 15574 H 1397.01 6.96018 3.50969 0
M  V30 15575 N 1401.24 0.0551678 1.57503 0
M  V30 15576 C 1402.52 -0.657808 1.84207 0
M  V30 15577 C 1402.9 -1.88798 0.944372 0
M  V30 15578 O 1402.24 -2.28499 0.00641728 0
M  V30 15579 C 1402.45 -1.0113 3.34026 0
M  V30 15580 C 1403.8 -1.39189 4.01138 0
M  V30 15581 O 1404.83 -1.10353 3.38675 0
M  V30 15582 O 1403.68 -1.93023 5.11277 0
M  V30 15583 H 1400.78 -0.325084 0.760427 0
M  V30 15584 H 1403.32 0.0848352 1.69488 0
M  V30 15585 H 1402.1 -0.13688 3.91061 0
M  V30 15586 H 1401.72 -1.81126 3.53948 0
M  V30 15587 N 1402.72 -1.56081 -0.218252 0
M  V30 15588 C 1403.68 -1.91851 -1.25402 0
M  V30 15589 C 1404.68 -0.797399 -1.39636 0
M  V30 15590 O 1405.87 -1.06511 -1.37844 0
M  V30 15591 C 1403 -2.17223 -2.6273 0
M  V30 15592 H 1404.19 -2.84493 -0.948882 0
M  V30 15593 H 1401.75 -1.49414 -0.458809 0
M  V30 15594 H 1402.48 -1.27144 -2.98337 0
M  V30 15595 H 1402.27 -2.98899 -2.53775 0
M  V30 15596 H 1403.76 -2.45981 -3.37466 0
M  V30 15597 N 1404.2 0.485086 -1.49949 0
M  V30 15598 C 1405.13 1.59312 -1.7071 0
M  V30 15599 C 1406.11 1.6076 -0.555896 0
M  V30 15600 O 1407.29 1.77249 -0.793504 0
M  V30 15601 C 1404.42 2.97718 -1.78834 0
M  V30 15602 C 1403.38 3.11136 -2.93902 0
M  V30 15603 C 1402.7 4.51051 -2.87154 0
M  V30 15604 C 1404 2.89665 -4.34617 0
M  V30 15605 H 1405.7 1.42192 -2.6348 0
M  V30 15606 H 1403.24 0.68262 -1.26792 0
M  V30 15607 H 1405.19 3.75148 -1.91943 0
M  V30 15608 H 1403.92 3.15963 -0.826744 0
M  V30 15609 H 1402.58 2.36135 -2.80421 0
M  V30 15610 H 1402.23 4.66195 -1.88869 0
M  V30 15611 H 1401.93 4.60967 -3.64394 0
M  V30 15612 H 1403.45 5.3052 -3.02293 0
M  V30 15613 H 1404.86 3.56853 -4.48697 0
M  V30 15614 H 1403.26 3.11039 -5.13201 0
M  V30 15615 H 1404.33 1.85642 -4.47956 0
M  V30 15616 N 1405.67 1.39291 0.737279 0
M  V30 15617 C 1406.6 1.40562 1.86452 0
M  V30 15618 C 1407.58 0.269283 1.67955 0
M  V30 15619 O 1408.77 0.474769 1.88307 0
M  V30 15620 C 1405.9 1.2461 3.24175 0
M  V30 15621 C 1404.85 2.35619 3.57306 0
M  V30 15622 C 1404.18 2.04758 4.93941 0
M  V30 15623 C 1405.48 3.77927 3.60512 0
M  V30 15624 H 1407.17 2.34896 1.85646 0
M  V30 15625 H 1404.72 1.13065 0.891756 0
M  V30 15626 H 1406.67 1.2412 4.02706 0
M  V30 15627 H 1405.4 0.267438 3.25503 0
M  V30 15628 H 1404.06 2.35322 2.81104 0
M  V30 15629 H 1403.7 1.05336 4.91847 0
M  V30 15630 H 1403.4 2.79117 5.17076 0
M  V30 15631 H 1404.93 2.05915 5.74832 0
M  V30 15632 H 1406.34 3.80166 4.29123 0
M  V30 15633 H 1404.74 4.51626 3.95164 0
M  V30 15634 H 1405.81 4.09068 2.60368 0
M  V30 15635 N 1407.15 -0.967221 1.24429 0
M  V30 15636 C 1408.38 -1.75053 1.11226 0
M  V30 15637 C 1408.8 -1.85162 -0.331139 0
M  V30 15638 O 1408.16 -1.32288 -1.23974 0
M  V30 15639 C 1408.21 -3.14882 1.75733 0
M  V30 15640 O 1407.31 -3.99371 1.02842 0
M  V30 15641 H 1406.65 -0.538078 0.389061 0
M  V30 15642 H 1409.18 -1.21325 1.64746 0
M  V30 15643 H 1409.19 -3.65402 1.81509 0
M  V30 15644 H 1407.87 -3.06839 2.80754 0
M  V30 15645 H 1406.44 -3.57854 1.04856 0
M  V30 15646 N 1408.63 -1.05812 -1.16797 0
M  V30 15647 C 1409.59 -0.668766 -2.19226 0
M  V30 15648 C 1410.59 0.28299 -1.5829 0
M  V30 15649 O 1411.78 0.0660233 -1.74075 0
M  V30 15650 C 1408.91 0.0167379 -3.40896 0
M  V30 15651 H 1410.11 -1.57543 -2.55187 0
M  V30 15652 H 1407.66 -0.852753 -1.30988 0
M  V30 15653 H 1408.4 0.936382 -3.10487 0
M  V30 15654 H 1408.18 -0.667576 -3.86375 0
M  V30 15655 H 1409.67 0.275041 -4.16693 0
M  V30 15656 N 1410.11 1.33347 -0.840014 0
M  V30 15657 C 1411.04 2.31703 -0.289138 0
M  V30 15658 C 1412.02 1.59024 0.603759 0
M  V30 15659 O 1413.2 1.86911 0.527071 0
M  V30 15660 C 1410.33 3.43144 0.53566 0
M  V30 15661 C 1409.29 4.272 -0.261544 0
M  V30 15662 C 1408.61 5.30267 0.687075 0
M  V30 15663 C 1409.91 5.00915 -1.47924 0
M  V30 15664 H 1411.61 2.78026 -1.11094 0
M  V30 15665 H 1409.15 1.33666 -0.535658 0
M  V30 15666 H 1411.11 4.10979 0.931351 0
M  V30 15667 H 1409.83 2.95512 1.39069 0
M  V30 15668 H 1408.49 3.60991 -0.638809 0
M  V30 15669 H 1408.14 4.78893 1.53853 0
M  V30 15670 H 1407.84 5.87388 0.157773 0
M  V30 15671 H 1409.36 6.00968 1.08026 0
M  V30 15672 H 1410.78 5.61511 -1.15664 0
M  V30 15673 H 1409.17 5.67692 -1.94541 0
M  V30 15674 H 1410.24 4.29622 -2.24839 0
M  V30 15675 N 1411.59 0.596556 1.45873 0
M  V30 15676 C 1412.81 0.0916466 2.07197 0
M  V30 15677 C 1413.24 -1.21004 1.44012 0
M  V30 15678 O 1412.59 -1.73415 0.528844 0
M  V30 15679 C 1412.64 -0.0461457 3.6057 0
M  V30 15680 O 1411.75 -1.09919 3.97481 0
M  V30 15681 H 1411.09 0.0690655 0.660398 0
M  V30 15682 H 1413.62 0.823434 1.87299 0
M  V30 15683 H 1413.63 -0.2479 4.07246 0
M  V30 15684 H 1412.3 0.904381 4.05948 0
M  V30 15685 H 1410.88 -0.874788 3.62494 0
M  V30 15686 N 1413.06 -1.53996 0.335095 0
M  V30 15687 C 1414.31 -1.99952 -0.264954 0
M  V30 15688 C 1414.63 -1.22696 -1.52332 0
M  V30 15689 O 1415.83 -1.59086 -2.20009 0
M  V30 15690 C 1414.29 -3.56085 -0.522667 0
M  V30 15691 C 1413.9 -4.42188 0.719314 0
M  V30 15692 C 1415.64 -4.10478 -1.08204 0
M  V30 15693 C 1413.55 -5.89814 0.432867 0
M  V30 15694 H 1412.48 -0.746962 -0.102782 0
M  V30 15695 H 1415.13 -1.77919 0.449111 0
M  V30 15696 H 1413.51 -3.7415 -1.29722 0
M  V30 15697 H 1414.68 -4.35898 1.49432 0
M  V30 15698 H 1413 -3.98743 1.19972 0
M  V30 15699 H 1415.6 -5.18375 -1.31116 0
M  V30 15700 H 1415.94 -3.63173 -2.03497 0
M  V30 15701 H 1416.47 -3.96091 -0.368395 0
M  V30 15702 H 1413.21 -6.41336 1.35529 0
M  V30 15703 H 1412.73 -5.99028 -0.304214 0
M  V30 15704 H 1414.41 -6.46983 0.0469657 0
M  V30 15705 N 1414.54 -0.0635198 -1.57472 0
M  V30 15706 C 1415.47 0.93602 -2.09216 0
M  V30 15707 C 1416.49 1.2668 -1.02255 0
M  V30 15708 O 1417.68 1.22543 -1.2979 0
M  V30 15709 C 1414.78 2.25417 -2.53062 0
M  V30 15710 C 1413.95 2.10347 -3.83501 0
M  V30 15711 C 1413.01 3.25394 -4.13528 0
M  V30 15712 O 1412.03 3.00751 -4.83257 0
M  V30 15713 N 1413.24 4.50243 -3.66417 0
M  V30 15714 H 1416 0.494288 -2.95596 0
M  V30 15715 H 1413.56 0.122416 -1.61437 0
M  V30 15716 H 1415.55 3.01272 -2.70217 0
M  V30 15717 H 1414.12 2.61116 -1.71864 0
M  V30 15718 H 1413.34 1.19009 -3.75807 0
M  V30 15719 H 1414.63 1.97519 -4.68896 0
M  V30 15720 H 1414.03 4.73152 -3.1007 0
M  V30 15721 H 1412.59 5.23152 -3.88787 0
M  V30 15722 N 1416.02 1.56195 0.209972 0
M  V30 15723 C 1416.97 1.94226 1.27981 0
M  V30 15724 C 1417.96 0.825742 1.47912 0
M  V30 15725 O 1419.17 1.01066 1.48949 0
M  V30 15726 H 1415.54 0.617395 0.429333 0
M  V30 15727 H 1417.51 2.83474 0.931946 0
M  V30 15728 C 1416.26 2.28527 2.62051 0
M  V30 15729 H 1415.59 3.1396 2.47526 0
M  V30 15730 H 1417.03 2.59012 3.35692 0
M  V30 15731 C 1415.48 1.11452 3.17931 0
M  V30 15732 O 1416.01 0.381713 3.99882 0
M  V30 15733 N 1414.22 0.895263 2.76466 0
M  V30 15734 H 1413.77 1.4929 2.09929 0
M  V30 15735 H 1413.73 0.113688 3.14194 0
M  V30 15736 N 1417.5 -0.477127 1.50204 0
M  V30 15737 C 1418.73 -1.25126 1.64399 0
M  V30 15738 C 1419.14 -1.86401 0.32424 0
M  V30 15739 O 1418.48 -1.69711 -0.703119 0
M  V30 15740 C 1418.54 -2.40428 2.67273 0
M  V30 15741 C 1418.2 -1.99837 4.10992 0
M  V30 15742 C 1419.2 -1.52435 4.97051 0
M  V30 15743 C 1416.89 -2.08742 4.56872 0
M  V30 15744 C 1418.88 -1.14472 6.27037 0
M  V30 15745 C 1416.57 -1.70391 5.86865 0
M  V30 15746 C 1417.57 -1.23333 6.71772 0
M  V30 15747 O 1417.25 -0.855111 7.99339 0
M  V30 15748 H 1416.99 -0.384801 0.555791 0
M  V30 15749 H 1419.54 -0.576654 1.97139 0
M  V30 15750 H 1417.77 -3.1104 2.29763 0
M  V30 15751 H 1419.46 -3.02406 2.7075 0
M  V30 15752 H 1420.22 -1.44981 4.62823 0
M  V30 15753 H 1416.1 -2.44319 3.90934 0
M  V30 15754 H 1419.65 -0.776712 6.93263 0
M  V30 15755 H 1415.54 -1.77501 6.20615 0
M  V30 15756 H 1416.31 -0.984492 8.12558 0
M  V30 15757 N 1418.98 -1.3968 -0.729882 0
M  V30 15758 C 1419.93 -1.35296 -1.83518 0
M  V30 15759 C 1420.91 -0.232935 -1.59205 0
M  V30 15760 O 1422.1 -0.470887 -1.70621 0
M  V30 15761 C 1419.23 -1.20383 -3.21501 0
M  V30 15762 C 1418.32 -2.37108 -3.51626 0
M  V30 15763 N 1418.71 -3.62585 -3.52655 0
M  V30 15764 C 1417.01 -2.30177 -3.82014 0
M  V30 15765 C 1417.71 -4.39803 -3.8072 0
M  V30 15766 N 1416.68 -3.69456 -3.98752 0
M  V30 15767 H 1420.49 -2.30271 -1.82627 0
M  V30 15768 H 1418 -1.33249 -0.92836 0
M  V30 15769 H 1420 -1.15325 -4.00632 0
M  V30 15770 H 1418.66 -0.263628 -3.23628 0
M  V30 15771 H 1419.67 -3.9594 -3.33845 0
M  V30 15772 H 1416.34 -1.44446 -3.91716 0
M  V30 15773 H 1417.73 -5.4859 -3.87941 0
M  V30 15774 N 1420.45 0.960609 -1.2494 0
M  V30 15775 C 1421.38 2.074 -1.07274 0
M  V30 15776 C 1422.37 1.70092 0.0164365 0
M  V30 15777 O 1423.55 1.93604 -0.151975 0
M  V30 15778 C 1420.68 3.40491 -0.684317 0
M  V30 15779 C 1419.63 3.91784 -1.72306 0
M  V30 15780 C 1418.96 5.21301 -1.18949 0
M  V30 15781 C 1420.26 4.18829 -3.12056 0
M  V30 15782 H 1421.95 2.22438 -2.00404 0
M  V30 15783 H 1419.5 1.06888 -0.964937 0
M  V30 15784 H 1421.45 4.17826 -0.547686 0
M  V30 15785 H 1420.18 3.25374 0.282687 0
M  V30 15786 H 1418.84 3.16613 -1.84802 0
M  V30 15787 H 1418.48 5.02549 -0.212892 0
M  V30 15788 H 1418.18 5.56588 -1.8837 0
M  V30 15789 H 1419.71 6.01238 -1.06513 0
M  V30 15790 H 1421.12 4.86844 -3.02748 0
M  V30 15791 H 1419.52 4.6536 -3.78894 0
M  V30 15792 H 1420.59 3.25333 -3.59564 0
M  V30 15793 N 1421.93 1.0643 1.16234 0
M  V30 15794 C 1422.84 0.687446 2.24302 0
M  V30 15795 C 1423.86 -0.297132 1.71444 0
M  V30 15796 O 1425.03 -0.146101 2.00869 0
M  V30 15797 C 1422.1 0.0810973 3.46605 0
M  V30 15798 C 1421.16 1.11772 4.14494 0
M  V30 15799 C 1420.39 0.54021 5.30959 0
M  V30 15800 O 1420.62 -0.646619 5.66723 0
M  V30 15801 O 1419.55 1.28057 5.8812 0
M  V30 15802 H 1423.38 1.58842 2.58849 0
M  V30 15803 H 1420.96 0.836649 1.23776 0
M  V30 15804 H 1422.84 -0.25524 4.20626 0
M  V30 15805 H 1421.52 -0.793338 3.13828 0
M  V30 15806 H 1420.43 1.50626 3.42436 0
M  V30 15807 H 1421.76 1.96373 4.5133 0
M  V30 15808 N 1423.41 -1.329 0.847073 0
M  V30 15809 C 1424.65 -1.99318 0.45294 0
M  V30 15810 C 1425.01 -1.65606 -0.971536 0
M  V30 15811 O 1426.22 -2.25054 -1.46983 0
M  V30 15812 C 1424.49 -3.50938 0.67656 0
M  V30 15813 S 1426.05 -4.37161 0.378869 0
M  V30 15814 H 1422.86 -0.690376 0.170008 0
M  V30 15815 H 1425.47 -1.61744 1.09814 0
M  V30 15816 H 1424.17 -3.72963 1.71252 0
M  V30 15817 H 1423.7 -3.93396 0.0175049 0
M  V30 15818 H 1425.72 -4.89739 -0.79813 0
M  V30 15819 N 1424.89 -0.604284 -1.45555 0
M  V30 15820 C 1425.84 0.129013 -2.32242 0
M  V30 15821 C 1426.83 0.862933 -1.45773 0
M  V30 15822 O 1428.04 0.778874 -1.62276 0
M  V30 15823 H 1424.41 0.0604661 -0.749565 0
M  V30 15824 H 1426.38 -0.620603 -2.91875 0
M  V30 15825 C 1425.13 1.11516 -3.29332 0
M  V30 15826 H 1424.45 0.559849 -3.95861 0
M  V30 15827 H 1425.89 1.59824 -3.92724 0
M  V30 15828 C 1424.35 2.18706 -2.5626 0
M  V30 15829 O 1424.88 3.26397 -2.34154 0
M  V30 15830 N 1423.09 1.93899 -2.16452 0
M  V30 15831 H 1422.64 1.0633 -2.34631 0
M  V30 15832 H 1422.59 2.65824 -1.67884 0
M  V30 15833 N 1426.37 1.53816 -0.343257 0
M  V30 15834 C 1427.28 2.28716 0.522121 0
M  V30 15835 C 1428.29 1.33815 1.11218 0
M  V30 15836 O 1429.47 1.66853 1.12793 0
M  V30 15837 C 1426.53 3.04517 1.65741 0
M  V30 15838 C 1425.59 4.15043 1.09716 0
M  V30 15839 C 1424.83 4.8722 2.17835 0
M  V30 15840 O 1425.05 4.59065 3.38549 0
M  V30 15841 O 1423.98 5.73678 1.82145 0
M  V30 15842 H 1427.81 3.03576 -0.086732 0
M  V30 15843 H 1425.4 1.49007 -0.108313 0
M  V30 15844 H 1427.28 3.51921 2.31796 0
M  V30 15845 H 1425.95 2.32514 2.25208 0
M  V30 15846 H 1424.86 3.71943 0.401152 0
M  V30 15847 H 1426.19 4.89147 0.547362 0
M  V30 15848 N 1427.84 0.0718701 1.57436 0
M  V30 15849 C 1429.07 -0.606253 1.97819 0
M  V30 15850 C 1429.49 -1.63144 0.950233 0
M  V30 15851 O 1428.84 -1.82391 -0.0631051 0
M  V30 15852 C 1428.9 -1.27476 3.38278 0
M  V30 15853 O 1428.62 -0.290603 4.37135 0
M  V30 15854 C 1430.12 -2.0407 3.93536 0
M  V30 15855 H 1427.34 -0.164305 0.650573 0
M  V30 15856 H 1429.88 0.144295 2.0399 0
M  V30 15857 H 1428.04 -1.97639 3.33193 0
M  V30 15858 H 1428.45 -0.77022 5.18814 0
M  V30 15859 H 1429.92 -2.46237 4.94036 0
M  V30 15860 H 1430.4 -2.89728 3.30083 0
M  V30 15861 H 1431.01 -1.38773 4.02022 0
M  V30 15862 N 1429.32 -1.56304 -0.201686 0
M  V30 15863 C 1430.27 -1.94021 -1.24999 0
M  V30 15864 C 1431.24 -0.799926 -1.45569 0
M  V30 15865 O 1432.42 -1.05752 -1.58811 0
M  V30 15866 C 1429.56 -2.27935 -2.59113 0
M  V30 15867 C 1428.68 -3.54995 -2.46176 0
M  V30 15868 C 1427.81 -3.78262 -3.72949 0
M  V30 15869 C 1426.85 -4.9877 -3.54817 0
M  V30 15870 N 1425.99 -5.18325 -4.73586 0
M  V30 15871 H 1430.83 -2.834 -0.92134 0
M  V30 15872 H 1428.37 -1.40252 -0.44359 0
M  V30 15873 H 1430.32 -2.45613 -3.37239 0
M  V30 15874 H 1428.95 -1.41705 -2.90034 0
M  V30 15875 H 1428.01 -3.45401 -1.59381 0
M  V30 15876 H 1429.32 -4.43277 -2.28708 0
M  V30 15877 H 1428.47 -3.96144 -4.59516 0
M  V30 15878 H 1427.21 -2.88299 -3.93364 0
M  V30 15879 H 1426.22 -4.80818 -2.66635 0
M  V30 15880 H 1427.44 -5.90237 -3.35854 0
M  V30 15881 H 1425.39 -4.31308 -4.94277 0
M  V30 15882 H 1425.3 -6.00774 -4.58919 0
M  V30 15883 H 1426.57 -5.40659 -5.61523 0
M  V30 15884 N 1430.8 0.469154 -1.50455 0
M  V30 15885 C 1432.03 1.24899 -1.65575 0
M  V30 15886 C 1432.45 1.85009 -0.339581 0
M  V30 15887 O 1431.81 1.67376 0.696774 0
M  V30 15888 C 1431.86 2.33205 -2.75041 0
M  V30 15889 O 1430.96 3.37898 -2.36429 0
M  V30 15890 H 1430.3 0.367362 -0.553119 0
M  V30 15891 H 1432.83 0.558083 -1.96842 0
M  V30 15892 H 1432.84 2.78487 -2.98176 0
M  V30 15893 H 1431.52 1.88826 -3.70564 0
M  V30 15894 H 1430.09 2.98314 -2.23748 0
M  V30 15895 N 1432.28 1.40065 0.722464 0
M  V30 15896 C 1433.52 1.39178 1.48328 0
M  V30 15897 C 1433.88 -0.00849644 1.92398 0
M  V30 15898 O 1433.17 -0.977541 1.64787 0
M  V30 15899 C 1433.37 2.30949 2.72759 0
M  V30 15900 C 1433.2 3.7976 2.40857 0
M  V30 15901 C 1431.97 4.48615 2.32535 0
M  V30 15902 C 1434.16 4.71426 2.05576 0
M  V30 15903 N 1432.15 5.82695 1.93236 0
M  V30 15904 C 1433.52 5.94251 1.76822 0
M  V30 15905 C 1435.57 4.59327 1.92153 0
M  V30 15906 C 1434.27 7.06327 1.35996 0
M  V30 15907 C 1436.3 5.71338 1.5273 0
M  V30 15908 C 1435.66 6.93244 1.24869 0
M  V30 15909 H 1431.76 0.564547 0.541119 0
M  V30 15910 H 1434.35 1.7572 0.838475 0
M  V30 15911 H 1432.52 1.96545 3.35 0
M  V30 15912 H 1434.25 2.20967 3.39051 0
M  V30 15913 H 1431 4.0221 2.50048 0
M  V30 15914 H 1431.43 6.53684 1.76144 0
M  V30 15915 H 1436.07 3.65602 2.12356 0
M  V30 15916 H 1433.79 7.99942 1.14535 0
M  V30 15917 H 1437.37 5.6397 1.42932 0
M  V30 15918 H 1436.25 7.78446 0.948221 0
M  V30 15919 N 1433.76 -0.95397 1.25448 0
M  V30 15920 C 1435.01 -1.69305 1.09631 0
M  V30 15921 C 1435.32 -1.92213 -0.362413 0
M  V30 15922 O 1436.53 -2.63824 -0.641036 0
M  V30 15923 C 1434.98 -3.04805 1.91369 0
M  V30 15924 C 1434.59 -2.8969 3.41737 0
M  V30 15925 C 1436.33 -3.82491 1.84123 0
M  V30 15926 C 1434.24 -4.20584 4.15768 0
M  V30 15927 H 1433.17 -0.63494 0.406654 0
M  V30 15928 H 1435.82 -1.06195 1.49649 0
M  V30 15929 H 1434.2 -3.68822 1.44174 0
M  V30 15930 H 1435.38 -2.346 3.9661 0
M  V30 15931 H 1433.69 -2.25458 3.50082 0
M  V30 15932 H 1436.29 -4.79442 2.36727 0
M  V30 15933 H 1436.63 -4.08358 0.809265 0
M  V30 15934 H 1437.17 -3.25224 2.29072 0
M  V30 15935 H 1433.9 -3.99905 5.19381 0
M  V30 15936 H 1433.42 -4.75436 3.65678 0
M  V30 15937 H 1435.1 -4.89122 4.2352 0
M  V30 15938 N 1435.24 -1.07045 -1.15668 0
M  V30 15939 C 1436.65 -0.795369 -1.38369 0
M  V30 15940 C 1436.85 0.601829 -1.92303 0
M  V30 15941 O 1435.91 1.36109 -2.12675 0
M  V30 15942 C 1437.22 -1.86659 -2.35752 0
M  V30 15943 C 1438.77 -1.89098 -2.49421 0
M  V30 15944 C 1439.24 -2.95296 -3.50092 0
M  V30 15945 N 1440.73 -2.94378 -3.57625 0
M  V30 15946 C 1441.47 -3.73194 -4.35331 0
M  V30 15947 N 1440.97 -4.61851 -5.16397 0
M  V30 15948 N 1442.76 -3.61554 -4.30389 0
M  V30 15949 H 1434.91 -1.97162 -0.790004 0
M  V30 15950 H 1437.17 -0.854816 -0.40987 0
M  V30 15951 H 1436.88 -2.87036 -2.03232 0
M  V30 15952 H 1436.75 -1.72406 -3.35494 0
M  V30 15953 H 1439.14 -0.893752 -2.8124 0
M  V30 15954 H 1439.22 -2.07429 -1.49689 0
M  V30 15955 H 1438.86 -3.95217 -3.19008 0
M  V30 15956 H 1438.79 -2.74212 -4.49572 0
M  V30 15957 H 1441.29 -2.3011 -2.99763 0
M  V30 15958 H 1441.6 -5.18629 -5.72926 0
M  V30 15959 H 1439.94 -4.65902 -5.15714 0
M  V30 15960 H 1443.13 -2.91672 -3.66122 0
M  V30 15961 H 1443.31 -4.23221 -4.90701 0
M  V30 15962 N 1436.71 1.32449 -0.85411 0
M  V30 15963 C 1437.62 2.32658 -0.301221 0
M  V30 15964 C 1438.64 1.64025 0.580673 0
M  V30 15965 O 1439.82 1.95568 0.481172 0
M  V30 15966 C 1436.88 3.43049 0.501803 0
M  V30 15967 C 1435.94 4.27374 -0.406166 0
M  V30 15968 C 1435.17 5.32494 0.358627 0
M  V30 15969 O 1435.4 5.4783 1.58865 0
M  V30 15970 O 1434.33 6.0127 -0.275291 0
M  V30 15971 H 1438.16 2.81838 -1.13143 0
M  V30 15972 H 1435.74 1.36063 -0.617032 0
M  V30 15973 H 1437.62 4.10375 0.957608 0
M  V30 15974 H 1436.3 2.9606 1.30882 0
M  V30 15975 H 1435.21 3.6286 -0.910136 0
M  V30 15976 H 1436.54 4.77887 -1.17835 0
M  V30 15977 N 1438.19 0.611994 1.45232 0
M  V30 15978 C 1439.14 -0.104265 2.30564 0
M  V30 15979 C 1440.11 -0.855676 1.42364 0
M  V30 15980 O 1441.29 -0.840534 1.71288 0
M  V30 15981 C 1438.43 -1.09274 3.27343 0
M  V30 15982 C 1437.55 -0.341747 4.30646 0
M  V30 15983 C 1436.68 -1.32034 5.14529 0
M  V30 15984 C 1435.72 -0.557405 6.09557 0
M  V30 15985 N 1434.86 -1.4855 6.86205 0
M  V30 15986 H 1439.7 0.629396 2.91278 0
M  V30 15987 H 1437.23 0.322177 1.43528 0
M  V30 15988 H 1439.19 -1.67902 3.81923 0
M  V30 15989 H 1437.82 -1.79376 2.68373 0
M  V30 15990 H 1436.87 0.360114 3.78692 0
M  V30 15991 H 1438.19 0.253328 4.98156 0
M  V30 15992 H 1437.34 -1.97854 5.73532 0
M  V30 15993 H 1436.08 -1.94934 4.47048 0
M  V30 15994 H 1435.08 0.114401 5.49681 0
M  V30 15995 H 1436.31 0.0666137 6.79067 0
M  V30 15996 H 1434.26 -2.10207 6.21409 0
M  V30 15997 H 1434.17 -0.943972 7.50083 0
M  V30 15998 H 1435.44 -2.13314 7.49745 0
M  V30 15999 N 1439.67 -1.53632 0.351409 0
M  V30 16000 C 1440.9 -2.05458 -0.243852 0
M  V30 16001 C 1441.31 -1.22588 -1.43589 0
M  V30 16002 O 1440.67 -0.263088 -1.80594 0
M  V30 16003 C 1440.72 -3.55586 -0.651226 0
M  V30 16004 O 1440.44 -4.35313 0.493415 0
M  V30 16005 C 1441.94 -4.23614 -1.30637 0
M  V30 16006 H 1439.16 -0.669443 -0.0456828 0
M  V30 16007 H 1441.71 -1.98149 0.505675 0
M  V30 16008 H 1439.86 -3.63091 -1.35068 0
M  V30 16009 H 1440.28 -5.24234 0.167107 0
M  V30 16010 H 1441.75 -5.30022 -1.5421 0
M  V30 16011 H 1442.23 -3.76449 -2.26236 0
M  V30 16012 H 1442.83 -4.20323 -0.648738 0
M  V30 16013 N 1441.15 -0.0802183 -1.57396 0
M  V30 16014 C 1442.09 0.884041 -2.13198 0
M  V30 16015 C 1443.06 1.28975 -1.04664 0
M  V30 16016 O 1444.25 1.37413 -1.32372 0
M  V30 16017 C 1441.39 2.14323 -2.7048 0
M  V30 16018 C 1440.5 1.7894 -3.93198 0
M  V30 16019 C 1439.64 2.99534 -4.38695 0
M  V30 16020 C 1438.68 2.60207 -5.54039 0
M  V30 16021 N 1437.81 3.73587 -5.94455 0
M  V30 16022 H 1442.65 0.40131 -2.95285 0
M  V30 16023 H 1440.19 0.186429 -1.45914 0
M  V30 16024 H 1442.15 2.88046 -3.01804 0
M  V30 16025 H 1440.78 2.60122 -1.91144 0
M  V30 16026 H 1439.83 0.952465 -3.68283 0
M  V30 16027 H 1441.14 1.46012 -4.76951 0
M  V30 16028 H 1440.3 3.81526 -4.71724 0
M  V30 16029 H 1439.04 3.35661 -3.53812 0
M  V30 16030 H 1438.04 1.76638 -5.20652 0
M  V30 16031 H 1439.27 2.2524 -6.40659 0
M  V30 16032 H 1437.21 4.0946 -5.12521 0
M  V30 16033 H 1437.13 3.44455 -6.72969 0
M  V30 16034 H 1438.4 4.56133 -6.3211 0
M  V30 16035 N 1442.63 1.56409 0.193394 0
M  V30 16036 C 1443.87 1.80991 0.914875 0
M  V30 16037 C 1444.2 0.654538 1.82837 0
M  V30 16038 O 1443.48 -0.344816 1.91419 0
M  V30 16039 C 1443.76 3.15841 1.72964 0
M  V30 16040 C 1443.62 4.41873 0.840748 0
M  V30 16041 C 1444.93 3.474 2.70188 0
M  V30 16042 H 1442.05 0.658408 0.331161 0
M  V30 16043 H 1444.7 1.89125 0.182161 0
M  V30 16044 H 1442.85 3.09038 2.35431 0
M  V30 16045 H 1444.52 4.60723 0.230654 0
M  V30 16046 H 1442.76 4.33549 0.147558 0
M  V30 16047 H 1443.43 5.32728 1.44586 0
M  V30 16048 H 1445.91 3.54513 2.17852 0
M  V30 16049 H 1444.78 4.42872 3.24278 0
M  V30 16050 H 1445.04 2.7098 3.49317 0
M  V30 16051 N 1444.1 -0.461169 1.50702 0
M  V30 16052 C 1445.35 -1.20934 1.61425 0
M  V30 16053 C 1445.67 -1.92884 0.32481 0
M  V30 16054 O 1446.87 -2.69712 0.311081 0
M  V30 16055 C 1445.33 -2.19797 2.84987 0
M  V30 16056 C 1444.94 -1.53604 4.20844 0
M  V30 16057 C 1446.68 -2.95194 3.05059 0
M  V30 16058 C 1444.59 -2.50811 5.35582 0
M  V30 16059 H 1443.52 -0.455088 0.601174 0
M  V30 16060 H 1446.17 -0.478771 1.77144 0
M  V30 16061 H 1444.55 -2.96187 2.62848 0
M  V30 16062 H 1445.72 -0.829345 4.53275 0
M  V30 16063 H 1444.04 -0.904504 4.06457 0
M  V30 16064 H 1446.64 -3.67965 3.87951 0
M  V30 16065 H 1446.98 -3.5516 2.1718 0
M  V30 16066 H 1447.51 -2.25915 3.27425 0
M  V30 16067 H 1444.25 -1.9557 6.25646 0
M  V30 16068 H 1443.77 -3.19604 5.07556 0
M  V30 16069 H 1445.45 -3.12437 5.66561 0
M  V30 16070 N 1445.58 -1.40446 -0.715026 0
M  V30 16071 C 1446.49 -1.43074 -1.85922 0
M  V30 16072 C 1447.51 -0.323294 -1.7097 0
M  V30 16073 O 1448.68 -0.567966 -1.93226 0
M  V30 16074 C 1445.75 -1.29206 -3.21725 0
M  V30 16075 C 1444.81 -2.50097 -3.48927 0
M  V30 16076 C 1444.04 -2.36881 -4.7825 0
M  V30 16077 O 1444.27 -1.38292 -5.53382 0
M  V30 16078 O 1443.2 -3.26266 -5.058 0
M  V30 16079 H 1447.03 -2.39565 -1.86661 0
M  V30 16080 H 1444.61 -1.21775 -0.865522 0
M  V30 16081 H 1446.49 -1.23681 -4.02841 0
M  V30 16082 H 1445.17 -0.358207 -3.21712 0
M  V30 16083 H 1444.07 -2.61199 -2.67817 0
M  V30 16084 H 1445.41 -3.42244 -3.53737 0
M  V30 16085 N 1447.06 0.947303 -1.25952 0
M  V30 16086 C 1448.28 1.73261 -1.13997 0
M  V30 16087 C 1448.71 1.85666 0.301639 0
M  V30 16088 O 1448.07 1.34244 1.21854 0
M  V30 16089 C 1448.12 3.12046 -1.8072 0
M  V30 16090 O 1447.22 3.97684 -1.09182 0
M  V30 16091 H 1446.56 0.53182 -0.397572 0
M  V30 16092 H 1449.09 1.18689 -1.66656 0
M  V30 16093 H 1449.1 3.62468 -1.87299 0
M  V30 16094 H 1447.78 3.02334 -2.856 0
M  V30 16095 H 1446.35 3.56141 -1.10536 0
M  V30 16096 N 1448.54 1.07657 1.15099 0
M  V30 16097 C 1449.77 0.822825 1.89835 0
M  V30 16098 C 1450.18 -0.624281 1.7818 0
M  V30 16099 O 1449.54 -1.42844 1.13587 0
M  V30 16100 C 1449.59 1.22598 3.40076 0
M  V30 16101 O 1449.31 2.61631 3.51398 0
M  V30 16102 C 1450.81 1.00199 4.31828 0
M  V30 16103 H 1448.03 0.297288 0.601549 0
M  V30 16104 H 1450.58 1.43384 1.45813 0
M  V30 16105 H 1448.73 0.65923 3.8175 0
M  V30 16106 H 1449.14 2.78163 4.44664 0
M  V30 16107 H 1450.62 1.33355 5.35649 0
M  V30 16108 H 1451.1 -0.0614865 4.39157 0
M  V30 16109 H 1451.7 1.5538 3.959 0
M  V30 16110 N 1450.02 -1.31994 0.861122 0
M  V30 16111 C 1450.95 -2.27632 0.267681 0
M  V30 16112 C 1451.96 -1.52709 -0.564265 0
M  V30 16113 O 1453.15 -1.74239 -0.3877 0
M  V30 16114 C 1450.25 -3.32805 -0.639856 0
M  V30 16115 C 1449.42 -4.37116 0.157676 0
M  V30 16116 C 1448.48 -5.21832 -0.676624 0
M  V30 16117 O 1447.51 -5.69098 -0.107822 0
M  V30 16118 N 1448.71 -5.45317 -1.99022 0
M  V30 16119 H 1451.48 -2.79195 1.0895 0
M  V30 16120 H 1449.04 -1.44923 0.721733 0
M  V30 16121 H 1451.03 -3.86391 -1.20348 0
M  V30 16122 H 1449.6 -2.81351 -1.36236 0
M  V30 16123 H 1448.82 -3.83724 0.902741 0
M  V30 16124 H 1450.11 -5.03889 0.70524 0
M  V30 16125 H 1449.5 -5.08656 -2.47558 0
M  V30 16126 H 1448.06 -6.01874 -2.50182 0
M  V30 16127 N 1451.49 -0.619688 -1.44906 0
M  V30 16128 C 1452.77 -0.0510703 -1.95533 0
M  V30 16129 C 1453.15 1.42013 -1.56191 0
M  V30 16130 O 1452.5 2.12879 -0.830356 0
M  V30 16131 C 1452.71 -0.261896 -3.48016 0
M  V30 16132 C 1454.06 -0.149057 -4.24338 0
M  V30 16133 O 1455.08 -0.192655 -3.55679 0
M  V30 16134 O 1453.94 -0.0443345 -5.46482 0
M  V30 16135 H 1451.03 0.0288461 -0.826497 0
M  V30 16136 H 1453.58 -0.690594 -1.55013 0
M  V30 16137 H 1452.35 -1.28319 -3.69662 0
M  V30 16138 H 1451.98 0.412314 -3.95456 0
M  V30 16139 N 1452.97 1.53444 -0.359552 0
M  V30 16140 C 1453.9 2.28475 0.4818 0
M  V30 16141 C 1454.88 1.30664 1.08908 0
M  V30 16142 O 1456.07 1.59527 1.10746 0
M  V30 16143 C 1453.2 3.06951 1.62477 0
M  V30 16144 C 1452.15 4.12399 1.14504 0
M  V30 16145 C 1451.48 4.78922 2.37777 0
M  V30 16146 C 1452.78 5.21775 0.234075 0
M  V30 16147 H 1454.47 2.99053 -0.144162 0
M  V30 16148 H 1452.02 1.43826 -0.0707746 0
M  V30 16149 H 1453.97 3.58186 2.21993 0
M  V30 16150 H 1452.7 2.34053 2.27787 0
M  V30 16151 H 1451.35 3.62101 0.572589 0
M  V30 16152 H 1451 4.02602 3.0153 0
M  V30 16153 H 1450.7 5.50175 2.06353 0
M  V30 16154 H 1452.23 5.32948 2.97991 0
M  V30 16155 H 1453.64 5.68549 0.736548 0
M  V30 16156 H 1452.04 6.00099 0.0109887 0
M  V30 16157 H 1453.11 4.79443 -0.725435 0
M  V30 16158 N 1454.45 0.0885642 1.57351 0
M  V30 16159 C 1455.7 -0.575536 1.93732 0
M  V30 16160 C 1456.02 -1.69126 0.970644 0
M  V30 16161 O 1455.29 -1.95888 0.0215907 0
M  V30 16162 H 1453.87 -0.215592 0.715213 0
M  V30 16163 H 1456.53 0.150362 1.94319 0
M  V30 16164 H 1455.63 -0.989979 2.95983 0
M  V30 16165 N 1455.93 -1.56509 -0.185096 0
M  V30 16166 C 1456.88 -1.96237 -1.24875 0
M  V30 16167 C 1457.87 -0.849169 -1.46579 0
M  V30 16168 O 1459.08 -1.03422 -1.47322 0
M  V30 16169 H 1455.45 -0.624147 -0.419457 0
M  V30 16170 H 1457.42 -2.8492 -0.88673 0
M  V30 16171 C 1456.17 -2.32667 -2.58382 0
M  V30 16172 H 1455.49 -3.17858 -2.425 0
M  V30 16173 H 1456.93 -2.6432 -3.31528 0
M  V30 16174 C 1455.39 -1.16496 -3.16118 0
M  V30 16175 O 1455.92 -0.445283 -3.99224 0
M  V30 16176 N 1454.13 -0.939133 -2.75007 0
M  V30 16177 H 1453.68 -1.52611 -2.07527 0
M  V30 16178 H 1453.63 -0.163659 -3.13974 0
M  V30 16179 N 1457.41 0.45317 -1.50944 0
M  V30 16180 C 1458.68 1.21413 -1.53357 0
M  V30 16181 C 1459.06 2.09118 -0.288584 0
M  V30 16182 O 1458.41 2.16621 0.727164 0
M  V30 16183 C 1458.62 2.02969 -2.83909 0
M  V30 16184 C 1459.97 2.60551 -3.35258 0
M  V30 16185 O 1460.99 2.13196 -2.85353 0
M  V30 16186 O 1459.85 3.46881 -4.22298 0
M  V30 16187 H 1456.95 0.551909 -0.615894 0
M  V30 16188 H 1459.49 0.463529 -1.63247 0
M  V30 16189 H 1458.26 1.38453 -3.65987 0
M  V30 16190 H 1457.89 2.85127 -2.77107 0
M  V30 16191 N 1458.88 1.40823 0.707568 0
M  V30 16192 C 1459.81 1.44485 1.83429 0
M  V30 16193 C 1460.8 0.304848 1.67346 0
M  V30 16194 O 1461.98 0.514605 1.87258 0
M  V30 16195 C 1459.11 1.31458 3.21459 0
M  V30 16196 C 1458.06 2.43145 3.52228 0
M  V30 16197 C 1457.39 2.15189 4.89487 0
M  V30 16198 C 1458.69 3.85489 3.52414 0
M  V30 16199 H 1460.38 2.38781 1.80622 0
M  V30 16200 H 1457.93 1.14931 0.867572 0
M  V30 16201 H 1459.88 1.32635 3.99983 0
M  V30 16202 H 1458.61 0.336422 3.24863 0
M  V30 16203 H 1457.27 2.41231 2.76049 0
M  V30 16204 H 1456.91 1.15745 4.89502 0
M  V30 16205 H 1456.61 2.90022 5.11039 0
M  V30 16206 H 1458.14 2.18062 5.70334 0
M  V30 16207 H 1459.55 3.89183 4.20963 0
M  V30 16208 H 1457.95 4.59906 3.85495 0
M  V30 16209 H 1459.02 4.14499 2.51632 0
M  V30 16210 N 1460.36 -0.94061 1.26453 0
M  V30 16211 C 1461.33 -2.02096 1.0812 0
M  V30 16212 C 1462.33 -1.60773 0.0293393 0
M  V30 16213 O 1463.52 -1.72051 0.272796 0
M  V30 16214 C 1460.65 -3.34749 0.644646 0
M  V30 16215 H 1461.84 -2.19792 2.04038 0
M  V30 16216 H 1459.39 -1.11965 1.09058 0
M  V30 16217 H 1460.13 -3.22752 -0.316509 0
M  V30 16218 H 1459.91 -3.66095 1.40416 0
M  V30 16219 H 1461.4 -4.14117 0.538233 0
M  V30 16220 N 1461.84 -1.08266 -1.14527 0
M  V30 16221 C 1463.09 -0.809856 -1.85164 0
M  V30 16222 C 1463.41 0.666263 -1.83265 0
M  V30 16223 O 1462.68 1.48295 -1.28006 0
M  V30 16224 H 1461.26 -0.296598 -0.685594 0
M  V30 16225 H 1463.92 -1.36834 -1.38789 0
M  V30 16226 H 1463.02 -1.15272 -2.90032 0
M  V30 16227 N 1463.32 1.31536 -0.86811 0
M  V30 16228 C 1464.57 1.97066 -0.478829 0
M  V30 16229 C 1464.9 1.68469 0.966021 0
M  V30 16230 O 1464.17 0.980166 1.67997 0
M  V30 16231 C 1464.46 3.52533 -0.734313 0
M  V30 16232 C 1464.31 3.90711 -2.22856 0
M  V30 16233 C 1465.63 4.39647 -0.199559 0
M  V30 16234 H 1462.75 0.715813 -0.175444 0
M  V30 16235 H 1465.39 1.55694 -1.08901 0
M  V30 16236 H 1463.54 3.87905 -0.214962 0
M  V30 16237 H 1465.21 3.65451 -2.81502 0
M  V30 16238 H 1463.45 3.39385 -2.70185 0
M  V30 16239 H 1464.13 4.99103 -2.35797 0
M  V30 16240 H 1466.6 4.11088 -0.643853 0
M  V30 16241 H 1465.48 5.47383 -0.407783 0
M  V30 16242 H 1465.74 4.32875 0.898414 0
M  V30 16243 N 1464.8 0.627364 1.44575 0
M  V30 16244 C 1465.73 -0.129056 2.27835 0
M  V30 16245 C 1466.71 -0.854852 1.38315 0
M  V30 16246 O 1467.89 -0.859709 1.67754 0
M  V30 16247 C 1465.02 -1.18866 3.17157 0
M  V30 16248 C 1464.07 -0.563816 4.22757 0
M  V30 16249 S 1464.9 0.643269 5.31622 0
M  V30 16250 C 1466.05 -0.416443 6.24513 0
M  V30 16251 H 1466.29 0.577281 2.91641 0
M  V30 16252 H 1463.82 0.415427 1.48706 0
M  V30 16253 H 1465.78 -1.79508 3.69171 0
M  V30 16254 H 1464.44 -1.86717 2.52578 0
M  V30 16255 H 1463.63 -1.36173 4.85256 0
M  V30 16256 H 1463.23 -0.0321045 3.73986 0
M  V30 16257 H 1465.53 -1.29006 6.65104 0
M  V30 16258 H 1466.47 0.172871 7.07889 0
M  V30 16259 H 1466.88 -0.740651 5.5962 0
M  V30 16260 N 1466.28 -1.53251 0.367684 0
M  V30 16261 C 1467.24 -2.24423 -0.465516 0
M  V30 16262 C 1468.24 -1.25283 -1.00801 0
M  V30 16263 O 1469.43 -1.49545 -0.893424 0
M  V30 16264 C 1466.56 -2.9826 -1.65087 0
M  V30 16265 H 1467.75 -2.99487 0.157292 0
M  V30 16266 H 1465.31 -1.55843 0.119409 0
M  V30 16267 H 1466.04 -2.27443 -2.31171 0
M  V30 16268 H 1465.83 -3.71003 -1.26882 0
M  V30 16269 H 1467.32 -3.52358 -2.24128 0
M  V30 16270 N 1467.75 -0.0969077 -1.57302 0
M  V30 16271 C 1468.68 0.858443 -2.17147 0
M  V30 16272 C 1469.66 1.29294 -1.10531 0
M  V30 16273 O 1470.85 1.3595 -1.38676 0
M  V30 16274 C 1467.98 2.11691 -2.75326 0
M  V30 16275 C 1466.93 1.82097 -3.8733 0
M  V30 16276 C 1466.26 3.14787 -4.32219 0
M  V30 16277 C 1467.56 1.10651 -5.10444 0
M  V30 16278 H 1469.25 0.35982 -2.9723 0
M  V30 16279 H 1466.8 0.17163 -1.42974 0
M  V30 16280 H 1468.75 2.78963 -3.15844 0
M  V30 16281 H 1467.48 2.63839 -1.925 0
M  V30 16282 H 1466.14 1.17222 -3.47354 0
M  V30 16283 H 1465.78 3.64826 -3.46281 0
M  V30 16284 H 1465.48 2.95769 -5.07735 0
M  V30 16285 H 1467.01 3.83215 -4.75372 0
M  V30 16286 H 1468.42 1.68036 -5.48121 0
M  V30 16287 H 1466.82 1.01805 -5.91401 0
M  V30 16288 H 1467.89 0.0895634 -4.84817 0
M  V30 16289 N 1469.23 1.56605 0.176793 0
M  V30 16290 C 1470.16 1.9254 1.24342 0
M  V30 16291 C 1471.18 0.81792 1.40762 0
M  V30 16292 O 1472.37 1.09636 1.40862 0
M  V30 16293 C 1469.47 2.15822 2.61293 0
M  V30 16294 C 1468.64 3.47035 2.66243 0
M  V30 16295 C 1467.7 3.5921 3.84519 0
M  V30 16296 O 1466.72 4.31876 3.70771 0
M  V30 16297 N 1467.93 2.93653 5.00748 0
M  V30 16298 H 1470.69 2.84635 0.938246 0
M  V30 16299 H 1468.25 1.57695 0.366597 0
M  V30 16300 H 1470.24 2.21237 3.38875 0
M  V30 16301 H 1468.81 1.30138 2.84223 0
M  V30 16302 H 1468.03 3.53326 1.74798 0
M  V30 16303 H 1469.32 4.33388 2.66557 0
M  V30 16304 H 1468.72 2.34476 5.14818 0
M  V30 16305 H 1467.28 3.04671 5.76211 0
M  V30 16306 N 1470.71 -0.445159 1.51182 0
M  V30 16307 C 1472.13 -0.781023 1.39184 0
M  V30 16308 C 1472.33 -1.95988 0.468076 0
M  V30 16309 O 1471.38 -2.52374 -0.0796822 0
M  V30 16310 C 1472.69 -1.06874 2.81067 0
M  V30 16311 C 1474.24 -1.17364 2.90163 0
M  V30 16312 C 1474.72 -1.49433 4.32936 0
M  V30 16313 N 1476.21 -1.56373 4.36006 0
M  V30 16314 C 1476.94 -1.82743 5.435 0
M  V30 16315 N 1476.44 -2.06958 6.61166 0
M  V30 16316 N 1478.23 -1.84461 5.30971 0
M  V30 16317 H 1470.38 0.331347 2.098 0
M  V30 16318 H 1472.65 0.0858102 0.944108 0
M  V30 16319 H 1472.35 -0.275306 3.50621 0
M  V30 16320 H 1472.23 -1.99839 3.19913 0
M  V30 16321 H 1474.61 -1.95771 2.20812 0
M  V30 16322 H 1474.69 -0.22318 2.54825 0
M  V30 16323 H 1474.34 -0.715573 5.02834 0
M  V30 16324 H 1474.27 -2.45673 4.65782 0
M  V30 16325 H 1476.76 -1.39595 3.51172 0
M  V30 16326 H 1477.07 -2.26427 7.38885 0
M  V30 16327 H 1475.42 -2.04297 6.64295 0
M  V30 16328 H 1478.61 -1.65057 4.38034 0
M  V30 16329 H 1478.78 -2.04675 6.14827 0
M  V30 16330 N 1472.19 -1.41197 -0.700089 0
M  V30 16331 C 1473.13 -1.42688 -1.81407 0
M  V30 16332 C 1474.1 -0.28182 -1.63692 0
M  V30 16333 O 1475.29 -0.482196 -1.84606 0
M  V30 16334 C 1472.43 -1.31041 -3.19252 0
M  V30 16335 C 1471.54 -2.5538 -3.48432 0
M  V30 16336 C 1470.68 -2.3606 -4.75867 0
M  V30 16337 C 1469.72 -3.55898 -4.97999 0
M  V30 16338 N 1468.85 -3.35676 -6.16657 0
M  V30 16339 H 1473.69 -2.37898 -1.79467 0
M  V30 16340 H 1471.23 -1.18137 -0.87647 0
M  V30 16341 H 1473.19 -1.22292 -3.98874 0
M  V30 16342 H 1471.82 -0.394422 -3.20381 0
M  V30 16343 H 1470.87 -2.74598 -2.6325 0
M  V30 16344 H 1472.18 -3.44535 -3.6069 0
M  V30 16345 H 1471.34 -2.24752 -5.63535 0
M  V30 16346 H 1470.08 -1.44355 -4.65846 0
M  V30 16347 H 1469.08 -3.67665 -4.08781 0
M  V30 16348 H 1470.31 -4.4855 -5.09882 0
M  V30 16349 H 1468.25 -2.46667 -6.07858 0
M  V30 16350 H 1468.17 -4.18404 -6.29662 0
M  V30 16351 H 1469.44 -3.28132 -7.07071 0
M  V30 16352 N 1473.67 0.933891 -1.2695 0
M  V30 16353 C 1474.6 2.05078 -1.11649 0
M  V30 16354 C 1475.58 1.70089 -0.0196463 0
M  V30 16355 O 1476.76 1.93239 -0.193007 0
M  V30 16356 C 1473.89 3.38963 -0.756387 0
M  V30 16357 C 1472.85 3.88041 -1.80577 0
M  V30 16358 C 1472.17 5.18661 -1.2998 0
M  V30 16359 C 1473.47 4.12116 -3.2087 0
M  V30 16360 H 1475.17 2.18137 -2.05077 0
M  V30 16361 H 1472.71 1.04817 -0.987392 0
M  V30 16362 H 1474.66 4.1657 -0.63619 0
M  V30 16363 H 1473.39 3.25901 0.213607 0
M  V30 16364 H 1472.05 3.12622 -1.91477 0
M  V30 16365 H 1471.7 5.01985 -0.319442 0
M  V30 16366 H 1471.4 5.52467 -2.00134 0
M  V30 16367 H 1472.92 5.98844 -1.19242 0
M  V30 16368 H 1474.33 4.80312 -3.13006 0
M  V30 16369 H 1472.73 4.57218 -3.88679 0
M  V30 16370 H 1473.8 3.17633 -3.66384 0
M  V30 16371 N 1475.14 1.08871 1.13951 0
M  V30 16372 C 1476.37 0.842913 1.88951 0
M  V30 16373 C 1476.79 -0.605348 1.78832 0
M  V30 16374 O 1476.14 -1.41631 1.15095 0
M  V30 16375 C 1476.19 1.26198 3.38757 0
M  V30 16376 O 1475.92 2.65344 3.48603 0
M  V30 16377 C 1477.42 1.04773 4.30741 0
M  V30 16378 H 1474.64 0.303651 0.598362 0
M  V30 16379 H 1477.18 1.44922 1.44284 0
M  V30 16380 H 1475.34 0.699682 3.81029 0
M  V30 16381 H 1475.75 2.82863 4.41688 0
M  V30 16382 H 1477.22 1.39029 5.34205 0
M  V30 16383 H 1477.7 -0.0149046 4.39197 0
M  V30 16384 H 1478.31 1.5957 3.9423 0
M  V30 16385 N 1476.62 -1.31073 0.875073 0
M  V30 16386 C 1477.87 -1.9613 0.487584 0
M  V30 16387 C 1478.19 -1.69482 -0.964407 0
M  V30 16388 O 1477.46 -1.013 -1.67676 0
M  V30 16389 H 1476.04 -0.725649 0.177319 0
M  V30 16390 H 1478.7 -1.59787 1.11598 0
M  V30 16391 H 1477.8 -3.05265 0.649574 0
M  V30 16392 N 1478.1 -0.635022 -1.4424 0
M  V30 16393 C 1479.03 0.116972 -2.279 0
M  V30 16394 C 1480.01 0.847505 -1.38766 0
M  V30 16395 O 1481.2 0.8508 -1.68207 0
M  V30 16396 C 1478.32 1.17183 -3.17783 0
M  V30 16397 C 1477.37 0.541389 -4.2305 0
M  V30 16398 S 1478.2 -0.671454 -5.31274 0
M  V30 16399 C 1479.36 0.383317 -6.24725 0
M  V30 16400 H 1479.59 -0.592739 -2.91331 0
M  V30 16401 H 1477.12 -0.423307 -1.48484 0
M  V30 16402 H 1479.08 1.77548 -3.70118 0
M  V30 16403 H 1477.74 1.85375 -2.53564 0
M  V30 16404 H 1476.94 1.33597 -4.85971 0
M  V30 16405 H 1476.54 0.0122707 -3.73998 0
M  V30 16406 H 1478.83 1.25477 -6.65779 0
M  V30 16407 H 1479.77 -0.21041 -7.07787 0
M  V30 16408 H 1480.18 0.710963 -5.60005 0
M  V30 16409 N 1479.58 1.53054 -0.375806 0
M  V30 16410 C 1480.49 2.29772 0.47349 0
M  V30 16411 C 1481.5 1.36144 1.08355 0
M  V30 16412 O 1482.68 1.69208 1.09228 0
M  V30 16413 C 1479.75 3.07964 1.59245 0
M  V30 16414 C 1478.81 4.17277 1.00888 0
M  V30 16415 C 1478.04 4.91731 2.07451 0
M  V30 16416 O 1478.26 4.66143 3.28736 0
M  V30 16417 O 1477.2 5.77413 1.69936 0
M  V30 16418 H 1481.02 3.03324 -0.151105 0
M  V30 16419 H 1478.61 1.48744 -0.139895 0
M  V30 16420 H 1480.49 3.56759 2.24279 0
M  V30 16421 H 1479.16 2.37239 2.20226 0
M  V30 16422 H 1478.07 3.7271 0.322167 0
M  V30 16423 H 1479.4 4.90198 0.443483 0
M  V30 16424 N 1481.06 0.105248 1.57248 0
M  V30 16425 C 1482.47 -0.251385 1.57608 0
M  V30 16426 C 1482.67 -1.677 1.11709 0
M  V30 16427 O 1481.73 -2.39552 0.798182 0
M  V30 16428 C 1483.04 -0.0305755 3.00684 0
M  V30 16429 C 1484.59 -0.0975409 3.12848 0
M  V30 16430 C 1485.06 0.0954024 4.57901 0
M  V30 16431 N 1486.56 0.040908 4.63182 0
M  V30 16432 C 1487.29 0.165298 5.73162 0
M  V30 16433 N 1486.79 0.345091 6.9194 0
M  V30 16434 N 1488.58 0.105847 5.62 0
M  V30 16435 H 1480.73 1.03658 1.85388 0
M  V30 16436 H 1482.99 0.407074 0.856151 0
M  V30 16437 H 1482.7 0.954461 3.38501 0
M  V30 16438 H 1482.57 -0.768477 3.69289 0
M  V30 16439 H 1484.96 -1.07309 2.74898 0
M  V30 16440 H 1485.04 0.672017 2.46815 0
M  V30 16441 H 1484.69 1.06786 4.96547 0
M  V30 16442 H 1484.62 -0.693974 5.22007 0
M  V30 16443 H 1487.11 -0.0951009 3.7778 0
M  V30 16444 H 1487.42 0.431243 7.71596 0
M  V30 16445 H 1485.76 0.38089 6.93955 0
M  V30 16446 H 1488.96 -0.0335544 4.68088 0
M  V30 16447 H 1489.13 0.206235 6.47672 0
M  V30 16448 N 1482.53 -1.56697 -0.168486 0
M  V30 16449 C 1483.81 -1.73032 -0.912097 0
M  V30 16450 C 1484.19 -0.667424 -2.00271 0
M  V30 16451 O 1483.54 0.317307 -2.26286 0
M  V30 16452 C 1483.75 -3.16334 -1.47424 0
M  V30 16453 C 1485.1 -3.77378 -1.94606 0
M  V30 16454 O 1486.12 -3.19629 -1.57212 0
M  V30 16455 O 1484.98 -4.78781 -2.63497 0
M  V30 16456 H 1482.07 -0.706713 -0.429518 0
M  V30 16457 H 1484.62 -1.68981 -0.156093 0
M  V30 16458 H 1483.39 -3.85179 -0.689421 0
M  V30 16459 H 1483.02 -3.24723 -2.29435 0
M  V30 16460 N 1484.01 0.437135 -1.51416 0
M  V30 16461 C 1484.94 1.538 -1.75692 0
M  V30 16462 C 1485.92 1.5891 -0.606759 0
M  V30 16463 O 1487.11 1.74635 -0.849492 0
M  V30 16464 C 1484.24 2.91877 -1.88215 0
M  V30 16465 C 1483.19 3.01628 -3.03652 0
M  V30 16466 C 1482.52 4.41687 -3.01358 0
M  V30 16467 C 1483.82 2.75691 -4.43612 0
M  V30 16468 H 1485.51 1.33737 -2.67871 0
M  V30 16469 H 1483.06 0.641936 -1.289 0
M  V30 16470 H 1485.01 3.68851 -2.03781 0
M  V30 16471 H 1483.74 3.13173 -0.926847 0
M  V30 16472 H 1482.39 2.27094 -2.87791 0
M  V30 16473 H 1482.04 4.5995 -2.03605 0
M  V30 16474 H 1481.74 4.49141 -3.78875 0
M  V30 16475 H 1483.27 5.20634 -3.19018 0
M  V30 16476 H 1484.68 3.42398 -4.59822 0
M  V30 16477 H 1483.08 2.94554 -5.22836 0
M  V30 16478 H 1484.15 1.71297 -4.53636 0
M  V30 16479 N 1485.49 1.41566 0.692592 0
M  V30 16480 C 1486.74 1.41292 1.4548 0
M  V30 16481 C 1487.07 0.0229093 1.94186 0
M  V30 16482 O 1486.34 -0.949849 1.6973 0
M  V30 16483 C 1486.63 2.42225 2.66457 0
M  V30 16484 C 1486.48 3.90345 2.23496 0
M  V30 16485 C 1487.8 2.40374 3.68658 0
M  V30 16486 H 1484.92 0.51453 0.527663 0
M  V30 16487 H 1487.56 1.72862 0.788598 0
M  V30 16488 H 1485.71 2.15435 3.23296 0
M  V30 16489 H 1487.38 4.2805 1.71962 0
M  V30 16490 H 1485.63 4.05068 1.55249 0
M  V30 16491 H 1486.3 4.56518 3.10314 0
M  V30 16492 H 1488.77 2.64156 3.21498 0
M  V30 16493 H 1487.65 3.13004 4.5091 0
M  V30 16494 H 1487.91 1.42338 4.1856 0
M  V30 16495 N 1486.97 -0.927146 1.27443 0
M  V30 16496 C 1487.93 -2.00938 1.10257 0
M  V30 16497 C 1488.93 -1.60733 0.0463898 0
M  V30 16498 O 1490.12 -1.71752 0.291029 0
M  V30 16499 C 1487.25 -3.34047 0.680115 0
M  V30 16500 H 1488.45 -2.17615 2.06358 0
M  V30 16501 H 1486 -1.10802 1.10239 0
M  V30 16502 H 1486.73 -3.23069 -0.282259 0
M  V30 16503 H 1486.52 -3.64585 1.44291 0
M  V30 16504 H 1488.01 -4.13523 0.582126 0
M  V30 16505 N 1488.45 -1.09474 -1.13372 0
M  V30 16506 C 1489.7 -0.825968 -1.84013 0
M  V30 16507 C 1490.01 0.650623 -1.84462 0
M  V30 16508 O 1491.21 1.03495 -2.51 0
M  V30 16509 C 1489.67 -1.42769 -3.30371 0
M  V30 16510 C 1489.28 -2.93686 -3.38308 0
M  V30 16511 C 1491.02 -1.23788 -4.0605 0
M  V30 16512 C 1488.93 -3.46942 -4.78942 0
M  V30 16513 H 1487.86 -0.305322 -0.689416 0
M  V30 16514 H 1490.51 -1.31751 -1.27726 0
M  V30 16515 H 1488.89 -0.86384 -3.86463 0
M  V30 16516 H 1490.07 -3.56302 -2.92208 0
M  V30 16517 H 1488.38 -3.11706 -2.76094 0
M  V30 16518 H 1490.98 -1.61031 -5.09876 0
M  V30 16519 H 1491.32 -0.178578 -4.15917 0
M  V30 16520 H 1491.85 -1.76927 -3.56289 0
M  V30 16521 H 1488.59 -4.52495 -4.74267 0
M  V30 16522 H 1488.11 -2.8909 -5.25535 0
M  V30 16523 H 1489.79 -3.44176 -5.47861 0
M  V30 16524 N 1489.92 1.30607 -0.882012 0
M  V30 16525 C 1490.83 2.31967 -0.350503 0
M  V30 16526 C 1491.85 1.6522 0.54575 0
M  V30 16527 O 1493.03 1.96544 0.439581 0
M  V30 16528 C 1490.09 3.44037 0.428924 0
M  V30 16529 C 1489.15 4.26417 -0.496727 0
M  V30 16530 C 1488.39 5.33135 0.245597 0
M  V30 16531 O 1488.61 5.51077 1.47209 0
M  V30 16532 O 1487.54 6.00551 -0.402767 0
M  V30 16533 H 1491.37 2.79374 -1.19095 0
M  V30 16534 H 1488.95 1.34723 -0.645754 0
M  V30 16535 H 1490.84 4.12314 0.870346 0
M  V30 16536 H 1489.51 2.9877 1.24573 0
M  V30 16537 H 1488.42 3.60848 -0.986899 0
M  V30 16538 H 1489.75 4.7528 -1.27945 0
M  V30 16539 N 1491.4 0.642663 1.43901 0
M  V30 16540 C 1492.37 -0.0457858 2.29154 0
M  V30 16541 C 1493.37 -0.760988 1.41653 0
M  V30 16542 O 1494.56 -0.603832 1.634 0
M  V30 16543 C 1491.69 -1.07552 3.23489 0
M  V30 16544 H 1492.88 0.704193 2.91515 0
M  V30 16545 H 1490.43 0.403361 1.51006 0
M  V30 16546 H 1491.17 -1.85509 2.66002 0
M  V30 16547 H 1490.95 -0.566468 3.87987 0
M  V30 16548 H 1492.44 -1.55663 3.87503 0
M  V30 16549 N 1492.88 -1.52852 0.383918 0
M  V30 16550 C 1493.83 -2.26294 -0.453826 0
M  V30 16551 C 1494.8 -1.27688 -1.0623 0
M  V30 16552 O 1495.98 -1.56507 -1.09134 0
M  V30 16553 C 1493.12 -3.06907 -1.57803 0
M  V30 16554 C 1492.24 -4.20434 -0.992943 0
M  V30 16555 C 1491.37 -4.88453 -2.08776 0
M  V30 16556 C 1490.41 -5.93981 -1.47828 0
M  V30 16557 N 1489.55 -6.55617 -2.51218 0
M  V30 16558 H 1494.39 -2.97462 0.178927 0
M  V30 16559 H 1491.92 -1.46759 0.100066 0
M  V30 16560 H 1493.88 -3.51933 -2.24052 0
M  V30 16561 H 1492.51 -2.37959 -2.18118 0
M  V30 16562 H 1491.56 -3.79762 -0.22021 0
M  V30 16563 H 1492.88 -4.96211 -0.507504 0
M  V30 16564 H 1492.03 -5.36755 -2.82806 0
M  V30 16565 H 1490.77 -4.12187 -2.60678 0
M  V30 16566 H 1489.77 -5.45023 -0.723202 0
M  V30 16567 H 1491 -6.72176 -0.967278 0
M  V30 16568 H 1488.95 -5.82195 -3.02299 0
M  V30 16569 H 1488.86 -7.26991 -2.07414 0
M  V30 16570 H 1490.13 -7.08564 -3.24895 0
M  V30 16571 N 1494.36 -0.113586 -1.5719 0
M  V30 16572 C 1495.29 0.835363 -2.18046 0
M  V30 16573 C 1496.27 1.28114 -1.11897 0
M  V30 16574 O 1497.46 1.34472 -1.40111 0
M  V30 16575 C 1494.59 2.08759 -2.77556 0
M  V30 16576 C 1493.54 1.77979 -3.8924 0
M  V30 16577 C 1492.87 3.10185 -4.35533 0
M  V30 16578 C 1494.17 1.05231 -5.11589 0
M  V30 16579 H 1495.86 0.328275 -2.97595 0
M  V30 16580 H 1493.41 0.156456 -1.43148 0
M  V30 16581 H 1495.36 2.75597 -3.18785 0
M  V30 16582 H 1494.08 2.61783 -1.95288 0
M  V30 16583 H 1492.74 1.13532 -3.48577 0
M  V30 16584 H 1492.39 3.61133 -3.50131 0
M  V30 16585 H 1492.09 2.90367 -5.10843 0
M  V30 16586 H 1493.61 3.78151 -4.7941 0
M  V30 16587 H 1495.03 1.62213 -5.49872 0
M  V30 16588 H 1493.42 0.955269 -5.92448 0
M  V30 16589 H 1494.49 0.038137 -4.84885 0
M  V30 16590 N 1495.84 1.56784 0.160173 0
M  V30 16591 C 1497.06 1.87129 0.894283 0
M  V30 16592 C 1497.49 0.701172 1.74543 0
M  V30 16593 O 1496.85 -0.349542 1.77899 0
M  V30 16594 C 1496.89 3.15969 1.73769 0
M  V30 16595 O 1496 2.98977 2.84054 0
M  V30 16596 H 1495.34 0.615192 0.249869 0
M  V30 16597 H 1497.87 2.04012 0.154956 0
M  V30 16598 H 1497.88 3.47657 2.13538 0
M  V30 16599 H 1496.55 4.00742 1.11258 0
M  V30 16600 H 1495.13 2.78668 2.47788 0
M  V30 16601 N 1497.32 -0.429099 1.51646 0
M  V30 16602 C 1498.59 -1.18958 1.55269 0
M  V30 16603 C 1498.97 -2.08633 0.321816 0
M  V30 16604 O 1498.32 -2.1775 -0.69261 0
M  V30 16605 C 1498.53 -1.98427 2.87102 0
M  V30 16606 C 1499.88 -2.55185 3.39361 0
M  V30 16607 O 1500.9 -2.08629 2.88708 0
M  V30 16608 O 1499.76 -3.40119 4.27763 0
M  V30 16609 H 1496.86 -0.542041 0.624596 0
M  V30 16610 H 1499.4 -0.437499 1.63964 0
M  V30 16611 H 1498.17 -1.32613 3.68143 0
M  V30 16612 H 1497.8 -2.80683 2.81608 0
M  V30 16613 N 1498.79 -1.41931 -0.685074 0
M  V30 16614 C 1499.72 -1.47385 -1.81107 0
M  V30 16615 C 1500.7 -0.331433 -1.6684 0
M  V30 16616 O 1501.89 -0.544331 -1.86415 0
M  V30 16617 C 1499.02 -1.36555 -3.19327 0
M  V30 16618 C 1497.97 -2.48718 -3.48315 0
M  V30 16619 C 1497.3 -2.2295 -4.86002 0
M  V30 16620 C 1498.6 -3.91047 -3.46237 0
M  V30 16621 H 1500.29 -2.41624 -1.768 0
M  V30 16622 H 1497.84 -1.16297 -0.849178 0
M  V30 16623 H 1499.79 -1.38981 -3.97822 0
M  V30 16624 H 1498.52 -0.388063 -3.24286 0
M  V30 16625 H 1497.18 -2.45592 -2.72176 0
M  V30 16626 H 1496.82 -1.23518 -4.87598 0
M  V30 16627 H 1496.52 -2.98116 -5.0636 0
M  V30 16628 H 1498.05 -2.27108 -5.66793 0
M  V30 16629 H 1499.46 -3.95831 -4.14718 0
M  V30 16630 H 1497.86 -4.65981 -3.7813 0
M  V30 16631 H 1498.93 -4.1845 -2.45006 0
M  V30 16632 N 1500.27 0.920374 -1.27933 0
M  V30 16633 C 1501.2 2.02644 -1.07089 0
M  V30 16634 C 1502.22 1.62781 -0.024674 0
M  V30 16635 O 1503.41 1.76491 -0.267023 0
M  V30 16636 C 1500.51 3.33476 -0.603919 0
M  V30 16637 C 1499.68 4.01988 -1.72407 0
M  V30 16638 C 1498.74 5.11098 -1.25159 0
M  V30 16639 O 1497.76 5.3466 -1.95261 0
M  V30 16640 N 1498.97 5.80393 -0.111197 0
M  V30 16641 H 1501.73 2.21085 -2.0234 0
M  V30 16642 H 1499.29 1.09124 -1.19597 0
M  V30 16643 H 1501.28 4.03788 -0.271579 0
M  V30 16644 H 1499.85 3.11554 0.255557 0
M  V30 16645 H 1499.07 3.25312 -2.22633 0
M  V30 16646 H 1500.36 4.4451 -2.47566 0
M  V30 16647 H 1499.76 5.63713 0.473746 0
M  V30 16648 H 1498.32 6.51599 0.161912 0
M  V30 16649 N 1501.75 1.10074 1.1279 0
M  V30 16650 C 1502.7 0.746173 2.18405 0
M  V30 16651 C 1503.67 -0.275751 1.63795 0
M  V30 16652 O 1504.85 -0.155876 1.90162 0
M  V30 16653 C 1501.99 0.180105 3.4463 0
M  V30 16654 C 1501.1 1.25688 4.13312 0
M  V30 16655 C 1500.24 0.652852 5.27173 0
M  V30 16656 C 1499.28 1.71046 5.87716 0
M  V30 16657 N 1498.42 1.12698 6.92996 0
M  V30 16658 H 1503.26 1.65105 2.48081 0
M  V30 16659 H 1500.79 0.824768 1.21803 0
M  V30 16660 H 1502.75 -0.165948 4.1687 0
M  V30 16661 H 1501.38 -0.688014 3.15383 0
M  V30 16662 H 1500.43 1.72011 3.39288 0
M  V30 16663 H 1501.74 2.05762 4.54382 0
M  V30 16664 H 1500.9 0.25603 6.0616 0
M  V30 16665 H 1499.64 -0.17937 4.8737 0
M  V30 16666 H 1498.64 2.11676 5.07418 0
M  V30 16667 H 1499.87 2.54547 6.29589 0
M  V30 16668 H 1497.81 0.316154 6.55238 0
M  V30 16669 H 1497.73 1.86461 7.32645 0
M  V30 16670 H 1499 0.756582 7.7582 0
M  V30 16671 N 1503.23 -1.30138 0.888926 0
M  V30 16672 C 1504.14 -2.31778 0.3628 0
M  V30 16673 C 1505.15 -1.65507 -0.53698 0
M  V30 16674 O 1506.33 -1.96775 -0.429152 0
M  V30 16675 C 1503.39 -3.44259 -0.410673 0
M  V30 16676 C 1502.46 -4.26147 0.519334 0
M  V30 16677 C 1501.69 -5.33257 -0.21732 0
M  V30 16678 O 1501.91 -5.5185 -1.44284 0
M  V30 16679 O 1500.85 -6.00329 0.43461 0
M  V30 16680 H 1504.67 -2.78739 1.20575 0
M  V30 16681 H 1502.26 -1.34379 0.65289 0
M  V30 16682 H 1504.14 -4.1277 -0.848467 0
M  V30 16683 H 1502.81 -2.99426 -1.22986 0
M  V30 16684 H 1501.72 -3.60319 1.00602 0
M  V30 16685 H 1503.05 -4.74595 1.30464 0
M  V30 16686 N 1504.71 -0.650285 -1.43559 0
M  V30 16687 C 1505.67 0.0336325 -2.29175 0
M  V30 16688 C 1506.67 0.753465 -1.42055 0
M  V30 16689 O 1507.86 0.595158 -1.63718 0
M  V30 16690 C 1504.99 1.05835 -3.24055 0
M  V30 16691 H 1506.18 -0.719643 -2.91138 0
M  V30 16692 H 1503.74 -0.411363 -1.5079 0
M  V30 16693 H 1504.47 1.84096 -2.66982 0
M  V30 16694 H 1504.26 0.545884 -3.88281 0
M  V30 16695 H 1505.75 1.53606 -3.88323 0
M  V30 16696 N 1506.18 1.52647 -0.392018 0
M  V30 16697 C 1507.09 2.30261 0.449093 0
M  V30 16698 C 1508.11 1.37286 1.06905 0
M  V30 16699 O 1509.29 1.70357 1.07427 0
M  V30 16700 C 1506.35 3.09636 1.55969 0
M  V30 16701 C 1505.41 4.18324 0.964566 0
M  V30 16702 C 1504.64 4.93904 2.02224 0
M  V30 16703 O 1504.87 4.69603 3.23773 0
M  V30 16704 O 1503.8 5.79183 1.63802 0
M  V30 16705 H 1507.63 3.03147 -0.183269 0
M  V30 16706 H 1505.21 1.48587 -0.155664 0
M  V30 16707 H 1507.09 3.59118 2.20482 0
M  V30 16708 H 1505.77 2.39561 2.17697 0
M  V30 16709 H 1504.68 3.73031 0.282618 0
M  V30 16710 H 1506.01 4.90641 0.391466 0
M  V30 16711 N 1507.66 0.121921 1.57128 0
M  V30 16712 C 1508.61 -0.827205 2.15467 0
M  V30 16713 C 1509.58 -1.26155 1.08047 0
M  V30 16714 O 1510.76 -1.33855 1.35969 0
M  V30 16715 C 1507.9 -2.07077 2.76067 0
M  V30 16716 C 1507.02 -1.68452 3.97804 0
M  V30 16717 C 1506.15 -2.87797 4.46482 0
M  V30 16718 C 1505.19 -2.45426 5.60743 0
M  V30 16719 N 1504.33 -3.57695 6.04151 0
M  V30 16720 H 1509.17 -0.322879 2.96246 0
M  V30 16721 H 1506.71 -0.147677 1.46357 0
M  V30 16722 H 1508.66 -2.79943 3.09335 0
M  V30 16723 H 1507.29 -2.54963 1.97974 0
M  V30 16724 H 1506.35 -0.854487 3.70679 0
M  V30 16725 H 1507.66 -1.33316 4.80654 0
M  V30 16726 H 1506.81 -3.68885 4.81673 0
M  V30 16727 H 1505.55 -3.26162 3.62587 0
M  V30 16728 H 1504.56 -1.62772 5.25153 0
M  V30 16729 H 1505.78 -2.08175 6.46405 0
M  V30 16730 H 1503.73 -3.95728 5.23197 0
M  V30 16731 H 1503.64 -3.26491 6.81865 0
M  V30 16732 H 1504.91 -4.39213 6.43981 0
M  V30 16733 N 1509.14 -1.56867 -0.151857 0
M  V30 16734 C 1510.07 -2.00932 -1.18949 0
M  V30 16735 C 1511.05 -0.888062 -1.45077 0
M  V30 16736 O 1512.24 -1.15553 -1.56081 0
M  V30 16737 C 1509.37 -2.3858 -2.52383 0
M  V30 16738 C 1508.32 -3.53845 -2.40785 0
M  V30 16739 C 1507.65 -3.77292 -3.78886 0
M  V30 16740 C 1508.95 -4.8667 -1.89605 0
M  V30 16741 H 1510.64 -2.87863 -0.823107 0
M  V30 16742 H 1508.19 -1.38491 -0.394499 0
M  V30 16743 H 1510.14 -2.68006 -3.25193 0
M  V30 16744 H 1508.86 -1.48579 -2.90847 0
M  V30 16745 H 1507.52 -3.24577 -1.70427 0
M  V30 16746 H 1507.17 -2.84551 -4.14777 0
M  V30 16747 H 1506.87 -4.54861 -3.71989 0
M  V30 16748 H 1508.39 -4.09139 -4.53252 0
M  V30 16749 H 1509.81 -5.14846 -2.52204 0
M  V30 16750 H 1508.21 -5.6801 -1.93609 0
M  V30 16751 H 1509.28 -4.77366 -0.851438 0
M  V30 16752 N 1510.62 0.421051 -1.51871 0
M  V30 16753 C 1511.53 1.5371 -1.7723 0
M  V30 16754 C 1512.54 1.61109 -0.657256 0
M  V30 16755 O 1513.72 1.78047 -0.941343 0
M  V30 16756 C 1510.79 2.89555 -1.9068 0
M  V30 16757 C 1509.85 2.9214 -3.14567 0
M  V30 16758 C 1509.08 4.21505 -3.27367 0
M  V30 16759 O 1509.3 5.14764 -2.45712 0
M  V30 16760 O 1508.24 4.30706 -4.20448 0
M  V30 16761 H 1512.06 1.35221 -2.71935 0
M  V30 16762 H 1509.65 0.605712 -1.3657 0
M  V30 16763 H 1511.53 3.70147 -2.01418 0
M  V30 16764 H 1510.2 3.08137 -0.991627 0
M  V30 16765 H 1509.11 2.10444 -3.09296 0
M  V30 16766 H 1510.44 2.78505 -4.05827 0
M  V30 16767 N 1512.1 1.42293 0.677538 0
M  V30 16768 C 1513.32 1.46214 1.47092 0
M  V30 16769 C 1513.75 0.0740989 1.87954 0
M  V30 16770 O 1513.1 -0.926831 1.55819 0
M  V30 16771 C 1513.15 2.39236 2.69812 0
M  V30 16772 O 1512.26 1.86183 3.6798 0
M  V30 16773 H 1511.6 0.495507 0.442006 0
M  V30 16774 H 1514.13 1.86952 0.831274 0
M  V30 16775 H 1514.14 2.55723 3.17915 0
M  V30 16776 H 1512.81 3.40081 2.39411 0
M  V30 16777 H 1511.39 1.79237 3.26999 0
M  V30 16778 N 1513.57 -0.913576 1.28419 0
M  V30 16779 C 1514.48 -2.04922 1.14211 0
M  V30 16780 C 1515.5 -1.73865 0.0686424 0
M  V30 16781 O 1516.68 -1.99473 0.277968 0
M  V30 16782 C 1513.74 -3.37214 0.805445 0
M  V30 16783 C 1512.8 -3.81879 1.96129 0
M  V30 16784 C 1512.04 -5.07858 1.6406 0
M  V30 16785 O 1512.26 -5.67693 0.555032 0
M  V30 16786 O 1511.19 -5.4824 2.48428 0
M  V30 16787 H 1515.02 -2.19827 2.09547 0
M  V30 16788 H 1512.6 -1.03501 1.0774 0
M  V30 16789 H 1514.49 -4.16639 0.631648 0
M  V30 16790 H 1513.16 -3.23484 -0.118254 0
M  V30 16791 H 1512.07 -3.03281 2.19024 0
M  V30 16792 H 1513.4 -4.00173 2.8657 0
M  V30 16793 N 1515.05 -1.1067 -1.12204 0
M  V30 16794 C 1516 -0.726979 -2.161 0
M  V30 16795 C 1516.99 0.26505 -1.58702 0
M  V30 16796 O 1518.18 0.0734052 -1.76848 0
M  V30 16797 C 1515.31 -0.163062 -3.42913 0
M  V30 16798 C 1514.39 -1.18228 -4.07287 0
M  V30 16799 N 1514.78 -2.3738 -4.46637 0
M  V30 16800 C 1513.08 -1.02336 -4.34101 0
M  V30 16801 C 1513.78 -3.02318 -4.9697 0
M  V30 16802 N 1512.76 -2.29826 -4.92627 0
M  V30 16803 H 1516.56 -1.63396 -2.44293 0
M  V30 16804 H 1514.08 -0.984782 -1.29135 0
M  V30 16805 H 1516.07 0.127067 -4.16706 0
M  V30 16806 H 1514.73 0.738611 -3.16188 0
M  V30 16807 H 1515.74 -2.74889 -4.38926 0
M  V30 16808 H 1512.42 -0.177452 -4.17123 0
M  V30 16809 H 1513.81 -4.03685 -5.3711 0
M  V30 16810 N 1516.53 1.29665 -0.895815 0
M  V30 16811 C 1517.94 1.77825 -0.568784 0
M  V30 16812 C 1518.29 1.73534 0.915443 0
M  V30 16813 O 1517.42 1.31885 1.71567 0
M  V30 16814 C 1518.01 3.22901 -1.0257 0
M  V30 16815 C 1516.57 3.68854 -0.749903 0
M  V30 16816 C 1515.72 2.49866 -1.20259 0
M  V30 16817 H 1518.67 1.16381 -1.07894 0
M  V30 16818 H 1518.69 3.788 -0.359312 0
M  V30 16819 H 1518.2 3.25991 -2.10597 0
M  V30 16820 H 1516.3 3.71241 0.317916 0
M  V30 16821 H 1516.42 4.59831 -1.34506 0
M  V30 16822 H 1514.78 2.46997 -0.621676 0
M  V30 16823 H 1515.56 2.55687 -2.29083 0
M  V30 16824 N 1518.01 0.657889 1.43212 0
M  V30 16825 C 1519.29 0.102895 1.95329 0
M  V30 16826 C 1519.67 -1.37821 1.59901 0
M  V30 16827 O 1519.01 -2.10602 0.886505 0
M  V30 16828 C 1519.22 0.354075 3.47199 0
M  V30 16829 C 1520.57 0.261511 4.23794 0
M  V30 16830 O 1521.6 0.286889 3.55043 0
M  V30 16831 O 1520.45 0.189209 5.46172 0
M  V30 16832 H 1517.55 -0.00692284 0.826971 0
M  V30 16833 H 1520.09 0.73145 1.53127 0
M  V30 16834 H 1518.87 1.38075 3.6613 0
M  V30 16835 H 1518.49 -0.307321 3.96411 0
M  V30 16836 N 1519.49 -1.52437 0.400108 0
M  V30 16837 C 1520.42 -2.24433 -0.465038 0
M  V30 16838 C 1521.43 -1.27067 -1.01773 0
M  V30 16839 O 1522.62 -1.53072 -0.918215 0
M  V30 16840 C 1519.72 -2.95555 -1.65832 0
M  V30 16841 C 1518.89 -4.19717 -1.2311 0
M  V30 16842 C 1517.95 -4.73743 -2.29028 0
M  V30 16843 O 1516.98 -5.36556 -1.8999 0
M  V30 16844 N 1518.18 -4.54534 -3.6108 0
M  V30 16845 H 1520.95 -2.99315 0.151839 0
M  V30 16846 H 1518.51 -1.603 0.227019 0
M  V30 16847 H 1520.5 -3.28595 -2.36235 0
M  V30 16848 H 1519.07 -2.23915 -2.18131 0
M  V30 16849 H 1518.29 -3.92593 -0.355537 0
M  V30 16850 H 1519.58 -5.00367 -0.922487 0
M  V30 16851 H 1518.97 -4.04419 -3.95552 0
M  V30 16852 H 1517.53 -4.92035 -4.27486 0
M  V30 16853 N 1520.96 -0.130252 -1.57061 0
M  V30 16854 C 1521.93 0.801529 -2.14728 0
M  V30 16855 C 1522.93 1.18687 -1.08489 0
M  V30 16856 O 1524.12 1.11054 -1.34211 0
M  V30 16857 C 1521.25 2.08542 -2.69672 0
M  V30 16858 H 1522.44 0.300172 -2.98394 0
M  V30 16859 H 1520 0.119077 -1.55846 0
M  V30 16860 H 1520.73 2.63083 -1.89625 0
M  V30 16861 H 1520.52 1.81849 -3.47381 0
M  V30 16862 H 1522.01 2.75126 -3.14158 0
M  V30 16863 N 1522.44 1.56945 0.143535 0
M  V30 16864 C 1523.38 1.95134 1.2023 0
M  V30 16865 C 1524.39 0.847593 1.38995 0
M  V30 16866 O 1525.58 1.12599 1.38505 0
M  V30 16867 C 1522.68 2.21316 2.56656 0
M  V30 16868 C 1521.85 3.52604 2.58822 0
M  V30 16869 C 1520.91 3.67285 3.76813 0
M  V30 16870 O 1519.94 4.39644 3.61527 0
M  V30 16871 N 1521.14 3.04208 4.94406 0
M  V30 16872 H 1523.9 2.86561 0.87766 0
M  V30 16873 H 1521.46 1.58437 0.333065 0
M  V30 16874 H 1523.46 2.28375 3.34106 0
M  V30 16875 H 1522.03 1.36137 2.81399 0
M  V30 16876 H 1521.25 3.56954 1.67264 0
M  V30 16877 H 1522.53 4.38944 2.57304 0
M  V30 16878 H 1521.93 2.45344 5.09728 0
M  V30 16879 H 1520.49 3.16824 5.69619 0
M  V30 16880 N 1523.92 -0.412991 1.52093 0
M  V30 16881 C 1524.88 -1.48555 1.7454 0
M  V30 16882 C 1525.88 -1.48563 0.615283 0
M  V30 16883 O 1527.07 -1.50155 0.883119 0
M  V30 16884 C 1524.21 -2.87984 1.82423 0
M  V30 16885 H 1525.4 -1.29945 2.70285 0
M  V30 16886 H 1522.95 -0.643241 1.4245 0
M  V30 16887 H 1523.69 -3.11969 0.885777 0
M  V30 16888 H 1523.47 -2.89381 2.64577 0
M  V30 16889 H 1524.96 -3.65745 2.01545 0
M  V30 16890 N 1525.4 -1.4265 -0.669982 0
M  V30 16891 C 1526.65 -1.42667 -1.42579 0
M  V30 16892 C 1526.96 -0.0483217 -1.9554 0
M  V30 16893 O 1528.17 0.0740917 -2.71399 0
M  V30 16894 C 1526.62 -2.5098 -2.57948 0
M  V30 16895 C 1526.23 -3.94844 -2.11666 0
M  V30 16896 C 1527.98 -2.6017 -3.35428 0
M  V30 16897 C 1525.88 -4.94655 -3.24146 0
M  V30 16898 H 1524.81 -0.530651 -0.535654 0
M  V30 16899 H 1527.46 -1.68576 -0.724861 0
M  V30 16900 H 1525.85 -2.18244 -3.30432 0
M  V30 16901 H 1527.02 -4.36958 -1.46303 0
M  V30 16902 H 1525.33 -3.89547 -1.47111 0
M  V30 16903 H 1527.93 -3.31918 -4.19207 0
M  V30 16904 H 1528.27 -1.64683 -3.82342 0
M  V30 16905 H 1528.81 -2.92124 -2.70016 0
M  V30 16906 H 1525.55 -5.91636 -2.82218 0
M  V30 16907 H 1525.07 -4.57168 -3.88275 0
M  V30 16908 H 1526.75 -5.16593 -3.89538 0
M  V30 16909 N 1526.88 0.906753 -1.28902 0
M  V30 16910 C 1527.81 2.02663 -1.15974 0
M  V30 16911 C 1528.79 1.70009 -0.0557202 0
M  V30 16912 O 1529.97 1.92786 -0.233952 0
M  V30 16913 C 1527.1 3.37283 -0.828115 0
M  V30 16914 C 1526.06 3.84123 -1.88767 0
M  V30 16915 C 1525.38 5.15787 -1.40953 0
M  V30 16916 C 1526.68 4.05217 -3.2954 0
M  V30 16917 H 1528.38 2.13738 -2.09658 0
M  V30 16918 H 1525.92 1.02699 -1.0094 0
M  V30 16919 H 1527.88 4.15127 -0.724408 0
M  V30 16920 H 1526.6 3.2628 0.14443 0
M  V30 16921 H 1525.26 3.0849 -1.98065 0
M  V30 16922 H 1524.91 5.01194 -0.425848 0
M  V30 16923 H 1524.61 5.48098 -2.11807 0
M  V30 16924 H 1526.13 5.9618 -1.31918 0
M  V30 16925 H 1527.55 4.73565 -3.23124 0
M  V30 16926 H 1525.94 4.48871 -3.9829 0
M  V30 16927 H 1527.01 3.0979 -3.73039 0
M  V30 16928 N 1528.36 1.11264 1.11616 0
M  V30 16929 C 1529.58 0.88306 1.87661 0
M  V30 16930 C 1530.01 -0.561586 1.79521 0
M  V30 16931 O 1529.36 -1.3964 1.1563 0
M  V30 16932 C 1529.41 1.34698 3.34498 0
M  V30 16933 O 1528.52 0.517512 4.0914 0
M  V30 16934 H 1527.86 0.318233 0.582772 0
M  V30 16935 H 1530.39 1.48164 1.41098 0
M  V30 16936 H 1530.4 1.34068 3.85344 0
M  V30 16937 H 1529.07 2.39896 3.39739 0
M  V30 16938 H 1527.65 0.589751 3.68207 0
M  V30 16939 N 1529.83 -1.29188 0.902679 0
M  V30 16940 C 1531.25 -1.47924 0.599209 0
M  V30 16941 C 1531.45 -1.82297 -0.858494 0
M  V30 16942 O 1530.51 -1.92123 -1.63845 0
M  V30 16943 C 1531.82 -2.59008 1.52759 0
M  V30 16944 C 1533.37 -2.72882 1.53312 0
M  V30 16945 C 1533.84 -3.87097 2.44785 0
M  V30 16946 N 1535.33 -3.94435 2.42849 0
M  V30 16947 C 1536.07 -4.82165 3.1033 0
M  V30 16948 N 1535.56 -5.74565 3.87101 0
M  V30 16949 N 1537.36 -4.75681 2.99473 0
M  V30 16950 H 1529.51 -1.05154 1.84544 0
M  V30 16951 H 1531.77 -0.522632 0.790924 0
M  V30 16952 H 1531.48 -2.40483 2.56634 0
M  V30 16953 H 1531.35 -3.55873 1.25036 0
M  V30 16954 H 1533.74 -2.90802 0.501804 0
M  V30 16955 H 1533.82 -1.76582 1.85074 0
M  V30 16956 H 1533.46 -3.69932 3.48012 0
M  V30 16957 H 1533.39 -4.82772 2.10331 0
M  V30 16958 H 1535.88 -3.28347 1.87074 0
M  V30 16959 H 1536.2 -6.3831 4.35638 0
M  V30 16960 H 1534.54 -5.74441 3.91207 0
M  V30 16961 H 1537.73 -4.02483 2.39009 0
M  V30 16962 H 1537.91 -5.4384 3.52337 0
M  V30 16963 N 1531.31 -0.665475 -1.42861 0
M  V30 16964 C 1532.24 0.00482845 -2.335 0
M  V30 16965 C 1533.22 0.799135 -1.50159 0
M  V30 16966 O 1534.41 0.75816 -1.78789 0
M  V30 16967 C 1531.54 0.963347 -3.33672 0
M  V30 16968 C 1530.49 0.278294 -4.27094 0
M  V30 16969 C 1529.82 1.34911 -5.174 0
M  V30 16970 C 1531.12 -0.836925 -5.15551 0
M  V30 16971 H 1532.81 -0.752129 -2.89799 0
M  V30 16972 H 1530.36 -0.363139 -1.39346 0
M  V30 16973 H 1532.31 1.44128 -3.95986 0
M  V30 16974 H 1531.03 1.75161 -2.75656 0
M  V30 16975 H 1529.69 -0.179314 -3.66161 0
M  V30 16976 H 1529.34 2.12912 -4.55716 0
M  V30 16977 H 1529.04 0.895919 -5.8073 0
M  V30 16978 H 1530.57 1.82816 -5.8259 0
M  V30 16979 H 1531.98 -0.440617 -5.71604 0
M  V30 16980 H 1530.38 -1.21533 -5.87665 0
M  V30 16981 H 1531.45 -1.6897 -4.54507 0
M  V30 16982 N 1532.79 1.52222 -0.408187 0
M  V30 16983 C 1533.75 2.25578 0.405851 0
M  V30 16984 C 1534.75 1.27912 0.974434 0
M  V30 16985 O 1535.94 1.51861 0.853461 0
M  V30 16986 C 1533.07 3.02532 1.57122 0
M  V30 16987 H 1534.27 2.98965 -0.23664 0
M  V30 16988 H 1531.82 1.55472 -0.160687 0
M  V30 16989 H 1532.56 2.33492 2.2506 0
M  V30 16990 H 1532.34 3.74237 1.17001 0
M  V30 16991 H 1533.83 3.58177 2.14707 0
M  V30 16992 N 1534.27 0.138579 1.5699 0
M  V30 16993 C 1535.18 -0.817548 2.19894 0
M  V30 16994 C 1536.19 -1.27806 1.18075 0
M  V30 16995 O 1537.37 -1.33699 1.5062 0
M  V30 16996 C 1534.43 -2.04244 2.80152 0
M  V30 16997 C 1533.5 -1.63197 3.97071 0
M  V30 16998 C 1532.73 -2.79847 4.54446 0
M  V30 16999 O 1532.95 -3.95827 4.10703 0
M  V30 17000 O 1531.89 -2.55804 5.44838 0
M  V30 17001 H 1535.71 -0.312123 3.02092 0
M  V30 17002 H 1533.3 -0.0880281 1.4914 0
M  V30 17003 H 1535.18 -2.75945 3.18485 0
M  V30 17004 H 1533.85 -2.53755 2.00973 0
M  V30 17005 H 1532.76 -0.885448 3.6347 0
M  V30 17006 H 1534.09 -1.1841 4.77745 0
M  V30 17007 N 1535.75 -1.57019 -0.13521 0
M  V30 17008 C 1536.99 -1.83178 -0.844308 0
M  V30 17009 C 1537.31 -0.7217 -1.81799 0
M  V30 17010 O 1538.51 -0.869232 -2.57209 0
M  V30 17011 C 1536.97 -3.2471 -1.55214 0
M  V30 17012 C 1536.58 -4.43685 -0.620268 0
M  V30 17013 C 1538.32 -3.60133 -2.24732 0
M  V30 17014 C 1536.23 -5.76242 -1.3304 0
M  V30 17015 H 1535.16 -0.683175 -0.319041 0
M  V30 17016 H 1537.81 -1.83243 -0.0970242 0
M  V30 17017 H 1536.19 -3.19067 -2.34547 0
M  V30 17018 H 1537.37 -4.60591 0.138685 0
M  V30 17019 H 1535.68 -4.16387 -0.0328906 0
M  V30 17020 H 1538.28 -4.56431 -2.78522 0
M  V30 17021 H 1538.62 -2.86767 -3.01779 0
M  V30 17022 H 1539.15 -3.67489 -1.52305 0
M  V30 17023 H 1535.89 -6.52734 -0.60155 0
M  V30 17024 H 1535.41 -5.63251 -2.06176 0
M  V30 17025 H 1537.09 -6.19445 -1.86808 0
M  V30 17026 N 1537.22 0.404919 -1.52309 0
M  V30 17027 C 1538.45 1.17764 -1.70723 0
M  V30 17028 C 1538.87 1.83403 -0.417744 0
M  V30 17029 O 1538.23 1.70181 0.625157 0
M  V30 17030 C 1538.28 2.2133 -2.84685 0
M  V30 17031 O 1537.38 3.27566 -2.50548 0
M  V30 17032 H 1536.73 0.343572 -0.568203 0
M  V30 17033 H 1539.26 0.474093 -1.99031 0
M  V30 17034 H 1539.27 2.6559 -3.09719 0
M  V30 17035 H 1537.94 1.72939 -3.78239 0
M  V30 17036 H 1536.52 2.88556 -2.36199 0
M  V30 17037 N 1538.7 1.43003 0.662408 0
M  V30 17038 C 1539.98 1.34613 1.41911 0
M  V30 17039 C 1540.36 -0.0105336 2.11097 0
M  V30 17040 O 1539.71 -1.02667 2.04137 0
M  V30 17041 C 1539.92 2.52297 2.41137 0
M  V30 17042 C 1541.27 2.94972 3.05412 0
M  V30 17043 O 1542.29 2.52277 2.51465 0
M  V30 17044 O 1541.15 3.68906 4.03201 0
M  V30 17045 H 1538.24 0.531508 0.633583 0
M  V30 17046 H 1540.79 1.55035 0.690088 0
M  V30 17047 H 1539.56 3.42685 1.88898 0
M  V30 17048 H 1539.18 2.33926 3.21503 0
M  V30 17049 N 1540.18 -0.899904 1.29381 0
M  V30 17050 C 1541.43 -1.65282 1.17515 0
M  V30 17051 C 1541.76 -1.92275 -0.272788 0
M  V30 17052 O 1541.03 -1.53303 -1.19701 0
M  V30 17053 C 1541.32 -3.00207 1.98867 0
M  V30 17054 C 1541.17 -2.80281 3.51799 0
M  V30 17055 C 1542.49 -4.00936 1.81489 0
M  V30 17056 H 1539.61 -0.5998 0.428263 0
M  V30 17057 H 1542.25 -1.04241 1.58852 0
M  V30 17058 H 1540.4 -3.52308 1.63741 0
M  V30 17059 H 1542.07 -2.35082 3.96905 0
M  V30 17060 H 1540.32 -2.15068 3.76733 0
M  V30 17061 H 1540.99 -3.76155 4.03994 0
M  V30 17062 H 1543.46 -3.57944 2.12169 0
M  V30 17063 H 1542.34 -4.9328 2.4076 0
M  V30 17064 H 1542.6 -4.35342 0.770021 0
M  V30 17065 N 1541.66 -1.11854 -1.11024 0
M  V30 17066 C 1542.9 -0.88128 -1.83317 0
M  V30 17067 C 1543.26 0.586708 -1.83236 0
M  V30 17068 O 1542.55 1.42786 -1.27761 0
M  V30 17069 C 1542.75 -1.3823 -3.29586 0
M  V30 17070 C 1542.58 -2.89747 -3.43914 0
M  V30 17071 C 1541.35 -3.57917 -3.56684 0
M  V30 17072 C 1543.54 -3.8778 -3.37833 0
M  V30 17073 N 1541.53 -4.97608 -3.59526 0
M  V30 17074 C 1542.9 -5.13565 -3.47348 0
M  V30 17075 C 1544.95 -3.80278 -3.21393 0
M  V30 17076 C 1543.65 -6.32731 -3.42117 0
M  V30 17077 C 1545.68 -4.98959 -3.1748 0
M  V30 17078 C 1545.04 -6.236 -3.2757 0
M  V30 17079 H 1541.14 -0.375681 -0.685848 0
M  V30 17080 H 1543.73 -1.4237 -1.32811 0
M  V30 17081 H 1541.9 -0.86701 -3.78599 0
M  V30 17082 H 1543.63 -1.08774 -3.89808 0
M  V30 17083 H 1540.38 -3.08393 -3.59431 0
M  V30 17084 H 1540.81 -5.70451 -3.64575 0
M  V30 17085 H 1545.45 -2.84815 -3.12474 0
M  V30 17086 H 1543.17 -7.28467 -3.49802 0
M  V30 17087 H 1546.75 -4.94878 -3.05919 0
M  V30 17088 H 1545.63 -7.13894 -3.24537 0
M  V30 17089 N 1543.14 1.28707 -0.909517 0
M  V30 17090 C 1544.05 2.31171 -0.399628 0
M  V30 17091 C 1545.06 1.6634 0.510582 0
M  V30 17092 O 1546.24 1.97432 0.397792 0
M  V30 17093 C 1543.3 3.44869 0.355852 0
M  V30 17094 C 1542.36 4.25267 -0.587065 0
M  V30 17095 C 1541.6 5.33536 0.132456 0
M  V30 17096 O 1541.82 5.54075 1.35486 0
M  V30 17097 O 1540.75 5.99561 -0.530062 0
M  V30 17098 H 1544.58 2.76785 -1.24995 0
M  V30 17099 H 1542.17 1.33323 -0.674186 0
M  V30 17100 H 1544.05 4.14068 0.782692 0
M  V30 17101 H 1542.72 3.01345 1.18207 0
M  V30 17102 H 1541.63 3.58673 -1.06322 0
M  V30 17103 H 1542.96 4.72459 -1.37998 0
M  V30 17104 N 1544.61 0.673042 1.42506 0
M  V30 17105 C 1545.52 -0.00648572 2.34599 0
M  V30 17106 C 1546.54 -0.790758 1.54994 0
M  V30 17107 O 1547.72 -0.733482 1.87569 0
M  V30 17108 C 1544.78 -0.94734 3.33506 0
M  V30 17109 C 1543.84 -0.157795 4.2901 0
M  V30 17110 C 1543.08 -1.05384 5.23192 0
M  V30 17111 O 1543.3 -2.29334 5.22266 0
M  V30 17112 O 1542.23 -0.515584 5.99688 0
M  V30 17113 H 1546.06 0.752059 2.94241 0
M  V30 17114 H 1543.64 0.433272 1.42979 0
M  V30 17115 H 1545.53 -1.4875 3.94273 0
M  V30 17116 H 1544.2 -1.68577 2.7634 0
M  V30 17117 H 1543.11 0.426426 3.71662 0
M  V30 17118 H 1544.44 0.54148 4.89212 0
M  V30 17119 N 1546.09 -1.52004 0.416254 0
M  V30 17120 C 1547.03 -2.2371 -0.450474 0
M  V30 17121 C 1548 -1.24812 -1.04215 0
M  V30 17122 O 1549.19 -1.53885 -1.08866 0
M  V30 17123 C 1546.31 -2.97122 -1.62592 0
M  V30 17124 C 1545.36 -4.10508 -1.15695 0
M  V30 17125 S 1546.19 -5.35374 -0.116239 0
M  V30 17126 C 1547.35 -6.12318 -1.29684 0
M  V30 17127 H 1547.58 -2.96878 0.158361 0
M  V30 17128 H 1545.12 -1.53091 0.200602 0
M  V30 17129 H 1547.07 -3.40022 -2.2999 0
M  V30 17130 H 1545.73 -2.23583 -2.20611 0
M  V30 17131 H 1544.93 -4.61075 -2.03534 0
M  V30 17132 H 1544.53 -3.69761 -0.561518 0
M  V30 17133 H 1546.82 -6.40125 -2.21914 0
M  V30 17134 H 1547.76 -7.032 -0.831569 0
M  V30 17135 H 1548.17 -5.43487 -1.52586 0
M  V30 17136 N 1547.57 -0.146903 -1.56914 0
M  V30 17137 C 1548.52 0.792821 -2.16756 0
M  V30 17138 C 1549.49 1.2442 -1.1004 0
M  V30 17139 O 1550.67 1.31674 -1.38081 0
M  V30 17140 C 1547.81 2.02659 -2.79327 0
M  V30 17141 C 1546.93 1.62102 -4.00433 0
M  V30 17142 C 1546.06 2.80658 -4.51004 0
M  V30 17143 C 1545.1 2.36474 -5.64576 0
M  V30 17144 N 1544.24 3.48038 -6.09766 0
M  V30 17145 H 1549.08 0.275708 -2.96722 0
M  V30 17146 H 1546.61 0.124374 -1.46573 0
M  V30 17147 H 1548.57 2.74986 -3.13749 0
M  V30 17148 H 1547.2 2.51781 -2.02005 0
M  V30 17149 H 1546.25 0.795407 -3.71991 0
M  V30 17150 H 1547.57 1.25652 -4.82714 0
M  V30 17151 H 1546.72 3.61175 -4.87481 0
M  V30 17152 H 1545.46 3.20353 -3.6773 0
M  V30 17153 H 1544.46 1.54397 -5.27676 0
M  V30 17154 H 1545.69 1.97865 -6.49635 0
M  V30 17155 H 1543.63 3.87354 -5.29427 0
M  V30 17156 H 1543.55 3.15602 -6.86972 0
M  V30 17157 H 1544.82 4.28912 -6.50887 0
M  V30 17158 N 1549.05 1.57088 0.126881 0
M  V30 17159 C 1550.28 1.88614 0.850444 0
M  V30 17160 C 1550.69 0.737309 1.73808 0
M  V30 17161 O 1550.05 -0.292196 1.80146 0
M  V30 17162 C 1550.1 3.19541 1.69044 0
M  V30 17163 O 1549.82 4.3 0.838555 0
M  V30 17164 C 1551.32 3.64717 2.51985 0
M  V30 17165 H 1548.54 0.624715 0.244892 0
M  V30 17166 H 1551.09 2.04184 0.113634 0
M  V30 17167 H 1549.24 3.05664 2.38009 0
M  V30 17168 H 1549.65 5.04992 1.41717 0
M  V30 17169 H 1551.13 4.5911 3.06467 0
M  V30 17170 H 1551.61 2.90986 3.28974 0
M  V30 17171 H 1552.21 3.81356 1.88276 0
M  V30 17172 N 1550.53 -0.396836 1.52522 0
M  V30 17173 C 1551.75 -1.16404 1.71049 0
M  V30 17174 C 1552.17 -1.83946 0.425378 0
M  V30 17175 O 1551.53 -1.7237 -0.599561 0
M  V30 17176 C 1551.58 -2.21796 2.85463 0
M  V30 17177 O 1551.3 -1.57009 4.08998 0
M  V30 17178 C 1552.8 -3.11303 3.15603 0
M  V30 17179 H 1550.02 -0.349314 0.572905 0
M  V30 17180 H 1552.56 -0.465297 1.99136 0
M  V30 17181 H 1550.72 -2.87318 2.59859 0
M  V30 17182 H 1551.13 -2.26977 4.72844 0
M  V30 17183 H 1552.61 -3.81299 3.99143 0
M  V30 17184 H 1553.08 -3.7437 2.2966 0
M  V30 17185 H 1553.69 -2.51435 3.43017 0
M  V30 17186 N 1552.01 -1.43353 -0.654814 0
M  V30 17187 C 1552.94 -1.51194 -1.7794 0
M  V30 17188 C 1553.92 -0.366747 -1.66099 0
M  V30 17189 O 1555.1 -0.58375 -1.85219 0
M  V30 17190 C 1552.23 -1.43298 -3.16359 0
M  V30 17191 C 1551.19 -2.5605 -3.42961 0
M  V30 17192 C 1550.51 -2.33208 -4.81163 0
M  V30 17193 C 1551.81 -3.98303 -3.37864 0
M  V30 17194 H 1553.51 -2.4532 -1.71635 0
M  V30 17195 H 1551.05 -1.18072 -0.824319 0
M  V30 17196 H 1553 -1.47388 -3.94784 0
M  V30 17197 H 1551.73 -0.456761 -3.2339 0
M  V30 17198 H 1550.39 -2.5131 -2.66906 0
M  V30 17199 H 1550.04 -1.33833 -4.84869 0
M  V30 17200 H 1549.74 -3.08789 -4.99923 0
M  V30 17201 H 1551.26 -2.39079 -5.61848 0
M  V30 17202 H 1552.67 -4.04538 -4.06229 0
M  V30 17203 H 1551.07 -4.73897 -3.6816 0
M  V30 17204 H 1552.14 -4.23552 -2.36075 0
M  V30 17205 N 1553.48 0.89303 -1.29857 0
M  V30 17206 C 1554.43 1.9979 -1.15554 0
M  V30 17207 C 1555.4 1.66033 -0.0471157 0
M  V30 17208 O 1556.59 1.89575 -0.215846 0
M  V30 17209 C 1553.73 3.34595 -0.844993 0
M  V30 17210 C 1552.84 3.81093 -2.03451 0
M  V30 17211 C 1551.97 5.04506 -1.66275 0
M  V30 17212 C 1551.01 5.4339 -2.8177 0
M  V30 17213 N 1550.15 6.57987 -2.44945 0
M  V30 17214 H 1554.99 2.11355 -2.10079 0
M  V30 17215 H 1552.53 1.03497 -1.04531 0
M  V30 17216 H 1554.48 4.12175 -0.645598 0
M  V30 17217 H 1553.11 3.22738 0.0633626 0
M  V30 17218 H 1552.17 2.99491 -2.34541 0
M  V30 17219 H 1553.48 4.05855 -2.8997 0
M  V30 17220 H 1552.63 5.89688 -1.42664 0
M  V30 17221 H 1551.37 4.81597 -0.769144 0
M  V30 17222 H 1550.38 4.56738 -3.06056 0
M  V30 17223 H 1551.6 5.68276 -3.71805 0
M  V30 17224 H 1549.55 6.36669 -1.58079 0
M  V30 17225 H 1549.46 6.82579 -3.24996 0
M  V30 17226 H 1550.73 7.46421 -2.24669 0
M  V30 17227 N 1554.96 1.12442 1.10429 0
M  V30 17228 C 1555.91 0.787578 2.18861 0
M  V30 17229 C 1556.9 -0.225602 1.67891 0
M  V30 17230 O 1558.11 -0.0838029 1.79805 0
M  V30 17231 H 1554.48 0.236858 0.713724 0
M  V30 17232 H 1556.46 1.71048 2.4451 0
M  V30 17233 C 1555.2 0.25854 3.46737 0
M  V30 17234 H 1554.53 1.02945 3.86319 0
M  V30 17235 H 1555.97 0.0611642 4.23956 0
M  V30 17236 C 1554.43 -1.01353 3.21293 0
M  V30 17237 O 1554.96 -2.09132 3.42967 0
M  V30 17238 N 1553.16 -0.940498 2.7496 0
M  V30 17239 H 1552.71 -0.0632962 2.57522 0
M  V30 17240 H 1552.67 -1.79226 2.58313 0
M  V30 17241 N 1556.44 -1.28223 0.91633 0
M  V30 17242 C 1557.86 -1.47281 0.614864 0
M  V30 17243 C 1558.06 -1.83197 -0.839111 0
M  V30 17244 O 1557.11 -1.9385 -1.61798 0
M  V30 17245 C 1558.42 -2.57373 1.55498 0
M  V30 17246 C 1559.97 -2.71241 1.56197 0
M  V30 17247 C 1560.45 -3.84479 2.48877 0
M  V30 17248 N 1561.94 -3.91837 2.47019 0
M  V30 17249 C 1562.67 -4.78846 3.15427 0
M  V30 17250 N 1562.17 -5.70427 3.93173 0
M  V30 17251 N 1563.96 -4.72478 3.04501 0
M  V30 17252 H 1556.11 -1.03191 1.85649 0
M  V30 17253 H 1558.38 -0.514213 0.796422 0
M  V30 17254 H 1558.08 -2.37747 2.5917 0
M  V30 17255 H 1557.96 -3.54527 1.28803 0
M  V30 17256 H 1560.34 -2.90254 0.532619 0
M  V30 17257 H 1560.42 -1.74609 1.86937 0
M  V30 17258 H 1560.07 -3.6622 3.51916 0
M  V30 17259 H 1560 -4.80514 2.15439 0
M  V30 17260 H 1562.49 -3.26344 1.90546 0
M  V30 17261 H 1562.8 -6.33653 4.42384 0
M  V30 17262 H 1561.15 -5.70259 3.97278 0
M  V30 17263 H 1564.34 -3.99925 2.43265 0
M  V30 17264 H 1564.51 -5.40073 3.58086 0
M  V30 17265 N 1557.92 -0.68059 -1.42147 0
M  V30 17266 C 1558.83 -0.00595573 -2.34599 0
M  V30 17267 C 1559.84 0.782528 -1.55411 0
M  V30 17268 O 1561.02 0.723524 -1.87955 0
M  V30 17269 C 1558.08 0.92964 -3.34004 0
M  V30 17270 C 1557.15 0.135041 -4.29088 0
M  V30 17271 C 1556.38 1.02607 -5.23744 0
M  V30 17272 O 1556.6 2.26562 -5.23475 0
M  V30 17273 O 1555.54 0.483774 -5.99953 0
M  V30 17274 H 1559.36 -0.767652 -2.93838 0
M  V30 17275 H 1556.95 -0.440849 -1.42748 0
M  V30 17276 H 1558.83 1.46657 -3.95057 0
M  V30 17277 H 1557.5 1.67109 -2.7723 0
M  V30 17278 H 1556.41 -0.44613 -3.7143 0
M  V30 17279 H 1557.74 -0.567417 -4.88918 0
M  V30 17280 N 1559.4 1.51781 -0.424309 0
M  V30 17281 C 1560.36 2.25996 0.381903 0
M  V30 17282 C 1561.36 1.28938 0.960813 0
M  V30 17283 O 1562.55 1.52757 0.837306 0
M  V30 17284 C 1559.68 3.04181 1.53904 0
M  V30 17285 H 1560.87 2.98697 -0.268336 0
M  V30 17286 H 1558.43 1.55293 -0.177167 0
M  V30 17287 H 1559.16 2.35866 2.22571 0
M  V30 17288 H 1558.95 3.75457 1.13025 0
M  V30 17289 H 1560.44 3.60434 2.10896 0
M  V30 17290 N 1560.87 0.155222 1.56834 0
M  V30 17291 C 1562.1 -0.503763 2.01189 0
M  V30 17292 C 1562.52 -1.57086 1.03468 0
M  V30 17293 O 1561.88 -1.81296 0.0116895 0
M  V30 17294 C 1561.93 -1.07373 3.44243 0
M  V30 17295 O 1561.03 -2.18834 3.49551 0
M  V30 17296 H 1560.37 -0.122368 0.652627 0
M  V30 17297 H 1562.9 0.254377 2.03013 0
M  V30 17298 H 1562.91 -1.40036 3.83215 0
M  V30 17299 H 1561.59 -0.292339 4.14871 0
M  V30 17300 H 1560.17 -1.87337 3.22427 0
M  V30 17301 N 1562.35 -1.57153 -0.118549 0
M  V30 17302 C 1563.28 -2.03409 -1.1466 0
M  V30 17303 C 1564.26 -0.918636 -1.43161 0
M  V30 17304 O 1565.45 -1.18838 -1.53594 0
M  V30 17305 C 1562.58 -2.43879 -2.47265 0
M  V30 17306 C 1561.53 -3.58873 -2.33225 0
M  V30 17307 C 1560.86 -3.85244 -3.70798 0
M  V30 17308 C 1562.16 -4.90582 -1.79239 0
M  V30 17309 H 1563.85 -2.89545 -0.761862 0
M  V30 17310 H 1561.4 -1.39296 -0.365034 0
M  V30 17311 H 1563.35 -2.74844 -3.19435 0
M  V30 17312 H 1562.07 -1.54715 -2.8763 0
M  V30 17313 H 1560.73 -3.28119 -1.63504 0
M  V30 17314 H 1560.38 -2.93285 -4.08648 0
M  V30 17315 H 1560.08 -4.62649 -3.62257 0
M  V30 17316 H 1561.61 -4.18661 -4.44472 0
M  V30 17317 H 1563.02 -5.20079 -2.41227 0
M  V30 17318 H 1561.42 -5.71989 -1.81518 0
M  V30 17319 H 1562.49 -4.79065 -0.74999 0
M  V30 17320 N 1563.83 0.388742 -1.5273 0
M  V30 17321 C 1565.08 1.13151 -1.67455 0
M  V30 17322 C 1565.4 1.90487 -0.417095 0
M  V30 17323 O 1564.67 1.87469 0.568509 0
M  V30 17324 H 1563.25 0.4207 -0.617269 0
M  V30 17325 H 1565.91 0.44098 -1.89846 0
M  V30 17326 H 1565.01 1.83427 -2.52509 0
M  V30 17327 N 1565.31 1.43698 0.647203 0
M  V30 17328 C 1566.22 1.51781 1.78884 0
M  V30 17329 C 1567.23 0.404498 1.69233 0
M  V30 17330 O 1568.41 0.659509 1.90296 0
M  V30 17331 C 1565.47 1.44408 3.15194 0
M  V30 17332 C 1564.54 2.6646 3.36597 0
M  V30 17333 C 1563.77 2.59429 4.66403 0
M  V30 17334 O 1563.99 1.64537 5.46154 0
M  V30 17335 O 1562.93 3.50027 4.89658 0
M  V30 17336 H 1566.75 2.48198 1.75019 0
M  V30 17337 H 1564.34 1.25766 0.806436 0
M  V30 17338 H 1566.22 1.42761 3.96481 0
M  V30 17339 H 1564.89 0.511292 3.19637 0
M  V30 17340 H 1563.8 2.73679 2.5505 0
M  V30 17341 H 1565.13 3.58732 3.37005 0
M  V30 17342 N 1566.79 -0.886131 1.30328 0
M  V30 17343 C 1567.75 -1.97328 1.16594 0
M  V30 17344 C 1568.75 -1.60504 0.0975023 0
M  V30 17345 O 1569.94 -1.70739 0.345524 0
M  V30 17346 C 1567.07 -3.31714 0.786045 0
M  V30 17347 H 1568.26 -2.1094 2.13177 0
M  V30 17348 H 1565.82 -1.07238 1.13708 0
M  V30 17349 H 1566.55 -3.23804 -0.179334 0
M  V30 17350 H 1566.34 -3.5981 1.55817 0
M  V30 17351 H 1567.83 -4.11461 0.71339 0
M  V30 17352 N 1568.26 -1.13026 -1.09832 0
M  V30 17353 C 1569.49 -0.912803 -1.86233 0
M  V30 17354 C 1569.91 0.532955 -1.80392 0
M  V30 17355 O 1569.27 1.37783 -1.17837 0
M  V30 17356 C 1569.32 -1.40002 -3.32313 0
M  V30 17357 O 1568.42 -0.582537 -4.08265 0
M  V30 17358 H 1567.77 -0.327464 -0.577636 0
M  V30 17359 H 1570.3 -1.5039 -1.38723 0
M  V30 17360 H 1570.31 -1.40182 -3.83162 0
M  V30 17361 H 1568.98 -2.4527 -3.3588 0
M  V30 17362 H 1567.56 -0.648255 -3.67222 0
M  V30 17363 N 1569.74 1.27735 -0.923117 0
M  V30 17364 C 1570.69 2.26997 -0.417254 0
M  V30 17365 C 1571.66 1.57968 0.513364 0
M  V30 17366 O 1572.84 1.8581 0.433521 0
M  V30 17367 C 1569.98 3.43537 0.328089 0
M  V30 17368 C 1569.1 4.27291 -0.636112 0
M  V30 17369 C 1568.23 5.31044 0.128614 0
M  V30 17370 C 1567.27 6.06466 -0.828592 0
M  V30 17371 N 1566.41 7.02033 -0.0967858 0
M  V30 17372 H 1571.25 2.69643 -1.26872 0
M  V30 17373 H 1568.79 1.32597 -0.6369 0
M  V30 17374 H 1570.74 4.0991 0.776504 0
M  V30 17375 H 1569.37 3.01855 1.14383 0
M  V30 17376 H 1568.43 3.60875 -1.20306 0
M  V30 17377 H 1569.74 4.79679 -1.36784 0
M  V30 17378 H 1568.89 6.03345 0.637159 0
M  V30 17379 H 1567.63 4.79448 0.893341 0
M  V30 17380 H 1566.64 5.33008 -1.34843 0
M  V30 17381 H 1567.86 6.60151 -1.59303 0
M  V30 17382 H 1565.81 6.52774 0.649779 0
M  V30 17383 H 1565.72 7.52087 -0.768171 0
M  V30 17384 H 1566.99 7.78517 0.391257 0
M  V30 17385 N 1571.22 0.688118 1.41784 0
M  V30 17386 C 1572.15 0.0323199 2.33478 0
M  V30 17387 C 1573.13 -0.775145 1.51412 0
M  V30 17388 O 1574.32 -0.72962 1.79973 0
M  V30 17389 C 1571.45 -0.910141 3.35162 0
M  V30 17390 C 1570.4 -0.210312 4.27483 0
M  V30 17391 C 1569.73 -1.26662 5.19481 0
M  V30 17392 C 1571.03 0.918839 5.14154 0
M  V30 17393 H 1572.72 0.798138 2.88566 0
M  V30 17394 H 1570.27 0.385262 1.38751 0
M  V30 17395 H 1572.22 -1.3781 3.98229 0
M  V30 17396 H 1570.94 -1.70754 2.78408 0
M  V30 17397 H 1569.6 0.237544 3.6583 0
M  V30 17398 H 1569.25 -2.05635 4.59046 0
M  V30 17399 H 1568.95 -0.803416 5.82082 0
M  V30 17400 H 1570.47 -1.73524 5.85424 0
M  V30 17401 H 1571.89 0.531499 5.70831 0
M  V30 17402 H 1570.29 1.30867 5.85657 0
M  V30 17403 H 1571.36 1.7618 4.51762 0
M  V30 17404 N 1572.7 -1.51554 0.432352 0
M  V30 17405 C 1573.63 -2.25369 -0.417328 0
M  V30 17406 C 1574.64 -1.29197 -0.990551 0
M  V30 17407 O 1575.83 -1.54985 -0.885539 0
M  V30 17408 C 1572.93 -2.99006 -1.59526 0
M  V30 17409 C 1572.11 -4.22234 -1.1418 0
M  V30 17410 C 1571.16 -4.78495 -2.18928 0
M  V30 17411 O 1570.19 -5.40465 -1.78566 0
M  V30 17412 N 1571.39 -4.62091 -3.51358 0
M  V30 17413 H 1574.16 -2.98926 0.215294 0
M  V30 17414 H 1571.72 -1.59783 0.26097 0
M  V30 17415 H 1573.71 -3.33532 -2.29212 0
M  V30 17416 H 1572.28 -2.28491 -2.13332 0
M  V30 17417 H 1571.5 -3.93259 -0.272182 0
M  V30 17418 H 1572.79 -5.02212 -0.816145 0
M  V30 17419 H 1572.19 -4.12718 -3.86885 0
M  V30 17420 H 1570.74 -5.00992 -4.16953 0
M  V30 17421 N 1574.18 -0.163538 -1.56749 0
M  V30 17422 C 1575.11 0.801071 -2.14745 0
M  V30 17423 C 1576.12 1.1992 -1.10104 0
M  V30 17424 O 1577.31 1.14041 -1.37321 0
M  V30 17425 C 1574.41 2.08867 -2.66886 0
M  V30 17426 C 1573.58 1.85532 -3.96102 0
M  V30 17427 C 1572.64 2.98436 -4.33385 0
M  V30 17428 O 1571.67 2.69408 -5.01406 0
M  V30 17429 N 1572.87 4.26029 -3.94309 0
M  V30 17430 H 1575.64 0.3053 -2.98141 0
M  V30 17431 H 1573.2 0.019501 -1.61888 0
M  V30 17432 H 1575.19 2.83477 -2.8883 0
M  V30 17433 H 1573.76 2.49657 -1.88122 0
M  V30 17434 H 1572.98 0.94868 -3.82614 0
M  V30 17435 H 1574.27 1.673 -4.80508 0
M  V30 17436 H 1573.66 4.52475 -3.39533 0
M  V30 17437 H 1572.22 4.97367 -4.21271 0
M  V30 17438 N 1575.65 1.57214 0.110213 0
M  V30 17439 C 1576.9 1.85312 0.816439 0
M  V30 17440 C 1577.23 0.749901 1.79462 0
M  V30 17441 O 1576.48 -0.257948 1.93993 0
M  V30 17442 C 1576.78 3.19933 1.59304 0
M  V30 17443 C 1576.45 4.44477 0.75835 0
M  V30 17444 C 1575.11 4.78292 0.528201 0
M  V30 17445 C 1577.46 5.20899 0.177117 0
M  V30 17446 C 1574.79 5.85966 -0.293292 0
M  V30 17447 C 1577.14 6.29439 -0.631615 0
M  V30 17448 C 1575.81 6.6178 -0.871998 0
M  V30 17449 H 1575.08 0.678104 0.298756 0
M  V30 17450 H 1577.72 1.91339 0.0784721 0
M  V30 17451 H 1576.03 3.09522 2.40216 0
M  V30 17452 H 1577.73 3.38897 2.14359 0
M  V30 17453 H 1574.32 4.17988 0.94783 0
M  V30 17454 H 1578.5 4.95119 0.342121 0
M  V30 17455 H 1573.76 6.09444 -0.488665 0
M  V30 17456 H 1577.93 6.87834 -1.08894 0
M  V30 17457 H 1575.56 7.45045 -1.51037 0
M  V30 17458 N 1577.13 -0.380637 1.52934 0
M  V30 17459 C 1578.06 -1.47174 1.81279 0
M  V30 17460 C 1579.04 -1.56549 0.665319 0
M  V30 17461 O 1580.23 -1.71362 0.913722 0
M  V30 17462 C 1577.36 -2.84691 1.98918 0
M  V30 17463 C 1576.31 -2.90151 3.14637 0
M  V30 17464 C 1575.64 -4.30198 3.17544 0
M  V30 17465 C 1576.94 -2.59037 4.53539 0
M  V30 17466 H 1578.63 -1.23703 2.7265 0
M  V30 17467 H 1576.18 -0.593654 1.31194 0
M  V30 17468 H 1578.13 -3.61034 2.1733 0
M  V30 17469 H 1576.86 -3.09517 1.04244 0
M  V30 17470 H 1575.51 -2.16257 2.96021 0
M  V30 17471 H 1575.16 -4.52076 2.20536 0
M  V30 17472 H 1574.86 -4.3477 3.95284 0
M  V30 17473 H 1576.39 -5.08435 3.38121 0
M  V30 17474 H 1577.8 -3.25096 4.72214 0
M  V30 17475 H 1576.2 -2.74946 5.33408 0
M  V30 17476 H 1577.27 -1.54342 4.59681 0
M  V30 17477 N 1578.61 -1.44039 -0.639573 0
M  V30 17478 C 1580.03 -1.2774 -0.956802 0
M  V30 17479 C 1580.23 -0.207018 -2.00434 0
M  V30 17480 O 1579.28 0.409954 -2.4915 0
M  V30 17481 C 1580.6 -2.64624 -1.42809 0
M  V30 17482 C 1582.14 -2.72266 -1.54402 0
M  V30 17483 C 1582.62 -4.09601 -2.04918 0
M  V30 17484 N 1584.11 -4.11735 -2.122 0
M  V30 17485 C 1584.84 -5.14842 -2.52439 0
M  V30 17486 N 1584.34 -6.28316 -2.91875 0
M  V30 17487 N 1586.13 -5.02196 -2.52499 0
M  V30 17488 H 1578.28 -2.12333 0.0533569 0
M  V30 17489 H 1580.55 -0.947208 -0.0387401 0
M  V30 17490 H 1580.25 -3.43983 -0.732728 0
M  V30 17491 H 1580.13 -2.90944 -2.40066 0
M  V30 17492 H 1582.51 -1.93232 -2.23037 0
M  V30 17493 H 1582.6 -2.49697 -0.555426 0
M  V30 17494 H 1582.24 -4.89108 -1.3688 0
M  V30 17495 H 1582.17 -4.29542 -3.04633 0
M  V30 17496 H 1584.66 -3.29833 -1.84441 0
M  V30 17497 H 1584.97 -7.0281 -3.21368 0
M  V30 17498 H 1583.32 -6.31767 -2.89647 0
M  V30 17499 H 1586.51 -4.12606 -2.21075 0
M  V30 17500 H 1586.68 -5.82677 -2.83535 0
M  V30 17501 N 1580.09 0.879207 -1.30796 0
M  V30 17502 C 1581.37 1.61328 -1.10602 0
M  V30 17503 C 1581.75 2.08301 0.342621 0
M  V30 17504 O 1581.09 1.85436 1.33514 0
M  V30 17505 C 1581.3 2.77838 -2.11203 0
M  V30 17506 C 1582.65 3.48028 -2.43231 0
M  V30 17507 O 1583.68 2.88034 -2.09559 0
M  V30 17508 O 1582.53 4.56233 -3.00854 0
M  V30 17509 H 1579.63 0.709335 -0.425174 0
M  V30 17510 H 1582.17 0.925478 -1.42243 0
M  V30 17511 H 1580.95 2.40475 -3.08687 0
M  V30 17512 H 1580.57 3.54312 -1.80414 0
M  V30 17513 N 1581.57 1.13606 1.09231 0
M  V30 17514 C 1582.5 0.837908 2.17948 0
M  V30 17515 C 1583.48 -0.203575 1.68877 0
M  V30 17516 O 1584.66 -0.0620702 1.94101 0
M  V30 17517 C 1581.79 0.305342 3.45955 0
M  V30 17518 C 1580.75 1.2813 4.08371 0
M  V30 17519 C 1580.07 0.608412 5.31227 0
M  V30 17520 C 1581.37 2.64055 4.50636 0
M  V30 17521 H 1583.07 1.747 2.43147 0
M  V30 17522 H 1580.61 0.84141 1.1686 0
M  V30 17523 H 1582.57 0.0844116 4.21315 0
M  V30 17524 H 1581.29 -0.639144 3.20285 0
M  V30 17525 H 1579.95 1.48826 3.35032 0
M  V30 17526 H 1579.6 -0.341613 5.01839 0
M  V30 17527 H 1579.3 1.25956 5.73942 0
M  V30 17528 H 1580.82 0.396809 6.09309 0
M  V30 17529 H 1582.24 2.47316 5.17212 0
M  V30 17530 H 1580.63 3.25364 5.0424 0
M  V30 17531 H 1581.7 3.21566 3.62937 0
M  V30 17532 N 1583.05 -1.27244 0.929878 0
M  V30 17533 C 1584.32 -1.89369 0.489774 0
M  V30 17534 C 1584.7 -1.84142 -1.03222 0
M  V30 17535 O 1584.05 -1.2881 -1.88733 0
M  V30 17536 C 1584.26 -3.33196 1.03833 0
M  V30 17537 C 1585.61 -4.101 1.10013 0
M  V30 17538 O 1586.63 -3.42221 0.988106 0
M  V30 17539 O 1585.49 -5.31468 1.27296 0
M  V30 17540 H 1582.59 -0.811789 0.157882 0
M  V30 17541 H 1585.13 -1.35496 1.02171 0
M  V30 17542 H 1583.9 -3.31304 2.08214 0
M  V30 17543 H 1583.53 -3.94592 0.488167 0
M  V30 17544 N 1584.52 -0.695628 -1.41417 0
M  V30 17545 C 1585.8 -0.154646 -1.94988 0
M  V30 17546 C 1586.18 1.33534 -1.63499 0
M  V30 17547 O 1585.53 2.08178 -0.942031 0
M  V30 17548 C 1585.74 -0.446004 -3.46138 0
M  V30 17549 C 1587.09 -0.37378 -4.22952 0
M  V30 17550 O 1588.11 -0.380921 -3.54157 0
M  V30 17551 O 1586.97 -0.33395 -5.45479 0
M  V30 17552 H 1584.06 -0.0150053 -0.826864 0
M  V30 17553 H 1586.61 -0.771792 -1.51134 0
M  V30 17554 H 1585.38 -1.47734 -3.6234 0
M  V30 17555 H 1585 0.202111 -3.97086 0
M  V30 17556 N 1586 1.51322 -0.440383 0
M  V30 17557 C 1587.25 2.02113 0.125062 0
M  V30 17558 C 1587.58 1.32436 1.42446 0
M  V30 17559 O 1586.83 0.428981 1.9094 0
M  V30 17560 C 1587.13 3.55287 0.388079 0
M  V30 17561 C 1586.8 4.43272 -0.825876 0
M  V30 17562 C 1585.46 4.67039 -1.15878 0
M  V30 17563 C 1587.81 4.94872 -1.63557 0
M  V30 17564 C 1585.14 5.39652 -2.30201 0
M  V30 17565 C 1587.49 5.68739 -2.76981 0
M  V30 17566 C 1586.15 5.90769 -3.10722 0
M  V30 17567 H 1585.42 0.739585 0.0457635 0
M  V30 17568 H 1588.07 1.82243 -0.588201 0
M  V30 17569 H 1586.38 3.73505 1.18327 0
M  V30 17570 H 1588.07 3.92124 0.839055 0
M  V30 17571 H 1584.66 4.24972 -0.556468 0
M  V30 17572 H 1588.85 4.76391 -1.39158 0
M  V30 17573 H 1584.1 5.54923 -2.56653 0
M  V30 17574 H 1588.28 6.07711 -3.40089 0
M  V30 17575 H 1585.9 6.46814 -3.9942 0
M  V30 17576 N 1587.48 0.171848 1.5666 0
M  V30 17577 C 1588.41 -0.789671 2.15167 0
M  V30 17578 C 1589.42 -1.19335 1.10739 0
M  V30 17579 O 1590.61 -1.13311 1.37924 0
M  V30 17580 C 1587.71 -2.07448 2.6799 0
M  V30 17581 C 1586.89 -1.83429 3.9708 0
M  V30 17582 C 1585.95 -2.96134 4.34961 0
M  V30 17583 O 1584.97 -2.66746 5.02827 0
M  V30 17584 N 1586.17 -4.23932 3.96563 0
M  V30 17585 H 1588.94 -0.289484 2.98299 0
M  V30 17586 H 1586.5 -0.0109154 1.61896 0
M  V30 17587 H 1588.49 -2.81941 2.90329 0
M  V30 17588 H 1587.06 -2.48656 1.89444 0
M  V30 17589 H 1586.28 -0.928376 3.83112 0
M  V30 17590 H 1587.57 -1.64749 4.81389 0
M  V30 17591 H 1586.97 -4.50668 3.41928 0
M  V30 17592 H 1585.52 -4.95126 4.23903 0
M  V30 17593 N 1588.96 -1.5727 -0.101874 0
M  V30 17594 C 1590.18 -1.90319 -0.824215 0
M  V30 17595 C 1590.61 -0.765469 -1.7182 0
M  V30 17596 O 1589.97 0.283275 -1.79073 0
M  V30 17597 C 1590.01 -3.22201 -1.61922 0
M  V30 17598 O 1589.12 -3.09313 -2.72762 0
M  V30 17599 H 1588.46 -0.624042 -0.226864 0
M  V30 17600 H 1590.99 -2.04447 -0.0791314 0
M  V30 17601 H 1591 -3.55343 -2.00487 0
M  V30 17602 H 1589.67 -4.04596 -0.963078 0
M  V30 17603 H 1588.25 -2.87672 -2.37274 0
M  V30 17604 N 1590.44 0.372521 -1.53134 0
M  V30 17605 C 1591.68 1.11405 -1.70178 0
M  V30 17606 C 1592.04 1.87194 -0.444559 0
M  V30 17607 O 1591.33 1.83165 0.562249 0
M  V30 17608 C 1591.52 2.10742 -2.88656 0
M  V30 17609 C 1591.35 1.44713 -4.25779 0
M  V30 17610 C 1590.12 1.2042 -4.90741 0
M  V30 17611 C 1592.32 0.888496 -5.06567 0
M  V30 17612 N 1590.3 0.506685 -6.11805 0
M  V30 17613 C 1591.67 0.319961 -6.19174 0
M  V30 17614 C 1593.73 0.786508 -4.91649 0
M  V30 17615 C 1592.43 -0.340609 -7.18493 0
M  V30 17616 C 1594.46 0.139732 -5.91235 0
M  V30 17617 C 1593.82 -0.41796 -7.03159 0
M  V30 17618 H 1589.92 0.393051 -0.676044 0
M  V30 17619 H 1592.5 0.401356 -1.90518 0
M  V30 17620 H 1590.67 2.79332 -2.69867 0
M  V30 17621 H 1592.41 2.77522 -2.94557 0
M  V30 17622 H 1589.16 1.48362 -4.49762 0
M  V30 17623 H 1589.58 0.173493 -6.76778 0
M  V30 17624 H 1594.23 1.20345 -4.05311 0
M  V30 17625 H 1591.94 -0.769521 -8.04428 0
M  V30 17626 H 1595.53 0.0618412 -5.81767 0
M  V30 17627 H 1594.41 -0.910519 -7.78896 0
M  V30 17628 N 1591.91 1.44376 0.631925 0
M  V30 17629 C 1592.84 1.54005 1.75512 0
M  V30 17630 C 1593.82 0.393126 1.65495 0
M  V30 17631 O 1595.01 0.613143 1.84267 0
M  V30 17632 C 1592.14 1.48313 3.14039 0
M  V30 17633 C 1591.09 2.61474 3.38844 0
M  V30 17634 C 1590.42 2.40834 4.77392 0
M  V30 17635 C 1591.72 4.03627 3.31485 0
M  V30 17636 H 1593.41 2.48019 1.6771 0
M  V30 17637 H 1590.96 1.19368 0.80543 0
M  V30 17638 H 1592.91 1.5365 3.9239 0
M  V30 17639 H 1591.64 0.508152 3.22623 0
M  V30 17640 H 1590.3 2.55525 2.62874 0
M  V30 17641 H 1589.94 1.4153 4.82678 0
M  V30 17642 H 1589.64 3.16703 4.94947 0
M  V30 17643 H 1591.17 2.47988 5.57974 0
M  V30 17644 H 1592.58 4.1095 3.99741 0
M  V30 17645 H 1590.98 4.79694 3.60574 0
M  V30 17646 H 1592.05 4.27255 2.29307 0
M  V30 17647 N 1593.39 -0.872258 1.31261 0
M  V30 17648 C 1594.62 -1.6632 1.23905 0
M  V30 17649 C 1595.04 -1.87109 -0.192878 0
M  V30 17650 O 1594.4 -1.4112 -1.1382 0
M  V30 17651 C 1594.45 -3.00979 1.98606 0
M  V30 17652 O 1593.55 -3.90642 1.32183 0
M  V30 17653 H 1592.89 -0.507736 0.427902 0
M  V30 17654 H 1595.42 -1.0877 1.73292 0
M  V30 17655 H 1595.43 -3.50931 2.08113 0
M  V30 17656 H 1594.11 -2.85168 3.02741 0
M  V30 17657 H 1592.68 -3.4909 1.31112 0
M  V30 17658 N 1594.87 -1.14184 -1.08627 0
M  V30 17659 C 1596.29 -0.881757 -1.33031 0
M  V30 17660 C 1596.49 0.478313 -1.95741 0
M  V30 17661 O 1595.54 1.22308 -2.209 0
M  V30 17662 C 1596.85 -2.01274 -2.23404 0
M  V30 17663 C 1598.4 -2.04578 -2.3689 0
M  V30 17664 C 1598.88 -3.16962 -3.30604 0
M  V30 17665 N 1600.37 -3.16526 -3.3818 0
M  V30 17666 C 1601.1 -4.00124 -4.10716 0
M  V30 17667 N 1600.6 -4.93757 -4.8598 0
M  V30 17668 N 1602.39 -3.88193 -4.06525 0
M  V30 17669 H 1594.54 -2.01787 -0.663017 0
M  V30 17670 H 1596.81 -0.879152 -0.354677 0
M  V30 17671 H 1596.51 -2.9938 -1.84566 0
M  V30 17672 H 1596.39 -1.93393 -3.2385 0
M  V30 17673 H 1598.77 -1.0708 -2.74987 0
M  V30 17674 H 1598.85 -2.16529 -1.36194 0
M  V30 17675 H 1598.5 -4.14704 -2.93228 0
M  V30 17676 H 1598.43 -3.02248 -4.31223 0
M  V30 17677 H 1600.92 -2.48708 -2.84522 0
M  V30 17678 H 1601.23 -5.54015 -5.38783 0
M  V30 17679 H 1599.58 -4.97756 -4.8504 0
M  V30 17680 H 1602.77 -3.14365 -3.46831 0
M  V30 17681 H 1602.94 -4.53571 -4.62793 0
M  V30 17682 N 1596.35 1.26749 -0.936613 0
M  V30 17683 C 1597.58 1.98059 -0.598357 0
M  V30 17684 C 1597.99 1.6979 0.825646 0
M  V30 17685 O 1597.35 0.963514 1.54992 0
M  V30 17686 C 1597.4 3.51948 -0.825519 0
M  V30 17687 O 1597.12 3.79232 -2.19351 0
M  V30 17688 C 1598.62 4.40503 -0.497186 0
M  V30 17689 H 1595.84 0.631826 -0.225914 0
M  V30 17690 H 1598.39 1.61379 -1.25607 0
M  V30 17691 H 1596.54 3.86806 -0.214479 0
M  V30 17692 H 1596.95 4.73782 -2.25014 0
M  V30 17693 H 1598.43 5.47457 -0.706779 0
M  V30 17694 H 1598.91 4.35516 0.567645 0
M  V30 17695 H 1599.51 4.11181 -1.08675 0
M  V30 17696 N 1597.83 0.703118 1.41046 0
M  V30 17697 C 1598.76 0.00331992 2.292 0
M  V30 17698 C 1599.77 -0.736648 1.4518 0
M  V30 17699 O 1600.96 -0.586097 1.68604 0
M  V30 17700 C 1598.06 -1.01948 3.23203 0
M  V30 17701 C 1597.23 -0.347591 4.36017 0
M  V30 17702 C 1596.29 -1.27404 5.10543 0
M  V30 17703 O 1595.32 -0.763558 5.64055 0
M  V30 17704 N 1596.52 -2.60596 5.1872 0
M  V30 17705 H 1599.29 0.760179 2.89899 0
M  V30 17706 H 1596.85 0.549747 1.52281 0
M  V30 17707 H 1598.84 -1.64115 3.6993 0
M  V30 17708 H 1597.41 -1.6778 2.63758 0
M  V30 17709 H 1596.63 0.454088 3.91576 0
M  V30 17710 H 1597.92 0.119295 5.0866 0
M  V30 17711 H 1597.31 -3.0458 4.76705 0
M  V30 17712 H 1595.87 -3.17939 5.68998 0
M  V30 17713 N 1599.3 -1.51086 0.448402 0
M  V30 17714 C 1600.53 -2.06593 -0.112695 0
M  V30 17715 C 1600.95 -1.31471 -1.35502 0
M  V30 17716 O 1600.3 -0.377406 -1.78555 0
M  V30 17717 C 1600.36 -3.59008 -0.423769 0
M  V30 17718 O 1600.08 -4.31293 0.769259 0
M  V30 17719 C 1601.58 -4.31064 -1.03433 0
M  V30 17720 H 1598.8 -0.670993 -0.00301626 0
M  V30 17721 H 1601.34 -1.94532 0.630667 0
M  V30 17722 H 1599.5 -3.70946 -1.11704 0
M  V30 17723 H 1599.91 -5.2211 0.500162 0
M  V30 17724 H 1601.38 -5.38756 -1.20191 0
M  V30 17725 H 1601.86 -3.90075 -2.01837 0
M  V30 17726 H 1602.47 -4.23598 -0.380115 0
M  V30 17727 N 1600.78 -0.180154 -1.56567 0
M  V30 17728 C 1601.75 0.732809 -2.17169 0
M  V30 17729 C 1602.75 1.15176 -1.1221 0
M  V30 17730 O 1603.94 1.06728 -1.37677 0
M  V30 17731 C 1601.07 1.99857 -2.7617 0
M  V30 17732 H 1602.26 0.205088 -2.99198 0
M  V30 17733 H 1599.81 0.0694351 -1.56146 0
M  V30 17734 H 1600.55 2.56917 -1.97899 0
M  V30 17735 H 1600.33 1.70705 -3.5299 0
M  V30 17736 H 1601.82 2.64992 -3.22752 0
M  V30 17737 N 1602.26 1.57322 0.0935319 0
M  V30 17738 C 1603.51 1.85353 0.795445 0
M  V30 17739 C 1603.82 0.769647 1.79822 0
M  V30 17740 O 1605.03 0.937121 2.54814 0
M  V30 17741 C 1603.48 3.28711 1.4655 0
M  V30 17742 C 1603.09 4.45174 0.502415 0
M  V30 17743 C 1604.84 3.65965 2.15105 0
M  V30 17744 C 1602.74 5.79566 1.17715 0
M  V30 17745 H 1601.67 0.691394 0.300816 0
M  V30 17746 H 1604.32 1.83436 0.0484063 0
M  V30 17747 H 1602.71 3.25173 2.26005 0
M  V30 17748 H 1603.88 4.60062 -0.260754 0
M  V30 17749 H 1602.2 4.16328 -0.0775186 0
M  V30 17750 H 1604.79 4.63655 2.66323 0
M  V30 17751 H 1605.14 2.94667 2.94069 0
M  V30 17752 H 1605.67 3.71398 1.42508 0
M  V30 17753 H 1602.41 6.54099 0.428277 0
M  V30 17754 H 1601.93 5.68519 1.9117 0
M  V30 17755 H 1603.61 6.2418 1.70318 0
M  V30 17756 N 1603.74 -0.364395 1.53329 0
M  V30 17757 C 1604.7 -1.42927 1.79178 0
M  V30 17758 C 1605.7 -1.4653 0.662235 0
M  V30 17759 O 1606.89 -1.4727 0.930442 0
M  V30 17760 C 1604.02 -2.82035 1.91492 0
M  V30 17761 H 1605.22 -1.21281 2.74283 0
M  V30 17762 H 1602.77 -0.597596 1.44425 0
M  V30 17763 H 1603.5 -3.08993 0.984579 0
M  V30 17764 H 1603.29 -2.80818 2.73649 0
M  V30 17765 H 1604.78 -3.59148 2.13078 0
M  V30 17766 N 1605.22 -1.44709 -0.62426 0
M  V30 17767 C 1606.44 -1.51573 -1.41564 0
M  V30 17768 C 1606.87 -0.143806 -1.87549 0
M  V30 17769 O 1606.22 0.868361 -1.59151 0
M  V30 17770 C 1606.27 -2.49085 -2.60747 0
M  V30 17771 O 1605.38 -1.99712 -3.60817 0
M  V30 17772 H 1604.72 -0.51157 -0.423311 0
M  V30 17773 H 1607.25 -1.89908 -0.761316 0
M  V30 17774 H 1607.26 -2.67346 -3.08205 0
M  V30 17775 H 1605.93 -3.48733 -2.26624 0
M  V30 17776 H 1604.51 -1.9125 -3.20122 0
M  V30 17777 N 1606.69 0.865285 -1.31722 0
M  V30 17778 C 1607.6 2.00542 -1.21738 0
M  V30 17779 C 1608.62 1.7349 -0.133124 0
M  V30 17780 O 1609.8 1.98303 -0.351809 0
M  V30 17781 C 1606.86 3.33993 -0.930045 0
M  V30 17782 C 1605.92 3.74337 -2.10167 0
M  V30 17783 C 1605.16 5.0142 -1.82795 0
M  V30 17784 O 1605.38 5.65242 -0.765345 0
M  V30 17785 O 1604.31 5.38642 -2.68604 0
M  V30 17786 H 1608.14 2.11898 -2.17561 0
M  V30 17787 H 1605.72 0.994313 -1.11507 0
M  V30 17788 H 1607.61 4.14008 -0.785846 0
M  V30 17789 H 1606.28 3.237 -0.00188642 0
M  V30 17790 H 1605.19 2.94943 -2.3013 0
M  V30 17791 H 1606.52 3.89261 -3.01225 0
M  V30 17792 N 1608.17 1.14759 1.0802 0
M  V30 17793 C 1609.45 0.828957 1.77166 0
M  V30 17794 C 1609.83 -0.676783 1.99957 0
M  V30 17795 O 1609.18 -1.61891 1.61256 0
M  V30 17796 C 1609.39 1.63213 3.08484 0
M  V30 17797 C 1610.74 1.834 3.82948 0
M  V30 17798 O 1611.76 1.59932 3.18277 0
M  V30 17799 O 1610.62 2.22661 4.99083 0
M  V30 17800 H 1607.71 0.304168 0.769032 0
M  V30 17801 H 1610.26 1.253 1.14446 0
M  V30 17802 H 1609.03 2.65474 2.8747 0
M  V30 17803 H 1608.65 1.20397 3.78933 0
M  V30 17804 N 1609.65 -1.26251 0.943322 0
M  V30 17805 C 1610.58 -2.24687 0.398877 0
M  V30 17806 C 1611.56 -1.54279 -0.513498 0
M  V30 17807 O 1612.75 -1.83039 -0.450458 0
M  V30 17808 C 1609.87 -3.36002 -0.426657 0
M  V30 17809 C 1608.92 -4.24382 0.424497 0
M  V30 17810 S 1609.75 -5.02537 1.84977 0
M  V30 17811 C 1610.91 -6.17328 1.03235 0
M  V30 17812 H 1611.14 -2.7052 1.23313 0
M  V30 17813 H 1608.67 -1.3515 0.746587 0
M  V30 17814 H 1610.63 -4.00579 -0.897053 0
M  V30 17815 H 1609.29 -2.88776 -1.23561 0
M  V30 17816 H 1608.49 -5.0357 -0.208116 0
M  V30 17817 H 1608.09 -3.64682 0.829661 0
M  V30 17818 H 1610.38 -6.76939 0.275635 0
M  V30 17819 H 1611.32 -6.84899 1.79776 0
M  V30 17820 H 1611.73 -5.61641 0.567466 0
M  V30 17821 N 1611.13 -0.710588 -1.40671 0
M  V30 17822 C 1612.54 -0.320926 -1.83921 0
M  V30 17823 C 1612.89 1.14358 -1.59426 0
M  V30 17824 O 1612.02 1.87952 -1.07252 0
M  V30 17825 C 1612.61 -0.5757 -3.33873 0
M  V30 17826 C 1611.17 -0.239799 -3.75635 0
M  V30 17827 C 1610.32 -0.850552 -2.63934 0
M  V30 17828 H 1613.27 -0.910118 -1.3001 0
M  V30 17829 H 1613.29 0.160707 -3.8016 0
M  V30 17830 H 1612.8 -1.64166 -3.51669 0
M  V30 17831 H 1610.9 0.821297 -3.63436 0
M  V30 17832 H 1611.02 -0.705306 -4.7388 0
M  V30 17833 H 1609.38 -0.278977 -2.53168 0
M  V30 17834 H 1610.16 -1.92068 -2.84543 0
M  V30 17835 N 1612.61 1.50847 -0.456408 0
M  V30 17836 C 1613.56 2.29805 0.359529 0
M  V30 17837 C 1614.55 1.3646 1.00374 0
M  V30 17838 O 1615.76 1.53718 0.936524 0
M  V30 17839 H 1612.13 0.739825 0.134772 0
M  V30 17840 H 1614.1 2.96603 -0.327009 0
M  V30 17841 C 1612.85 3.16597 1.43741 0
M  V30 17842 H 1612.17 3.88323 0.95108 0
M  V30 17843 H 1613.61 3.74866 1.98119 0
M  V30 17844 C 1612.07 2.3322 2.43126 0
M  V30 17845 O 1612.6 2.00504 3.48082 0
M  V30 17846 N 1610.81 1.96078 2.1448 0
M  V30 17847 H 1610.36 2.22883 1.29155 0
M  V30 17848 H 1610.31 1.40592 2.81214 0
M  V30 17849 N 1614.09 0.188454 1.56469 0
M  V30 17850 C 1615.31 -0.457846 2.01771 0
M  V30 17851 C 1615.73 -1.55646 1.06863 0
M  V30 17852 O 1615.09 -1.82356 0.0723619 0
M  V30 17853 C 1615.14 -1.02032 3.46802 0
M  V30 17854 O 1614.86 0.0344536 4.38086 0
M  V30 17855 C 1616.36 -1.74316 4.07589 0
M  V30 17856 H 1613.58 -0.115594 0.660968 0
M  V30 17857 H 1616.12 0.295213 2.02358 0
M  V30 17858 H 1614.28 -1.7238 3.46935 0
M  V30 17859 H 1614.69 -0.383254 5.23098 0
M  V30 17860 H 1616.17 -2.08912 5.1094 0
M  V30 17861 H 1616.64 -2.64445 3.50665 0
M  V30 17862 H 1617.25 -1.0857 4.11209 0
M  V30 17863 N 1615.56 -1.5737 -0.0851874 0
M  V30 17864 C 1616.49 -2.05796 -1.10319 0
M  V30 17865 C 1617.47 -0.948796 -1.4118 0
M  V30 17866 O 1618.66 -1.22069 -1.51039 0
M  V30 17867 C 1615.79 -2.49069 -2.42037 0
M  V30 17868 C 1614.74 -3.6374 -2.25561 0
M  V30 17869 C 1614.07 -3.93023 -3.62543 0
M  V30 17870 C 1615.37 -4.94274 -1.68793 0
M  V30 17871 H 1617.06 -2.91095 -0.700274 0
M  V30 17872 H 1614.61 -1.40039 -0.335405 0
M  V30 17873 H 1616.56 -2.81558 -3.13534 0
M  V30 17874 H 1615.29 -1.60781 -2.84283 0
M  V30 17875 H 1613.95 -3.31513 -1.56507 0
M  V30 17876 H 1613.59 -3.01887 -4.02335 0
M  V30 17877 H 1613.29 -4.70229 -3.52362 0
M  V30 17878 H 1614.82 -4.27995 -4.35491 0
M  V30 17879 H 1616.23 -5.25079 -2.30141 0
M  V30 17880 H 1614.63 -5.75711 -1.69344 0
M  V30 17881 H 1615.7 -4.80548 -0.648204 0
M  V30 17882 N 1617.04 0.356258 -1.53521 0
M  V30 17883 C 1618.27 1.11828 -1.74075 0
M  V30 17884 C 1618.68 1.82753 -0.473998 0
M  V30 17885 O 1618.04 1.73899 0.553649 0
M  V30 17886 C 1618.09 2.14149 -2.91243 0
M  V30 17887 O 1617.81 1.4611 -4.13017 0
M  V30 17888 C 1619.31 3.02826 -3.23746 0
M  V30 17889 H 1616.53 0.334002 -0.581965 0
M  V30 17890 H 1619.08 0.412336 -2.003 0
M  V30 17891 H 1617.23 2.80328 -2.67386 0
M  V30 17892 H 1617.65 2.1436 -4.78696 0
M  V30 17893 H 1619.12 3.70583 -4.09112 0
M  V30 17894 H 1619.6 3.68149 -2.39505 0
M  V30 17895 H 1620.2 2.42252 -3.49563 0
M  V30 17896 N 1618.52 1.45038 0.616577 0
M  V30 17897 C 1619.43 1.55542 1.75624 0
M  V30 17898 C 1620.45 0.440304 1.68337 0
M  V30 17899 O 1621.62 0.699725 1.88854 0
M  V30 17900 C 1618.69 1.51062 3.1206 0
M  V30 17901 C 1617.75 2.7354 3.30869 0
M  V30 17902 C 1616.98 2.69264 4.60796 0
M  V30 17903 O 1617.2 1.76085 5.42541 0
M  V30 17904 O 1616.14 3.60335 4.82123 0
M  V30 17905 H 1619.96 2.51854 1.69715 0
M  V30 17906 H 1617.55 1.27448 0.779578 0
M  V30 17907 H 1619.43 1.51138 3.93364 0
M  V30 17908 H 1618.11 0.578976 3.1848 0
M  V30 17909 H 1617.01 2.79027 2.49188 0
M  V30 17910 H 1618.35 3.65799 3.2932 0
M  V30 17911 N 1620 -0.858287 1.32179 0
M  V30 17912 C 1620.96 -1.94811 1.20753 0
M  V30 17913 C 1621.96 -1.60261 0.131526 0
M  V30 17914 O 1623.15 -1.69968 0.381662 0
M  V30 17915 C 1620.28 -3.29972 0.856229 0
M  V30 17916 H 1621.48 -2.06371 2.17603 0
M  V30 17917 H 1619.03 -1.04802 1.15958 0
M  V30 17918 H 1619.76 -3.24111 -0.11061 0
M  V30 17919 H 1619.55 -3.56424 1.63414 0
M  V30 17920 H 1621.04 -4.09856 0.800507 0
M  V30 17921 N 1621.48 -1.1533 -1.07409 0
M  V30 17922 C 1622.39 -0.863514 -2.1813 0
M  V30 17923 C 1623.4 0.159954 -1.73263 0
M  V30 17924 O 1624.58 -0.0139818 -2.01395 0
M  V30 17925 C 1621.64 -0.356271 -3.44865 0
M  V30 17926 C 1620.7 -1.44356 -4.04302 0
M  V30 17927 C 1619.94 -0.960429 -5.24987 0
M  V30 17928 O 1620.16 0.194227 -5.70069 0
M  V30 17929 O 1619.09 -1.74387 -5.76084 0
M  V30 17930 H 1622.92 -1.78909 -2.45408 0
M  V30 17931 H 1620.5 -0.932362 -1.16736 0
M  V30 17932 H 1622.39 -0.0798183 -4.21324 0
M  V30 17933 H 1621.06 0.541445 -3.1914 0
M  V30 17934 H 1619.97 -1.77361 -3.29384 0
M  V30 17935 H 1621.3 -2.31617 -4.34298 0
M  V30 17936 N 1622.95 1.25748 -0.950004 0
M  V30 17937 C 1623.9 2.26061 -0.46531 0
M  V30 17938 C 1624.87 1.59021 0.479742 0
M  V30 17939 O 1626.06 1.86687 0.394011 0
M  V30 17940 C 1623.2 3.44156 0.255146 0
M  V30 17941 C 1622.31 4.25846 -0.726604 0
M  V30 17942 C 1621.44 5.31198 0.0159429 0
M  V30 17943 C 1620.48 6.04572 -0.957046 0
M  V30 17944 N 1619.62 7.0167 -0.245676 0
M  V30 17945 H 1624.46 2.66891 -1.32563 0
M  V30 17946 H 1622 1.31216 -0.664882 0
M  V30 17947 H 1623.95 4.11465 0.689381 0
M  V30 17948 H 1622.58 3.04213 1.07954 0
M  V30 17949 H 1621.64 3.58242 -1.27933 0
M  V30 17950 H 1622.95 4.76669 -1.46928 0
M  V30 17951 H 1622.1 6.04561 0.509037 0
M  V30 17952 H 1620.84 4.81235 0.791442 0
M  V30 17953 H 1619.85 5.30028 -1.46118 0
M  V30 17954 H 1621.07 6.56624 -1.7327 0
M  V30 17955 H 1619.02 6.54005 0.51117 0
M  V30 17956 H 1618.93 7.50289 -0.927527 0
M  V30 17957 H 1620.2 7.79172 0.226034 0
M  V30 17958 N 1624.43 0.718038 1.40292 0
M  V30 17959 C 1625.36 0.0818367 2.33357 0
M  V30 17960 C 1626.34 -0.742854 1.53022 0
M  V30 17961 O 1627.53 -0.691281 1.8148 0
M  V30 17962 C 1624.66 -0.838843 3.37017 0
M  V30 17963 C 1623.61 -0.119589 4.27833 0
M  V30 17964 C 1622.94 -1.15615 5.22051 0
M  V30 17965 C 1624.24 1.02769 5.1209 0
M  V30 17966 H 1625.93 0.859167 2.86808 0
M  V30 17967 H 1623.48 0.414606 1.37902 0
M  V30 17968 H 1625.43 -1.29332 4.01063 0
M  V30 17969 H 1624.15 -1.6481 2.81967 0
M  V30 17970 H 1622.81 0.315088 3.65243 0
M  V30 17971 H 1622.46 -1.95852 4.63304 0
M  V30 17972 H 1622.16 -0.679767 5.83655 0
M  V30 17973 H 1623.69 -1.61068 5.88973 0
M  V30 17974 H 1625.1 0.652461 5.69575 0
M  V30 17975 H 1623.5 1.4326 5.82749 0
M  V30 17976 H 1624.57 1.85723 4.47923 0
M  V30 17977 N 1625.91 -1.50602 0.464402 0
M  V30 17978 C 1626.84 -2.31252 -0.323263 0
M  V30 17979 C 1627.82 -1.37856 -0.996476 0
M  V30 17980 O 1629.01 -1.66777 -0.994933 0
M  V30 17981 C 1626.14 -3.17414 -1.40945 0
M  V30 17982 C 1625.09 -4.19307 -0.858226 0
M  V30 17983 C 1624.42 -4.94164 -2.0422 0
M  V30 17984 C 1625.72 -5.22148 0.125921 0
M  V30 17985 H 1627.41 -2.97349 0.34983 0
M  V30 17986 H 1624.96 -1.42997 0.169685 0
M  V30 17987 H 1626.91 -3.72627 -1.96791 0
M  V30 17988 H 1625.63 -2.49189 -2.11122 0
M  V30 17989 H 1624.29 -3.65185 -0.321785 0
M  V30 17990 H 1623.94 -4.22417 -2.7308 0
M  V30 17991 H 1623.64 -5.63083 -1.67963 0
M  V30 17992 H 1625.16 -5.5221 -2.60569 0
M  V30 17993 H 1626.58 -5.72272 -0.343136 0
M  V30 17994 H 1624.98 -5.98749 0.402433 0
M  V30 17995 H 1626.05 -4.73307 1.05399 0
M  V30 17996 N 1627.39 -0.19675 -1.56367 0
M  V30 17997 C 1628.62 0.447139 -2.02011 0
M  V30 17998 C 1629.03 1.55077 -1.07687 0
M  V30 17999 O 1628.39 1.82316 -0.0820316 0
M  V30 18000 C 1628.44 1.00192 -3.47338 0
M  V30 18001 O 1628.16 -0.0576859 -4.38062 0
M  V30 18002 C 1629.66 1.72152 -4.08508 0
M  V30 18003 H 1626.88 0.112088 -0.661572 0
M  V30 18004 H 1629.43 -0.30594 -2.02199 0
M  V30 18005 H 1627.58 1.70537 -3.47844 0
M  V30 18006 H 1627.99 0.355508 -5.23294 0
M  V30 18007 H 1629.47 2.06199 -5.12041 0
M  V30 18008 H 1629.95 2.62581 -3.52062 0
M  V30 18009 H 1630.55 1.06388 -4.11779 0
M  V30 18010 N 1628.87 1.57413 0.0768405 0
M  V30 18011 C 1629.8 2.00058 1.11845 0
M  V30 18012 C 1630.81 0.905783 1.35275 0
M  V30 18013 O 1632 1.18372 1.33605 0
M  V30 18014 C 1629.1 2.32002 2.47039 0
M  V30 18015 C 1628.27 3.63265 2.43634 0
M  V30 18016 C 1627.33 3.82937 3.60896 0
M  V30 18017 O 1626.36 4.54582 3.42555 0
M  V30 18018 N 1627.56 3.24904 4.81059 0
M  V30 18019 H 1630.33 2.90026 0.75533 0
M  V30 18020 H 1627.89 1.59707 0.265567 0
M  V30 18021 H 1629.88 2.4234 3.24119 0
M  V30 18022 H 1628.45 1.4795 2.75372 0
M  V30 18023 H 1627.67 3.63727 1.51974 0
M  V30 18024 H 1628.96 4.49462 2.38455 0
M  V30 18025 H 1628.35 2.66742 4.98864 0
M  V30 18026 H 1626.91 3.40699 5.55669 0
M  V30 18027 N 1630.34 -0.348112 1.53707 0
M  V30 18028 C 1631.29 -1.42782 1.77756 0
M  V30 18029 C 1632.28 -1.47942 0.63261 0
M  V30 18030 O 1633.47 -1.52889 0.891855 0
M  V30 18031 C 1630.6 -2.79986 1.98652 0
M  V30 18032 C 1629.69 -2.79237 3.19199 0
M  V30 18033 N 1630.08 -2.4812 4.40761 0
M  V30 18034 C 1628.37 -3.10387 3.20275 0
M  V30 18035 C 1629.08 -2.55489 5.2259 0
M  V30 18036 N 1628.05 -2.90923 4.592 0
M  V30 18037 H 1631.85 -1.17615 2.6934 0
M  V30 18038 H 1629.37 -0.556438 1.5257 0
M  V30 18039 H 1631.36 -3.57777 2.14013 0
M  V30 18040 H 1630.02 -3.06104 1.08307 0
M  V30 18041 H 1631.04 -2.214 4.68191 0
M  V30 18042 H 1627.71 -3.41706 2.39882 0
M  V30 18043 H 1629.1 -2.34629 6.29602 0
M  V30 18044 N 1631.82 -1.45363 -0.608876 0
M  V30 18045 C 1632.73 -1.56471 -1.74797 0
M  V30 18046 C 1633.75 -0.449225 -1.68101 0
M  V30 18047 O 1634.92 -0.709731 -1.8848 0
M  V30 18048 C 1631.99 -1.52714 -3.11254 0
M  V30 18049 C 1631.05 -2.75291 -3.29414 0
M  V30 18050 C 1630.28 -2.71704 -4.59361 0
M  V30 18051 O 1630.51 -1.78959 -5.41599 0
M  V30 18052 O 1629.44 -3.62886 -4.80205 0
M  V30 18053 H 1633.27 -2.52751 -1.68377 0
M  V30 18054 H 1630.85 -1.27859 -0.772808 0
M  V30 18055 H 1632.73 -1.53222 -3.92557 0
M  V30 18056 H 1631.41 -0.595858 -3.18169 0
M  V30 18057 H 1630.32 -2.80345 -2.47704 0
M  V30 18058 H 1631.65 -3.67541 -3.27375 0
M  V30 18059 N 1633.3 0.851265 -1.32632 0
M  V30 18060 C 1634.25 1.98152 -1.21813 0
M  V30 18061 C 1635.24 1.68959 -0.122182 0
M  V30 18062 O 1636.45 1.77724 -0.285332 0
M  V30 18063 H 1632.82 0.650275 -0.377686 0
M  V30 18064 H 1634.79 2.04405 -2.17397 0
M  V30 18065 C 1633.54 3.34141 -0.961521 0
M  V30 18066 H 1632.87 3.57136 -1.79704 0
M  V30 18067 H 1634.31 4.13763 -0.926077 0
M  V30 18068 C 1632.77 3.35223 0.335704 0
M  V30 18069 O 1633.3 3.78461 1.34647 0
M  V30 18070 N 1631.5 2.88376 0.358875 0
M  V30 18071 H 1631.05 2.53383 -0.464194 0
M  V30 18072 H 1631.01 2.89482 1.22668 0
M  V30 18073 N 1634.78 1.15898 1.06796 0
M  V30 18074 C 1636.03 0.931848 1.78884 0
M  V30 18075 C 1636.34 -0.54197 1.87942 0
M  V30 18076 O 1637.55 -0.886848 2.56607 0
M  V30 18077 C 1636 1.61788 3.21485 0
M  V30 18078 C 1635.61 3.12911 3.2061 0
M  V30 18079 C 1637.35 1.47252 3.98142 0
M  V30 18080 C 1635.26 3.74275 4.579 0
M  V30 18081 H 1634.19 0.344998 0.670442 0
M  V30 18082 H 1636.84 1.38974 1.19827 0
M  V30 18083 H 1635.22 1.08769 3.80769 0
M  V30 18084 H 1636.4 3.72732 2.70938 0
M  V30 18085 H 1634.71 3.27273 2.57451 0
M  V30 18086 H 1637.31 1.90484 4.9962 0
M  V30 18087 H 1637.65 0.420766 4.14168 0
M  V30 18088 H 1638.19 1.97398 3.45367 0
M  V30 18089 H 1634.93 4.79376 4.47078 0
M  V30 18090 H 1634.45 3.19238 5.07786 0
M  V30 18091 H 1636.12 3.75532 5.26863 0
M  V30 18092 N 1636.26 -1.25243 0.956659 0
M  V30 18093 C 1637.2 -2.25811 0.477292 0
M  V30 18094 C 1638.17 -1.59273 -0.471301 0
M  V30 18095 O 1639.36 -1.86894 -0.384105 0
M  V30 18096 C 1636.5 -3.44286 -0.236891 0
M  V30 18097 C 1635.61 -4.25454 0.749177 0
M  V30 18098 C 1634.75 -5.31199 0.012228 0
M  V30 18099 C 1633.79 -6.04056 0.989094 0
M  V30 18100 N 1632.92 -7.0153 0.282883 0
M  V30 18101 H 1637.76 -2.66185 1.33977 0
M  V30 18102 H 1635.3 -1.30862 0.671832 0
M  V30 18103 H 1637.26 -4.11825 -0.66755 0
M  V30 18104 H 1635.89 -3.04781 -1.06339 0
M  V30 18105 H 1634.94 -3.57558 1.29831 0
M  V30 18106 H 1636.25 -4.75883 1.49454 0
M  V30 18107 H 1635.41 -6.04822 -0.476968 0
M  V30 18108 H 1634.14 -4.81648 -0.76591 0
M  V30 18109 H 1633.15 -5.29245 1.48927 0
M  V30 18110 H 1634.37 -6.55695 1.76749 0
M  V30 18111 H 1632.32 -6.54267 -0.476479 0
M  V30 18112 H 1632.24 -7.49786 0.967304 0
M  V30 18113 H 1633.51 -7.79281 -0.184709 0
M  V30 18114 N 1637.73 -0.725468 -1.3991 0
M  V30 18115 C 1638.68 -0.0682776 -2.325 0
M  V30 18116 C 1639.68 0.736285 -1.52562 0
M  V30 18117 O 1640.88 0.638542 -1.68293 0
M  V30 18118 H 1637.26 -0.00327742 -0.751993 0
M  V30 18119 H 1639.23 -0.865735 -2.85565 0
M  V30 18120 C 1637.98 0.832036 -3.37598 0
M  V30 18121 H 1637.3 0.222341 -3.99181 0
M  V30 18122 H 1638.74 1.25965 -4.04856 0
M  V30 18123 C 1637.2 1.96201 -2.73874 0
M  V30 18124 O 1637.73 3.05378 -2.60974 0
M  V30 18125 N 1635.94 1.74857 -2.32106 0
M  V30 18126 H 1635.48 0.860621 -2.42798 0
M  V30 18127 H 1635.44 2.50639 -1.89808 0
M  V30 18128 N 1639.21 1.50354 -0.472382 0
M  V30 18129 C 1640.12 2.32318 0.326405 0
M  V30 18130 C 1641.14 1.4276 0.994771 0
M  V30 18131 O 1642.31 1.75811 0.98246 0
M  V30 18132 C 1639.38 3.17468 1.39337 0
M  V30 18133 C 1638.44 4.22848 0.741465 0
M  V30 18134 C 1637.67 5.03929 1.75759 0
M  V30 18135 O 1637.9 4.86105 2.98425 0
M  V30 18136 O 1636.83 5.87051 1.32871 0
M  V30 18137 H 1640.66 3.01749 -0.343702 0
M  V30 18138 H 1638.24 1.47553 -0.234207 0
M  V30 18139 H 1640.12 3.703 2.01136 0
M  V30 18140 H 1638.8 2.50764 2.04692 0
M  V30 18141 H 1637.71 3.74005 0.0844848 0
M  V30 18142 H 1639.04 4.92026 0.130838 0
M  V30 18143 N 1640.69 0.205039 1.56261 0
M  V30 18144 C 1641.94 -0.431364 1.97033 0
M  V30 18145 C 1642.25 -1.62066 1.09517 0
M  V30 18146 O 1643.46 -2.32551 1.40116 0
M  V30 18147 C 1641.92 -0.818841 3.50461 0
M  V30 18148 C 1641.52 0.346723 4.46656 0
M  V30 18149 C 1643.27 -1.42177 3.99982 0
M  V30 18150 C 1641.17 -0.0622677 5.91367 0
M  V30 18151 H 1640.1 -0.164934 0.73574 0
M  V30 18152 H 1642.76 0.298635 1.81054 0
M  V30 18153 H 1641.14 -1.60579 3.61981 0
M  V30 18154 H 1642.31 1.12427 4.46874 0
M  V30 18155 H 1640.63 0.861799 4.07384 0
M  V30 18156 H 1643.22 -1.74039 5.05583 0
M  V30 18157 H 1643.57 -2.33177 3.44868 0
M  V30 18158 H 1644.1 -0.698591 3.91618 0
M  V30 18159 H 1640.84 0.813802 6.50429 0
M  V30 18160 H 1640.36 -0.804474 5.94381 0
M  V30 18161 H 1642.04 -0.49466 6.45106 0
M  V30 18162 N 1642.17 -1.57451 -0.0684915 0
M  V30 18163 C 1643.45 -1.78483 -0.800209 0
M  V30 18164 C 1643.83 -0.793438 -1.95621 0
M  V30 18165 O 1643.17 0.172756 -2.27846 0
M  V30 18166 C 1643.38 -3.25069 -1.27008 0
M  V30 18167 C 1644.73 -3.8899 -1.70212 0
M  V30 18168 O 1645.76 -3.2898 -1.36566 0
M  V30 18169 O 1644.62 -4.94569 -2.32515 0
M  V30 18170 H 1641.71 -0.732598 -0.383704 0
M  V30 18171 H 1644.26 -1.69631 -0.0483117 0
M  V30 18172 H 1643.03 -3.88784 -0.443067 0
M  V30 18173 H 1642.65 -3.38657 -2.08319 0
M  V30 18174 N 1643.65 0.339955 -1.5389 0
M  V30 18175 C 1644.6 1.43787 -1.82833 0
M  V30 18176 C 1645.59 1.54303 -0.699058 0
M  V30 18177 O 1646.8 1.56884 -0.882455 0
M  V30 18178 H 1643.17 0.479497 -0.579298 0
M  V30 18179 H 1645.14 1.16592 -2.7468 0
M  V30 18180 C 1643.89 2.80257 -2.05794 0
M  V30 18181 H 1643.21 2.72933 -2.92143 0
M  V30 18182 H 1644.65 3.56191 -2.30009 0
M  V30 18183 C 1643.11 3.26143 -0.844532 0
M  V30 18184 O 1643.64 4.01674 -0.0457121 0
M  V30 18185 N 1641.85 2.82988 -0.660748 0
M  V30 18186 H 1641.4 2.21687 -1.31198 0
M  V30 18187 H 1641.35 3.14044 0.149661 0
M  V30 18188 N 1645.13 1.45684 0.601159 0
M  V30 18189 C 1646.36 1.53351 1.38445 0
M  V30 18190 C 1646.76 0.167103 1.88461 0
M  V30 18191 O 1646.11 -0.842684 1.63231 0
M  V30 18192 C 1646.17 2.46214 2.61952 0
M  V30 18193 C 1645.83 3.92826 2.33532 0
M  V30 18194 C 1646.83 4.8255 1.93498 0
M  V30 18195 C 1644.51 4.378 2.46245 0
M  V30 18196 C 1646.51 6.15257 1.66547 0
M  V30 18197 C 1644.2 5.70546 2.18908 0
M  V30 18198 C 1645.19 6.59094 1.79121 0
M  V30 18199 O 1644.88 7.89378 1.52108 0
M  V30 18200 H 1644.61 0.521638 0.429965 0
M  V30 18201 H 1647.17 1.91622 0.739617 0
M  V30 18202 H 1645.4 2.02926 3.29178 0
M  V30 18203 H 1647.09 2.44492 3.24004 0
M  V30 18204 H 1647.85 4.49066 1.83207 0
M  V30 18205 H 1643.73 3.69115 2.76179 0
M  V30 18206 H 1647.28 6.8433 1.35418 0
M  V30 18207 H 1643.17 6.03583 2.28818 0
M  V30 18208 H 1643.94 8.01468 1.66107 0
M  V30 18209 N 1646.6 -0.84422 1.33082 0
M  V30 18210 C 1647.51 -1.9858 1.24913 0
M  V30 18211 C 1648.53 -1.73256 0.160708 0
M  V30 18212 O 1649.71 -1.97719 0.383313 0
M  V30 18213 C 1646.77 -3.32471 0.983063 0
M  V30 18214 C 1645.83 -3.70946 2.16096 0
M  V30 18215 C 1645.06 -4.98448 1.90749 0
M  V30 18216 O 1645.29 -5.63953 0.855173 0
M  V30 18217 O 1644.22 -5.34301 2.7714 0
M  V30 18218 H 1648.05 -2.0841 2.20905 0
M  V30 18219 H 1645.63 -0.976447 1.13075 0
M  V30 18220 H 1647.51 -4.12705 0.851612 0
M  V30 18221 H 1646.19 -3.23656 0.053384 0
M  V30 18222 H 1645.1 -2.91244 2.34793 0
M  V30 18223 H 1646.43 -3.8442 3.07379 0
M  V30 18224 N 1648.08 -1.16463 -1.0618 0
M  V30 18225 C 1648.99 -0.886601 -2.17202 0
M  V30 18226 C 1650.01 0.141568 -1.73423 0
M  V30 18227 O 1651.18 -0.0353417 -2.01369 0
M  V30 18228 C 1648.25 -0.392829 -3.44467 0
M  V30 18229 C 1647.31 -1.48636 -4.02748 0
M  V30 18230 C 1646.54 -1.01606 -5.23939 0
M  V30 18231 O 1646.77 0.133753 -5.70243 0
M  V30 18232 O 1645.7 -1.80487 -5.74202 0
M  V30 18233 H 1649.53 -1.81502 -2.43497 0
M  V30 18234 H 1647.11 -0.944691 -1.15741 0
M  V30 18235 H 1648.99 -0.124501 -4.21216 0
M  V30 18236 H 1647.67 0.507566 -3.19696 0
M  V30 18237 H 1646.57 -1.80845 -3.27484 0
M  V30 18238 H 1647.91 -2.3621 -4.31817 0
M  V30 18239 N 1649.56 1.24734 -0.963288 0
M  V30 18240 C 1650.84 1.88004 -0.539809 0
M  V30 18241 C 1651.22 1.86814 0.983035 0
M  V30 18242 O 1650.56 1.33769 1.85251 0
M  V30 18243 C 1650.77 3.30326 -1.1263 0
M  V30 18244 C 1652.12 4.07039 -1.20848 0
M  V30 18245 O 1653.15 3.3948 -1.07849 0
M  V30 18246 O 1652.01 5.27906 -1.41342 0
M  V30 18247 H 1649.1 0.807318 -0.17935 0
M  V30 18248 H 1651.65 1.3274 -1.05727 0
M  V30 18249 H 1650.42 3.25668 -2.16925 0
M  V30 18250 H 1650.04 3.93159 -0.592614 0
M  V30 18251 N 1651.04 0.732878 1.39523 0
M  V30 18252 C 1652.27 0.289649 2.0456 0
M  V30 18253 C 1652.68 -1.07973 1.55365 0
M  V30 18254 O 1652.02 -1.69309 0.712751 0
M  V30 18255 C 1652.08 0.210767 3.58882 0
M  V30 18256 C 1651.74 1.51827 4.31042 0
M  V30 18257 C 1652.74 2.46356 4.57826 0
M  V30 18258 C 1650.43 1.78198 4.69628 0
M  V30 18259 C 1652.42 3.65491 5.22202 0
M  V30 18260 C 1650.11 2.97611 5.33733 0
M  V30 18261 C 1651.11 3.91079 5.59952 0
M  V30 18262 O 1650.79 5.08395 6.22728 0
M  V30 18263 H 1650.53 0.124787 0.664382 0
M  V30 18264 H 1653.08 0.996726 1.79595 0
M  V30 18265 H 1651.31 -0.552394 3.82734 0
M  V30 18266 H 1653 -0.200184 4.05406 0
M  V30 18267 H 1653.76 2.27252 4.28464 0
M  V30 18268 H 1649.64 1.06292 4.48579 0
M  V30 18269 H 1653.19 4.38462 5.42583 0
M  V30 18270 H 1649.08 3.16617 5.62516 0
M  V30 18271 H 1649.85 5.08701 6.41222 0
M  V30 18272 N 1652.52 -1.50101 0.480349 0
M  V30 18273 C 1653.45 -2.26582 -0.345418 0
M  V30 18274 C 1654.46 -1.32283 -0.948947 0
M  V30 18275 O 1655.65 -1.57724 -0.835784 0
M  V30 18276 C 1652.75 -3.0393 -1.49932 0
M  V30 18277 C 1651.92 -4.25653 -1.00689 0
M  V30 18278 C 1650.98 -4.85217 -2.03594 0
M  V30 18279 O 1650.01 -5.45873 -1.61281 0
M  V30 18280 N 1651.21 -4.73035 -3.36479 0
M  V30 18281 H 1653.97 -2.98089 0.310285 0
M  V30 18282 H 1651.54 -1.58872 0.311671 0
M  V30 18283 H 1653.53 -3.40656 -2.18485 0
M  V30 18284 H 1652.1 -2.35162 -2.05955 0
M  V30 18285 H 1651.32 -3.93926 -0.146932 0
M  V30 18286 H 1652.61 -5.04554 -0.655957 0
M  V30 18287 H 1652 -4.24818 -3.73559 0
M  V30 18288 H 1650.56 -5.14004 -4.00804 0
M  V30 18289 N 1653.99 -0.213323 -1.5615 0
M  V30 18290 C 1654.94 0.700175 -2.19923 0
M  V30 18291 C 1655.91 1.19641 -1.15218 0
M  V30 18292 O 1657.1 1.257 -1.43542 0
M  V30 18293 C 1654.24 1.90629 -2.87671 0
M  V30 18294 C 1653.35 1.44973 -4.06948 0
M  V30 18295 C 1652.48 2.61277 -4.62502 0
M  V30 18296 C 1651.52 2.12316 -5.74098 0
M  V30 18297 N 1650.66 3.21862 -6.23978 0
M  V30 18298 H 1655.5 0.14961 -2.97624 0
M  V30 18299 H 1653.04 0.0620957 -1.46969 0
M  V30 18300 H 1654.99 2.61431 -3.2513 0
M  V30 18301 H 1653.62 2.42987 -2.12502 0
M  V30 18302 H 1652.68 0.636917 -3.7503 0
M  V30 18303 H 1653.99 1.05065 -4.87609 0
M  V30 18304 H 1653.14 3.40174 -5.02361 0
M  V30 18305 H 1651.88 3.04468 -3.80987 0
M  V30 18306 H 1650.89 1.31877 -5.33749 0
M  V30 18307 H 1652.11 1.70134 -6.57443 0
M  V30 18308 H 1650.06 3.64551 -5.45379 0
M  V30 18309 H 1649.97 2.86181 -6.9974 0
M  V30 18310 H 1651.24 4.0092 -6.68493 0
M  V30 18311 N 1655.47 1.57485 0.0601405 0
M  V30 18312 C 1656.41 1.99806 1.10239 0
M  V30 18313 C 1657.38 0.876931 1.36926 0
M  V30 18314 O 1658.57 1.14022 1.50104 0
M  V30 18315 C 1655.69 2.34471 2.4442 0
M  V30 18316 C 1654.74 3.56712 2.33793 0
M  V30 18317 S 1655.57 5.07095 1.7209 0
M  V30 18318 C 1656.73 5.44972 3.07825 0
M  V30 18319 H 1656.96 2.87897 0.74178 0
M  V30 18320 H 1654.5 1.52037 0.269081 0
M  V30 18321 H 1656.45 2.55116 3.21599 0
M  V30 18322 H 1655.11 1.46888 2.77638 0
M  V30 18323 H 1654.31 3.78521 3.32773 0
M  V30 18324 H 1653.91 3.35757 1.64752 0
M  V30 18325 H 1656.2 5.43756 4.04148 0
M  V30 18326 H 1657.14 6.4564 2.90783 0
M  V30 18327 H 1657.55 4.7244 3.08967 0
M  V30 18328 N 1656.95 -0.331789 1.54068 0
M  V30 18329 C 1658.37 -0.675628 1.44594 0
M  V30 18330 C 1658.57 -1.91976 0.612166 0
M  V30 18331 O 1657.62 -2.5227 0.107742 0
M  V30 18332 C 1658.94 -0.857303 2.8822 0
M  V30 18333 C 1660.48 -0.955171 2.9807 0
M  V30 18334 C 1660.96 -1.16908 4.42828 0
M  V30 18335 N 1662.45 -1.23601 4.46405 0
M  V30 18336 C 1663.18 -1.41924 5.55558 0
M  V30 18337 N 1662.68 -1.57345 6.74696 0
M  V30 18338 N 1664.47 -1.44566 5.43191 0
M  V30 18339 H 1656.62 0.486058 2.06764 0
M  V30 18340 H 1658.89 0.155605 0.935142 0
M  V30 18341 H 1658.59 -0.0144659 3.51697 0
M  V30 18342 H 1658.47 -1.75558 3.33855 0
M  V30 18343 H 1660.85 -1.78852 2.34725 0
M  V30 18344 H 1660.94 -0.0335425 2.55778 0
M  V30 18345 H 1660.58 -0.340612 5.06757 0
M  V30 18346 H 1660.51 -2.10445 4.82722 0
M  V30 18347 H 1663 -1.13161 3.60559 0
M  V30 18348 H 1663.31 -1.70995 7.53645 0
M  V30 18349 H 1661.66 -1.54458 6.77619 0
M  V30 18350 H 1664.85 -1.3211 4.49071 0
M  V30 18351 H 1665.02 -1.58505 6.28315 0
M  V30 18352 N 1658.43 -1.46001 -0.593424 0
M  V30 18353 C 1659.71 -1.4123 -1.35327 0
M  V30 18354 C 1660.09 -0.0901956 -2.10907 0
M  V30 18355 O 1659.43 0.928102 -2.08803 0
M  V30 18356 C 1659.64 -2.63515 -2.28825 0
M  V30 18357 C 1660.99 -3.09208 -2.90991 0
M  V30 18358 O 1662.02 -2.63988 -2.39142 0
M  V30 18359 O 1660.87 -3.87723 -3.8514 0
M  V30 18360 H 1657.97 -0.561132 -0.607503 0
M  V30 18361 H 1660.51 -1.58151 -0.615333 0
M  V30 18362 H 1659.29 -3.51308 -1.72333 0
M  V30 18363 H 1658.91 -2.48999 -3.09976 0
M  V30 18364 N 1659.91 0.83715 -1.33527 0
M  V30 18365 C 1660.84 1.95164 -1.18263 0
M  V30 18366 C 1661.82 1.62414 -0.0776864 0
M  V30 18367 O 1663 1.86963 -0.24024 0
M  V30 18368 C 1660.13 3.28766 -0.814294 0
M  V30 18369 C 1659.17 3.80486 -1.92698 0
M  V30 18370 S 1660.01 4.01957 -3.53823 0
M  V30 18371 C 1661.16 5.38507 -3.19 0
M  V30 18372 H 1661.4 2.07813 -2.12605 0
M  V30 18373 H 1658.93 0.991125 -1.18389 0
M  V30 18374 H 1660.89 4.05964 -0.608556 0
M  V30 18375 H 1659.55 3.13905 0.110553 0
M  V30 18376 H 1658.74 4.77164 -1.62266 0
M  V30 18377 H 1658.34 3.10189 -2.08947 0
M  V30 18378 H 1660.64 6.21404 -2.69931 0
M  V30 18379 H 1661.58 5.73913 -4.14764 0
M  V30 18380 H 1661.99 5.03342 -2.55552 0
M  V30 18381 N 1661.38 1.17024 1.05561 0
M  V30 18382 C 1662.63 0.954436 1.78143 0
M  V30 18383 C 1662.95 -0.518525 1.8798 0
M  V30 18384 O 1662.22 -1.37654 1.39385 0
M  V30 18385 H 1660.8 0.350141 0.659856 0
M  V30 18386 H 1663.47 1.4743 1.27477 0
M  V30 18387 H 1662.56 1.37955 2.79955 0
M  V30 18388 N 1662.86 -1.24221 0.969889 0
M  V30 18389 C 1663.77 -2.29001 0.509467 0
M  V30 18390 C 1664.79 -1.68587 -0.430637 0
M  V30 18391 O 1665.96 -1.99106 -0.303142 0
M  V30 18392 C 1663.03 -3.46174 -0.190906 0
M  V30 18393 C 1662.09 -4.21982 0.789296 0
M  V30 18394 C 1661.32 -5.3356 0.122252 0
M  V30 18395 O 1661.55 -5.59909 -1.08896 0
M  V30 18396 O 1660.48 -5.9635 0.815517 0
M  V30 18397 H 1664.31 -2.70506 1.38058 0
M  V30 18398 H 1661.89 -1.29955 0.737028 0
M  V30 18399 H 1663.77 -4.1733 -0.584244 0
M  V30 18400 H 1662.45 -3.06642 -1.03695 0
M  V30 18401 H 1661.36 -3.53192 1.23313 0
M  V30 18402 H 1662.69 -4.65337 1.60382 0
M  V30 18403 N 1664.34 -0.740267 -1.39132 0
M  V30 18404 C 1665.27 -0.0524011 -2.2814 0
M  V30 18405 C 1666.25 0.742237 -1.44671 0
M  V30 18406 O 1667.44 0.723684 -1.74055 0
M  V30 18407 C 1664.56 0.932876 -3.256 0
M  V30 18408 C 1663.61 0.226089 -4.259 0
M  V30 18409 S 1664.44 -1.06369 -5.24829 0
M  V30 18410 C 1665.6 -0.0811445 -6.25847 0
M  V30 18411 H 1665.83 -0.807208 -2.86132 0
M  V30 18412 H 1663.36 -0.532283 -1.44935 0
M  V30 18413 H 1665.32 1.49604 -3.82268 0
M  V30 18414 H 1663.98 1.66056 -2.66616 0
M  V30 18415 H 1663.18 0.971812 -4.94542 0
M  V30 18416 H 1662.78 -0.265186 -3.73059 0
M  V30 18417 H 1665.07 0.757451 -6.73252 0
M  V30 18418 H 1666.01 -0.734849 -7.04277 0
M  V30 18419 H 1666.42 0.293606 -5.63736 0
M  V30 18420 N 1665.82 1.49844 -0.488302 0
M  V30 18421 C 1667.06 2.02709 0.060788 0
M  V30 18422 C 1667.4 1.36828 1.37811 0
M  V30 18423 O 1666.67 0.499679 1.87972 0
M  V30 18424 C 1666.96 3.59386 0.226637 0
M  V30 18425 C 1666.81 4.35814 -1.11292 0
M  V30 18426 C 1668.13 4.29204 0.973218 0
M  V30 18427 H 1665.25 0.736712 0.0206177 0
M  V30 18428 H 1667.89 1.78995 -0.637245 0
M  V30 18429 H 1666.04 3.79722 0.821182 0
M  V30 18430 H 1667.71 4.27007 -1.74536 0
M  V30 18431 H 1665.95 3.98874 -1.70535 0
M  V30 18432 H 1666.62 5.43758 -0.950319 0
M  V30 18433 H 1669.1 4.13447 0.469106 0
M  V30 18434 H 1667.98 5.38605 1.05809 0
M  V30 18435 H 1668.24 3.93564 2.01394 0
M  V30 18436 N 1667.3 0.221601 1.56034 0
M  V30 18437 C 1668.52 -0.414945 2.02696 0
M  V30 18438 C 1668.94 -1.53344 1.10141 0
M  V30 18439 O 1668.3 -1.82162 0.111026 0
M  V30 18440 C 1668.35 -0.946532 3.48888 0
M  V30 18441 O 1668.07 0.12737 4.37915 0
M  V30 18442 C 1669.57 -1.65631 4.11195 0
M  V30 18443 H 1666.79 -0.101548 0.663271 0
M  V30 18444 H 1669.33 0.338069 2.01686 0
M  V30 18445 H 1667.49 -1.64982 3.50514 0
M  V30 18446 H 1667.9 -0.272211 5.23793 0
M  V30 18447 H 1669.38 -1.98027 5.15257 0
M  V30 18448 H 1669.85 -2.56947 3.56195 0
M  V30 18449 H 1670.46 -0.998231 4.13419 0
M  V30 18450 N 1668.77 -1.57515 -0.0517878 0
M  V30 18451 C 1669.71 -2.01812 -1.08649 0
M  V30 18452 C 1670.72 -0.92719 -1.33817 0
M  V30 18453 O 1671.91 -1.20483 -1.31705 0
M  V30 18454 C 1669.01 -2.35903 -2.43316 0
M  V30 18455 C 1668.18 -3.67095 -2.37824 0
M  V30 18456 C 1667.24 -3.8863 -3.54758 0
M  V30 18457 O 1666.27 -4.59974 -3.3528 0
M  V30 18458 N 1667.47 -3.32516 -4.75829 0
M  V30 18459 H 1670.23 -2.91191 -0.709094 0
M  V30 18460 H 1667.79 -1.60109 -0.240125 0
M  V30 18461 H 1669.79 -2.47466 -3.20223 0
M  V30 18462 H 1668.36 -1.52312 -2.72983 0
M  V30 18463 H 1667.58 -3.66099 -1.46168 0
M  V30 18464 H 1668.86 -4.53199 -2.31275 0
M  V30 18465 H 1668.26 -2.74645 -4.94557 0
M  V30 18466 H 1666.82 -3.49496 -5.50178 0
M  V30 18467 N 1670.25 0.323614 -1.54242 0
M  V30 18468 C 1671.5 1.05947 -1.72104 0
M  V30 18469 C 1671.82 1.88547 -0.497512 0
M  V30 18470 O 1671.09 1.89712 0.488485 0
M  V30 18471 H 1669.67 0.394141 -0.634557 0
M  V30 18472 H 1672.33 0.360063 -1.91545 0
M  V30 18473 H 1671.43 1.72552 -2.60062 0
M  V30 18474 N 1671.73 1.46313 0.585673 0
M  V30 18475 C 1672.66 1.52683 1.7094 0
M  V30 18476 C 1673.68 0.415447 1.5741 0
M  V30 18477 O 1674.87 0.683657 1.64889 0
M  V30 18478 C 1671.97 1.38822 3.09163 0
M  V30 18479 C 1671.14 2.64027 3.48724 0
M  V30 18480 C 1670.2 2.44407 4.65995 0
M  V30 18481 O 1669.22 3.18118 4.72006 0
M  V30 18482 N 1670.43 1.50381 5.60683 0
M  V30 18483 H 1673.19 2.49573 1.65932 0
M  V30 18484 H 1670.75 1.42332 0.771573 0
M  V30 18485 H 1672.74 1.23474 3.85404 0
M  V30 18486 H 1671.31 0.501247 3.08555 0
M  V30 18487 H 1670.53 2.94338 2.62219 0
M  V30 18488 H 1671.82 3.47206 3.71921 0
M  V30 18489 H 1671.22 0.895917 5.5856 0
M  V30 18490 H 1669.78 1.40997 6.36367 0
M  V30 18491 N 1673.21 -0.830057 1.33969 0
M  V30 18492 C 1674.44 -1.61774 1.28984 0
M  V30 18493 C 1674.85 -1.88299 -0.137515 0
M  V30 18494 O 1674.21 -1.46936 -1.0824 0
M  V30 18495 C 1674.26 -2.96282 2.07121 0
M  V30 18496 O 1673.98 -2.70918 3.44289 0
M  V30 18497 C 1675.48 -3.90699 2.09449 0
M  V30 18498 H 1672.7 -0.503088 0.444008 0
M  V30 18499 H 1675.25 -1.03328 1.76475 0
M  V30 18500 H 1673.4 -3.51305 1.63289 0
M  V30 18501 H 1673.82 -3.56635 3.84593 0
M  V30 18502 H 1675.29 -4.82266 2.68558 0
M  V30 18503 H 1675.77 -4.25536 1.08702 0
M  V30 18504 H 1676.37 -3.41614 2.53338 0
M  V30 18505 N 1674.69 -1.17582 -1.04939 0
M  V30 18506 C 1675.96 -0.875638 -1.74906 0
M  V30 18507 C 1676.34 0.62353 -2.01681 0
M  V30 18508 O 1675.69 1.57558 -1.65492 0
M  V30 18509 C 1675.9 -1.71334 -3.04049 0
M  V30 18510 C 1677.25 -1.93489 -3.77951 0
M  V30 18511 O 1678.27 -1.68314 -3.13925 0
M  V30 18512 O 1677.13 -2.35815 -4.93005 0
M  V30 18513 H 1674.23 -0.324451 -0.760697 0
M  V30 18514 H 1676.77 -1.2829 -1.11084 0
M  V30 18515 H 1675.55 -2.73003 -2.80331 0
M  V30 18516 H 1675.17 -1.30401 -3.75608 0
M  V30 18517 N 1676.17 1.23705 -0.976463 0
M  V30 18518 C 1677.13 2.23257 -0.518533 0
M  V30 18519 C 1678.13 1.56006 0.3897 0
M  V30 18520 O 1679.32 1.73226 0.18394 0
M  V30 18521 C 1676.45 3.39997 0.247916 0
M  V30 18522 H 1677.64 2.65284 -1.39872 0
M  V30 18523 H 1675.2 1.3647 -0.761946 0
M  V30 18524 H 1675.93 3.03421 1.14482 0
M  V30 18525 H 1675.72 3.90013 -0.403975 0
M  V30 18526 H 1677.21 4.13868 0.557034 0
M  V30 18527 N 1677.64 0.747635 1.38738 0
M  V30 18528 C 1678.58 0.0762364 2.29073 0
M  V30 18529 C 1679.59 -0.690087 1.4745 0
M  V30 18530 O 1680.78 -0.53216 1.70383 0
M  V30 18531 C 1677.88 -0.916136 3.26282 0
M  V30 18532 C 1677.05 -0.2087 4.36902 0
M  V30 18533 C 1676.11 -1.11097 5.14338 0
M  V30 18534 O 1675.14 -0.583722 5.66199 0
M  V30 18535 N 1676.34 -2.43961 5.26748 0
M  V30 18536 H 1679.1 0.852024 2.87334 0
M  V30 18537 H 1676.66 0.597915 1.50455 0
M  V30 18538 H 1678.66 -1.52263 3.74964 0
M  V30 18539 H 1677.23 -1.59304 2.68963 0
M  V30 18540 H 1676.45 0.578435 3.89933 0
M  V30 18541 H 1677.73 0.281061 5.08023 0
M  V30 18542 H 1677.13 -2.89259 4.86154 0
M  V30 18543 H 1675.69 -2.99676 5.78824 0
M  V30 18544 N 1679.12 -1.49583 0.496242 0
M  V30 18545 C 1680.35 -2.06547 -0.0468437 0
M  V30 18546 C 1680.76 -1.3574 -1.31801 0
M  V30 18547 O 1680.1 -0.427948 -1.78646 0
M  V30 18548 C 1680.16 -3.57532 -0.375622 0
M  V30 18549 C 1679.83 -4.49994 0.797134 0
M  V30 18550 C 1680.83 -4.91793 1.6863 0
M  V30 18551 C 1678.51 -4.92355 0.99459 0
M  V30 18552 C 1680.5 -5.74685 2.7571 0
M  V30 18553 C 1678.19 -5.75024 2.06859 0
M  V30 18554 C 1679.19 -6.16093 2.94819 0
M  V30 18555 O 1678.88 -6.9711 4.00366 0
M  V30 18556 H 1678.61 -0.675832 0.0150901 0
M  V30 18557 H 1681.16 -1.93413 0.691416 0
M  V30 18558 H 1679.39 -3.68658 -1.16741 0
M  V30 18559 H 1681.08 -3.96755 -0.856757 0
M  V30 18560 H 1681.85 -4.59715 1.54554 0
M  V30 18561 H 1677.73 -4.59893 0.31933 0
M  V30 18562 H 1681.27 -6.06661 3.44396 0
M  V30 18563 H 1677.17 -6.06514 2.20931 0
M  V30 18564 H 1677.94 -7.15408 3.9766 0
M  V30 18565 N 1680.6 -0.229873 -1.55915 0
M  V30 18566 C 1681.53 0.717016 -2.16643 0
M  V30 18567 C 1682.51 1.18509 -1.1133 0
M  V30 18568 O 1683.69 1.26632 -1.3963 0
M  V30 18569 C 1680.82 1.97243 -2.75342 0
M  V30 18570 C 1679.87 1.64364 -3.93556 0
M  V30 18571 S 1680.7 0.76114 -5.30063 0
M  V30 18572 C 1681.86 2.02593 -5.92205 0
M  V30 18573 H 1682.09 0.200879 -2.96621 0
M  V30 18574 H 1679.62 -0.0144837 -1.54393 0
M  V30 18575 H 1681.58 2.69323 -3.09799 0
M  V30 18576 H 1680.24 2.45969 -1.95341 0
M  V30 18577 H 1679.43 2.57662 -4.33159 0
M  V30 18578 H 1679.04 1.00341 -3.60288 0
M  V30 18579 H 1681.33 2.97504 -6.08685 0
M  V30 18580 H 1682.27 1.67367 -6.88036 0
M  V30 18581 H 1682.68 2.17026 -5.21114 0
M  V30 18582 N 1682.08 1.5754 0.0434337 0
M  V30 18583 C 1683.32 1.88608 0.737108 0
M  V30 18584 C 1683.65 0.825342 1.7612 0
M  V30 18585 O 1682.91 -0.175437 1.94912 0
M  V30 18586 C 1683.21 3.26402 1.45591 0
M  V30 18587 C 1682.87 4.47294 0.56915 0
M  V30 18588 C 1681.53 4.80102 0.324866 0
M  V30 18589 C 1683.89 5.21181 -0.0439735 0
M  V30 18590 C 1681.21 5.84195 -0.541556 0
M  V30 18591 C 1683.57 6.26194 -0.898013 0
M  V30 18592 C 1682.23 6.57486 -1.1519 0
M  V30 18593 H 1681.5 0.690166 0.269727 0
M  V30 18594 H 1684.15 1.915 -0.00275199 0
M  V30 18595 H 1682.45 3.19431 2.26872 0
M  V30 18596 H 1684.15 3.47684 1.99793 0
M  V30 18597 H 1680.74 4.21632 0.769694 0
M  V30 18598 H 1684.92 4.96125 0.131816 0
M  V30 18599 H 1680.18 6.06823 -0.746711 0
M  V30 18600 H 1684.35 6.82596 -1.37969 0
M  V30 18601 H 1681.98 7.37969 -1.82501 0
M  V30 18602 N 1683.56 -0.31543 1.54411 0
M  V30 18603 C 1684.49 -1.39353 1.87358 0
M  V30 18604 C 1685.47 -1.53586 0.731118 0
M  V30 18605 O 1686.65 -1.67332 0.98558 0
M  V30 18606 C 1683.78 -2.75998 2.10814 0
M  V30 18607 C 1682.74 -2.76545 3.2666 0
M  V30 18608 C 1682.06 -4.16343 3.35504 0
M  V30 18609 C 1683.36 -2.39567 4.64117 0
M  V30 18610 H 1685.06 -1.12028 2.77651 0
M  V30 18611 H 1682.6 -0.537476 1.33593 0
M  V30 18612 H 1684.55 -3.51491 2.32447 0
M  V30 18613 H 1683.28 -3.04817 1.17278 0
M  V30 18614 H 1681.94 -2.03507 3.04927 0
M  V30 18615 H 1681.59 -4.42316 2.39512 0
M  V30 18616 H 1681.29 -4.17613 4.13368 0
M  V30 18617 H 1682.81 -4.93637 3.59381 0
M  V30 18618 H 1684.22 -3.04775 4.85577 0
M  V30 18619 H 1682.62 -2.52075 5.4459 0
M  V30 18620 H 1683.69 -1.34707 4.65813 0
M  V30 18621 N 1685.03 -1.46622 -0.577906 0
M  V30 18622 C 1686.45 -1.31683 -0.901762 0
M  V30 18623 C 1686.65 -0.291842 -1.99375 0
M  V30 18624 O 1685.71 0.303913 -2.50664 0
M  V30 18625 C 1687.02 -2.70443 -1.31457 0
M  V30 18626 C 1688.57 -2.7857 -1.42715 0
M  V30 18627 C 1689.04 -4.17923 -1.87361 0
M  V30 18628 N 1690.53 -4.20364 -1.94546 0
M  V30 18629 C 1691.27 -5.25085 -2.30376 0
M  V30 18630 N 1690.76 -6.4013 -2.64964 0
M  V30 18631 N 1692.56 -5.12453 -2.30972 0
M  V30 18632 H 1684.71 -2.11916 0.143367 0
M  V30 18633 H 1686.97 -0.947999 0.00146914 0
M  V30 18634 H 1686.68 -3.46781 -0.586174 0
M  V30 18635 H 1686.55 -3.00864 -2.2751 0
M  V30 18636 H 1688.94 -2.02518 -2.14641 0
M  V30 18637 H 1689.02 -2.51828 -0.449021 0
M  V30 18638 H 1688.66 -4.94473 -1.16012 0
M  V30 18639 H 1688.59 -4.42076 -2.8614 0
M  V30 18640 H 1691.08 -3.37359 -1.70286 0
M  V30 18641 H 1691.4 -7.15808 -2.91271 0
M  V30 18642 H 1689.74 -6.43483 -2.62591 0
M  V30 18643 H 1692.93 -4.21611 -2.03376 0
M  V30 18644 H 1693.11 -5.94178 -2.58566 0
M  V30 18645 N 1686.51 0.822941 -1.34408 0
M  V30 18646 C 1687.44 1.94142 -1.21826 0
M  V30 18647 C 1688.46 1.6215 -0.145353 0
M  V30 18648 O 1689.65 1.74025 -0.397205 0
M  V30 18649 C 1686.75 3.28077 -0.849619 0
M  V30 18650 C 1685.92 3.88092 -2.0175 0
M  V30 18651 C 1684.98 5.00406 -1.62726 0
M  V30 18652 O 1684 5.18703 -2.34383 0
M  V30 18653 N 1685.21 5.7797 -0.541413 0
M  V30 18654 H 1687.97 2.05467 -2.18182 0
M  V30 18655 H 1685.53 0.999521 -1.27362 0
M  V30 18656 H 1687.52 4.00661 -0.57035 0
M  V30 18657 H 1686.09 3.12591 0.0237499 0
M  V30 18658 H 1685.31 3.07902 -2.46151 0
M  V30 18659 H 1686.6 4.24921 -2.79856 0
M  V30 18660 H 1686 5.65674 0.0542929 0
M  V30 18661 H 1684.56 6.51005 -0.321874 0
M  V30 18662 N 1687.99 1.18137 1.04314 0
M  V30 18663 C 1689.41 0.930523 1.29667 0
M  V30 18664 C 1689.61 -0.405336 1.97381 0
M  V30 18665 O 1688.66 -1.14025 2.25288 0
M  V30 18666 C 1689.98 2.09427 2.1578 0
M  V30 18667 C 1691.52 2.13229 2.29134 0
M  V30 18668 C 1692 3.29014 3.18612 0
M  V30 18669 N 1693.49 3.28859 3.26199 0
M  V30 18670 C 1694.22 4.15092 3.95583 0
M  V30 18671 N 1693.72 5.11453 4.67319 0
M  V30 18672 N 1695.51 4.03014 3.91837 0
M  V30 18673 H 1687.66 2.04108 0.587669 0
M  V30 18674 H 1689.93 0.89171 0.321804 0
M  V30 18675 H 1689.63 3.06023 1.73328 0
M  V30 18676 H 1689.51 2.0528 3.16449 0
M  V30 18677 H 1691.89 1.17212 2.70823 0
M  V30 18678 H 1691.98 2.21435 1.28064 0
M  V30 18679 H 1691.62 4.25302 2.77635 0
M  V30 18680 H 1691.55 3.18045 4.19708 0
M  V30 18681 H 1694.04 2.59097 2.75095 0
M  V30 18682 H 1694.35 5.7363 5.1785 0
M  V30 18683 H 1692.7 5.15415 4.66232 0
M  V30 18684 H 1695.89 3.27021 3.34925 0
M  V30 18685 H 1696.06 4.70435 4.4564 0
M  V30 18686 N 1689.47 -1.23186 0.98301 0
M  V30 18687 C 1690.4 -2.27054 0.544858 0
M  V30 18688 C 1691.38 -1.64749 -0.423281 0
M  V30 18689 O 1692.56 -1.91611 -0.316075 0
M  V30 18690 C 1689.69 -3.46972 -0.150976 0
M  V30 18691 C 1688.65 -4.21647 0.734707 0
M  V30 18692 C 1687.97 -5.34618 -0.0934874 0
M  V30 18693 C 1689.27 -4.81372 2.02679 0
M  V30 18694 H 1690.97 -2.63957 1.41305 0
M  V30 18695 H 1688.51 -1.26885 0.680895 0
M  V30 18696 H 1690.47 -4.18784 -0.468825 0
M  V30 18697 H 1689.19 -3.09137 -1.05364 0
M  V30 18698 H 1687.85 -3.51655 1.03605 0
M  V30 18699 H 1687.5 -4.93025 -0.996768 0
M  V30 18700 H 1687.2 -5.85503 0.496019 0
M  V30 18701 H 1688.72 -6.09251 -0.405658 0
M  V30 18702 H 1690.14 -5.45178 1.77353 0
M  V30 18703 H 1688.53 -5.42554 2.56429 0
M  V30 18704 H 1689.6 -4.01972 2.71194 0
M  V30 18705 N 1690.95 -0.754982 -1.38339 0
M  V30 18706 C 1691.88 -0.0883836 -2.2903 0
M  V30 18707 C 1692.89 0.682258 -1.47814 0
M  V30 18708 O 1694.08 0.523117 -1.70663 0
M  V30 18709 C 1691.18 0.898819 -3.26764 0
M  V30 18710 C 1690.35 0.185527 -4.37006 0
M  V30 18711 C 1689.41 1.08368 -5.1492 0
M  V30 18712 O 1688.44 0.553687 -5.66501 0
M  V30 18713 N 1689.64 2.41164 -5.28034 0
M  V30 18714 H 1692.41 -0.86725 -2.86878 0
M  V30 18715 H 1689.97 -0.605886 -1.50135 0
M  V30 18716 H 1691.96 1.50273 -3.75766 0
M  V30 18717 H 1690.53 1.57876 -2.69804 0
M  V30 18718 H 1689.75 -0.599106 -3.89621 0
M  V30 18719 H 1691.04 -0.307999 -5.07867 0
M  V30 18720 H 1690.43 2.86677 -4.87681 0
M  V30 18721 H 1688.99 2.96602 -5.80406 0
M  V30 18722 N 1692.42 1.49318 -0.504168 0
M  V30 18723 C 1693.39 2.27703 0.26157 0
M  V30 18724 C 1694.39 1.3385 0.891114 0
M  V30 18725 O 1695.58 1.56981 0.755156 0
M  V30 18726 C 1692.71 3.11912 1.37564 0
M  V30 18727 H 1693.9 2.96855 -0.426292 0
M  V30 18728 H 1691.46 1.54135 -0.259236 0
M  V30 18729 H 1692.19 2.47332 2.09755 0
M  V30 18730 H 1691.98 3.8092 0.929641 0
M  V30 18731 H 1693.47 3.71106 1.91494 0
M  V30 18732 N 1693.9 0.238138 1.5579 0
M  V30 18733 C 1694.83 -0.659451 2.23994 0
M  V30 18734 C 1695.81 -1.18817 1.21723 0
M  V30 18735 O 1697 -1.22913 1.50353 0
M  V30 18736 C 1694.13 -1.86043 2.93267 0
M  V30 18737 C 1693.08 -1.46485 4.02152 0
M  V30 18738 C 1692.41 -2.74595 4.58805 0
M  V30 18739 C 1693.71 -0.642448 5.18334 0
M  V30 18740 H 1695.4 -0.0907522 2.99262 0
M  V30 18741 H 1692.95 -0.042209 1.43938 0
M  V30 18742 H 1694.9 -2.49393 3.39678 0
M  V30 18743 H 1693.63 -2.45436 2.15473 0
M  V30 18744 H 1692.28 -0.854729 3.56497 0
M  V30 18745 H 1691.93 -3.32168 3.77721 0
M  V30 18746 H 1691.63 -2.48854 5.32302 0
M  V30 18747 H 1693.16 -3.38859 5.07944 0
M  V30 18748 H 1694.57 -1.18005 5.61024 0
M  V30 18749 H 1692.97 -0.481458 5.98166 0
M  V30 18750 H 1694.04 0.347298 4.83655 0
M  V30 18751 N 1695.38 -1.57561 -0.0350783 0
M  V30 18752 C 1696.66 -1.8014 -0.76217 0
M  V30 18753 C 1697.04 -0.834754 -1.93894 0
M  V30 18754 O 1696.39 0.124387 -2.28161 0
M  V30 18755 C 1696.6 -3.2769 -1.20084 0
M  V30 18756 C 1697.94 -3.92513 -1.61923 0
M  V30 18757 O 1698.97 -3.31803 -1.29558 0
M  V30 18758 O 1697.83 -4.9939 -2.21972 0
M  V30 18759 H 1694.92 -0.740572 -0.368078 0
M  V30 18760 H 1697.47 -1.69696 -0.0123195 0
M  V30 18761 H 1696.24 -3.89636 -0.3605 0
M  V30 18762 H 1695.86 -3.43 -2.01089 0
M  V30 18763 N 1696.86 0.307236 -1.54576 0
M  V30 18764 C 1698.09 1.06233 -1.77545 0
M  V30 18765 C 1698.5 1.81153 -0.5319 0
M  V30 18766 O 1697.86 1.75573 0.498044 0
M  V30 18767 C 1697.91 2.04775 -2.97908 0
M  V30 18768 O 1697.63 1.32896 -4.17457 0
M  V30 18769 C 1699.13 2.92373 -3.33216 0
M  V30 18770 H 1696.35 0.315318 -0.592297 0
M  V30 18771 H 1698.9 0.348403 -2.0151 0
M  V30 18772 H 1697.05 2.71679 -2.76169 0
M  V30 18773 H 1697.46 1.99022 -4.85274 0
M  V30 18774 H 1698.94 3.5738 -4.20694 0
M  V30 18775 H 1699.42 3.60343 -2.51097 0
M  V30 18776 H 1700.02 2.31009 -3.57093 0
M  V30 18777 N 1698.34 1.46926 0.570122 0
M  V30 18778 C 1699.58 1.52585 1.32523 0
M  V30 18779 C 1699.91 0.184291 1.94127 0
M  V30 18780 O 1699.18 -0.790478 1.79244 0
M  V30 18781 H 1697.76 0.562019 0.492081 0
M  V30 18782 H 1700.42 1.83141 0.666746 0
M  V30 18783 H 1699.51 2.28541 2.12545 0
M  V30 18784 N 1699.82 -0.815801 1.34842 0
M  V30 18785 C 1701.06 -1.57426 1.28797 0
M  V30 18786 C 1701.42 -1.91897 -0.138973 0
M  V30 18787 O 1700.71 -1.57777 -1.08706 0
M  V30 18788 C 1700.9 -2.87795 2.11917 0
M  V30 18789 C 1700.73 -2.6606 3.62549 0
M  V30 18790 C 1699.5 -2.62428 4.3181 0
M  V30 18791 C 1701.7 -2.37078 4.56397 0
M  V30 18792 N 1699.68 -2.32313 5.68246 0
M  V30 18793 C 1701.05 -2.16721 5.80889 0
M  V30 18794 C 1703.11 -2.22865 4.45237 0
M  V30 18795 C 1701.81 -1.8359 6.95476 0
M  V30 18796 C 1703.84 -1.9113 5.59663 0
M  V30 18797 C 1703.2 -1.71602 6.83178 0
M  V30 18798 H 1699.3 -0.578164 0.526545 0
M  V30 18799 H 1701.88 -0.955728 1.69629 0
M  V30 18800 H 1700.05 -3.47559 1.7337 0
M  V30 18801 H 1701.79 -3.53258 1.97461 0
M  V30 18802 H 1698.54 -2.76753 3.84324 0
M  V30 18803 H 1698.96 -2.20076 6.40231 0
M  V30 18804 H 1703.61 -2.36665 3.50357 0
M  V30 18805 H 1701.32 -1.68528 7.90332 0
M  V30 18806 H 1704.91 -1.80854 5.52976 0
M  V30 18807 H 1703.79 -1.47403 7.70222 0
M  V30 18808 N 1701.29 -1.18689 -1.03686 0
M  V30 18809 C 1702.24 -0.91384 -2.13897 0
M  V30 18810 C 1703.24 0.127333 -1.68921 0
M  V30 18811 O 1704.44 -0.0211711 -1.79988 0
M  V30 18812 H 1700.82 -0.278067 -0.698701 0
M  V30 18813 H 1702.79 -1.85013 -2.34122 0
M  V30 18814 C 1701.54 -0.460259 -3.4464 0
M  V30 18815 H 1700.86 -1.25294 -3.7966 0
M  V30 18816 H 1702.3 -0.308239 -4.22878 0
M  V30 18817 C 1700.76 0.824485 -3.26656 0
M  V30 18818 O 1701.29 1.8878 -3.54577 0
M  V30 18819 N 1699.49 0.778588 -2.79976 0
M  V30 18820 H 1699.04 -0.0869543 -2.57453 0
M  V30 18821 H 1699 1.6386 -2.68323 0
M  V30 18822 N 1702.77 1.22662 -0.989529 0
M  V30 18823 C 1703.68 2.28162 -0.545835 0
M  V30 18824 C 1704.7 1.69251 0.403762 0
M  V30 18825 O 1705.87 1.99563 0.271428 0
M  V30 18826 C 1702.94 3.46434 0.135808 0
M  V30 18827 C 1702 4.20673 -0.85633 0
M  V30 18828 C 1701.23 5.33298 -0.207121 0
M  V30 18829 O 1701.46 5.6157 0.99975 0
M  V30 18830 O 1700.39 5.94977 -0.910288 0
M  V30 18831 H 1704.22 2.68276 -1.42344 0
M  V30 18832 H 1701.8 1.28766 -0.757609 0
M  V30 18833 H 1703.68 4.18207 0.517776 0
M  V30 18834 H 1702.36 3.08252 0.988035 0
M  V30 18835 H 1701.26 3.51186 -1.28917 0
M  V30 18836 H 1702.6 4.62726 -1.67765 0
M  V30 18837 N 1704.25 0.762308 1.37937 0
M  V30 18838 C 1705.18 0.156036 2.32978 0
M  V30 18839 C 1706.16 -0.693795 1.55308 0
M  V30 18840 O 1707.35 -0.633195 1.83587 0
M  V30 18841 C 1704.48 -0.731199 3.39515 0
M  V30 18842 C 1703.43 0.0165834 4.27997 0
M  V30 18843 C 1702.76 -0.989476 5.25465 0
M  V30 18844 C 1704.06 1.19009 5.08561 0
M  V30 18845 H 1705.75 0.949978 2.83929 0
M  V30 18846 H 1703.3 0.458269 1.36513 0
M  V30 18847 H 1705.25 -1.16507 4.04974 0
M  V30 18848 H 1703.97 -1.55756 2.87067 0
M  V30 18849 H 1702.63 0.431128 3.64056 0
M  V30 18850 H 1702.28 -1.81013 4.69301 0
M  V30 18851 H 1701.98 -0.493738 5.85522 0
M  V30 18852 H 1703.5 -1.42248 5.93799 0
M  V30 18853 H 1704.92 0.833336 5.67211 0
M  V30 18854 H 1703.31 1.61727 5.77896 0
M  V30 18855 H 1704.38 1.99879 4.41788 0
M  V30 18856 N 1705.73 -1.49049 0.51208 0
M  V30 18857 C 1706.68 -2.26276 -0.27989 0
M  V30 18858 C 1707.66 -1.31598 -0.925787 0
M  V30 18859 O 1708.85 -1.5625 -0.831554 0
M  V30 18860 C 1705.98 -3.16191 -1.33709 0
M  V30 18861 C 1705.07 -4.18335 -0.696883 0
M  V30 18862 N 1705.46 -5.05376 0.206971 0
M  V30 18863 C 1703.76 -4.35629 -0.956187 0
M  V30 18864 C 1704.46 -5.78856 0.574543 0
M  V30 18865 N 1703.43 -5.43567 -0.0601701 0
M  V30 18866 H 1707.24 -2.90945 0.415736 0
M  V30 18867 H 1704.75 -1.59035 0.328893 0
M  V30 18868 H 1706.75 -3.70159 -1.91801 0
M  V30 18869 H 1705.41 -2.53075 -2.03428 0
M  V30 18870 H 1706.42 -5.14659 0.578481 0
M  V30 18871 H 1703.1 -3.83714 -1.64529 0
M  V30 18872 H 1704.49 -6.58913 1.31464 0
M  V30 18873 N 1707.21 -0.246397 -1.55662 0
M  V30 18874 C 1708.15 0.653368 -2.21359 0
M  V30 18875 C 1709.12 1.1717 -1.1773 0
M  V30 18876 O 1710.31 1.22626 -1.46176 0
M  V30 18877 C 1707.45 1.84484 -2.9165 0
M  V30 18878 C 1706.56 1.36308 -4.09932 0
M  V30 18879 C 1705.7 2.51407 -4.6794 0
M  V30 18880 C 1704.73 2.0009 -5.78472 0
M  V30 18881 N 1703.87 3.08555 -6.30665 0
M  V30 18882 H 1708.71 0.0864458 -2.97875 0
M  V30 18883 H 1706.25 0.0309074 -1.47068 0
M  V30 18884 H 1708.21 2.54476 -3.30602 0
M  V30 18885 H 1706.84 2.38425 -2.17609 0
M  V30 18886 H 1705.89 0.557224 -3.76297 0
M  V30 18887 H 1707.2 0.946988 -4.89728 0
M  V30 18888 H 1706.35 3.29442 -5.09463 0
M  V30 18889 H 1705.09 2.96318 -3.87359 0
M  V30 18890 H 1704.1 1.20526 -5.36427 0
M  V30 18891 H 1705.32 1.5615 -6.60904 0
M  V30 18892 H 1703.27 3.529 -5.52989 0
M  V30 18893 H 1703.19 2.71274 -7.05653 0
M  V30 18894 H 1704.45 3.8665 -6.76847 0
M  V30 18895 N 1708.68 1.57577 0.026722 0
M  V30 18896 C 1709.62 2.021 1.05976 0
M  V30 18897 C 1710.59 0.905778 1.35035 0
M  V30 18898 O 1711.78 1.1718 1.47652 0
M  V30 18899 C 1708.91 2.39603 2.39391 0
M  V30 18900 C 1707.95 3.61591 2.26174 0
M  V30 18901 S 1708.78 5.10631 1.61295 0
M  V30 18902 C 1709.94 5.51379 2.96196 0
M  V30 18903 H 1710.17 2.89406 0.680545 0
M  V30 18904 H 1707.71 1.52574 0.236771 0
M  V30 18905 H 1709.66 2.61881 3.16115 0
M  V30 18906 H 1708.33 1.52744 2.7446 0
M  V30 18907 H 1707.52 3.85495 3.24669 0
M  V30 18908 H 1707.12 3.39176 1.57593 0
M  V30 18909 H 1709.41 5.52206 3.92524 0
M  V30 18910 H 1710.36 6.51663 2.77023 0
M  V30 18911 H 1710.76 4.78887 2.98877 0
M  V30 18912 N 1710.16 -0.299034 1.54737 0
M  V30 18913 C 1711.41 -1.03159 1.75299 0
M  V30 18914 C 1711.76 -1.84859 0.533365 0
M  V30 18915 O 1711.06 -1.85639 -0.474219 0
M  V30 18916 C 1711.25 -1.9673 2.98382 0
M  V30 18917 C 1711.08 -1.24234 4.32199 0
M  V30 18918 C 1709.85 -0.96869 4.95928 0
M  V30 18919 C 1712.05 -0.645795 5.10229 0
M  V30 18920 N 1710.03 -0.214208 6.13526 0
M  V30 18921 C 1711.4 -0.0241804 6.19995 0
M  V30 18922 C 1713.45 -0.55104 4.94841 0
M  V30 18923 C 1712.16 0.683023 7.1605 0
M  V30 18924 C 1714.18 0.142513 5.91228 0
M  V30 18925 C 1713.55 0.752971 7.00364 0
M  V30 18926 H 1709.64 -0.360348 0.694027 0
M  V30 18927 H 1712.23 -0.31 1.92216 0
M  V30 18928 H 1710.4 -2.66138 2.82887 0
M  V30 18929 H 1712.13 -2.63152 3.07462 0
M  V30 18930 H 1708.89 -1.26735 4.56328 0
M  V30 18931 H 1709.31 0.149604 6.76835 0
M  V30 18932 H 1713.95 -1.0087 4.10591 0
M  V30 18933 H 1711.67 1.15245 7.9984 0
M  V30 18934 H 1715.26 0.215798 5.814 0
M  V30 18935 H 1714.14 1.2811 7.73665 0
M  V30 18936 N 1711.64 -1.47227 -0.562322 0
M  V30 18937 C 1712.55 -1.61953 -1.69731 0
M  V30 18938 C 1713.57 -0.502478 -1.66587 0
M  V30 18939 O 1714.74 -0.769335 -1.86127 0
M  V30 18940 C 1711.81 -1.62539 -3.06238 0
M  V30 18941 C 1710.87 -2.85632 -3.20489 0
M  V30 18942 C 1710.1 -2.86181 -4.50485 0
M  V30 18943 O 1710.32 -1.96099 -5.35632 0
M  V30 18944 O 1709.26 -3.7798 -4.68417 0
M  V30 18945 H 1713.08 -2.5798 -1.6025 0
M  V30 18946 H 1710.67 -1.30253 -0.73174 0
M  V30 18947 H 1712.55 -1.65634 -3.87483 0
M  V30 18948 H 1711.23 -0.696779 -3.16112 0
M  V30 18949 H 1710.13 -2.88084 -2.3866 0
M  V30 18950 H 1711.47 -3.7777 -3.15517 0
M  V30 18951 N 1713.12 0.808639 -1.35273 0
M  V30 18952 C 1714.07 1.94177 -1.28055 0
M  V30 18953 C 1715.06 1.68485 -0.175874 0
M  V30 18954 O 1716.27 1.76726 -0.341729 0
M  V30 18955 H 1712.64 0.63793 -0.398183 0
M  V30 18956 H 1714.61 1.97385 -2.2379 0
M  V30 18957 C 1713.36 3.30913 -1.06734 0
M  V30 18958 H 1712.68 3.51238 -1.90975 0
M  V30 18959 H 1714.12 4.10607 -1.05724 0
M  V30 18960 C 1712.58 3.36122 0.228886 0
M  V30 18961 O 1713.11 3.82553 1.22539 0
M  V30 18962 N 1711.32 2.89371 0.266949 0
M  V30 18963 H 1710.87 2.51778 -0.544571 0
M  V30 18964 H 1710.82 2.93238 1.13396 0
M  V30 18965 N 1714.6 1.19237 1.03055 0
M  V30 18966 C 1716.01 0.944224 1.28672 0
M  V30 18967 C 1716.21 -0.384378 1.978 0
M  V30 18968 O 1715.27 -1.11629 2.26484 0
M  V30 18969 C 1716.58 2.11704 2.13546 0
M  V30 18970 C 1718.13 2.15647 2.2686 0
M  V30 18971 C 1718.6 3.32375 3.15105 0
M  V30 18972 N 1720.1 3.323 3.22693 0
M  V30 18973 C 1720.83 4.19265 3.91158 0
M  V30 18974 N 1720.33 5.16381 4.61868 0
M  V30 18975 N 1722.12 4.07147 3.87541 0
M  V30 18976 H 1714.27 2.0472 0.565987 0
M  V30 18977 H 1716.53 0.895073 0.312328 0
M  V30 18978 H 1716.24 3.07845 1.70072 0
M  V30 18979 H 1716.11 2.08624 3.14254 0
M  V30 18980 H 1718.5 1.20078 2.69565 0
M  V30 18981 H 1718.58 2.22781 1.25708 0
M  V30 18982 H 1718.23 4.28222 2.73108 0
M  V30 18983 H 1718.16 3.22478 4.16312 0
M  V30 18984 H 1720.65 2.62 2.72331 0
M  V30 18985 H 1720.96 5.7909 5.11737 0
M  V30 18986 H 1719.3 5.20331 4.60739 0
M  V30 18987 H 1722.5 3.30555 3.31438 0
M  V30 18988 H 1722.67 4.75135 4.40625 0
M  V30 18989 N 1716.07 -1.22136 0.99602 0
M  V30 18990 C 1717.01 -2.23518 0.507162 0
M  V30 18991 C 1718.02 -1.57824 -0.399426 0
M  V30 18992 O 1719.21 -1.77364 -0.20106 0
M  V30 18993 C 1716.31 -3.37709 -0.283931 0
M  V30 18994 C 1715.48 -4.3299 0.619549 0
M  V30 18995 C 1714.54 -5.26062 -0.120376 0
M  V30 18996 O 1713.57 -5.67041 0.495269 0
M  V30 18997 N 1714.77 -5.63322 -1.40172 0
M  V30 18998 H 1717.53 -2.66092 1.37896 0
M  V30 18999 H 1715.09 -1.36468 0.871102 0
M  V30 19000 H 1717.09 -3.96961 -0.787661 0
M  V30 19001 H 1715.66 -2.94193 -1.05685 0
M  V30 19002 H 1714.88 -3.72011 1.3039 0
M  V30 19003 H 1716.16 -4.93591 1.23473 0
M  V30 19004 H 1715.56 -5.32006 -1.92318 0
M  V30 19005 H 1714.12 -6.24977 -1.85058 0
M  V30 19006 N 1717.55 -0.769612 -1.37531 0
M  V30 19007 C 1718.5 -0.142211 -2.32165 0
M  V30 19008 C 1719.49 0.687376 -1.54827 0
M  V30 19009 O 1720.7 0.584677 -1.7024 0
M  V30 19010 H 1717.08 -0.0271998 -0.751508 0
M  V30 19011 H 1719.05 -0.956148 -2.82667 0
M  V30 19012 C 1717.8 0.72421 -3.40074 0
M  V30 19013 H 1717.12 0.0952318 -3.99687 0
M  V30 19014 H 1718.56 1.13021 -4.08659 0
M  V30 19015 C 1717.02 1.87388 -2.79977 0
M  V30 19016 O 1717.55 2.96921 -2.70557 0
M  V30 19017 N 1715.75 1.67384 -2.37552 0
M  V30 19018 H 1715.3 0.782941 -2.45414 0
M  V30 19019 H 1715.26 2.44474 -1.97686 0
M  V30 19020 N 1719.03 1.48775 -0.519977 0
M  V30 19021 C 1719.96 2.32292 0.237213 0
M  V30 19022 C 1720.94 1.4146 0.944625 0
M  V30 19023 O 1722.13 1.70355 0.932349 0
M  V30 19024 C 1719.26 3.22426 1.29068 0
M  V30 19025 C 1718.21 4.22204 0.702011 0
M  V30 19026 C 1717.54 5.01403 1.85739 0
M  V30 19027 C 1718.84 5.21321 -0.319626 0
M  V30 19028 H 1720.53 2.95846 -0.459949 0
M  V30 19029 H 1718.08 1.42268 -0.222641 0
M  V30 19030 H 1720.03 3.79674 1.82826 0
M  V30 19031 H 1718.75 2.56853 2.01728 0
M  V30 19032 H 1717.41 3.66128 0.186027 0
M  V30 19033 H 1717.06 4.32262 2.57214 0
M  V30 19034 H 1716.76 5.68929 1.46949 0
M  V30 19035 H 1718.28 5.615 2.39895 0
M  V30 19036 H 1719.7 5.73151 0.130505 0
M  V30 19037 H 1718.1 5.96843 -0.624377 0
M  V30 19038 H 1719.17 4.69069 -1.22893 0
M  V30 19039 N 1720.51 0.254649 1.55529 0
M  V30 19040 C 1721.44 -0.635656 2.24681 0
M  V30 19041 C 1722.42 -1.17519 1.22977 0
M  V30 19042 O 1723.6 -1.21311 1.51649 0
M  V30 19043 C 1720.73 -1.82922 2.95224 0
M  V30 19044 C 1719.69 -1.42212 4.03683 0
M  V30 19045 C 1719.01 -2.69713 4.61691 0
M  V30 19046 C 1720.31 -0.587436 5.18986 0
M  V30 19047 H 1722.01 -0.0590063 2.99342 0
M  V30 19048 H 1719.55 -0.02694 1.43975 0
M  V30 19049 H 1721.51 -2.45777 3.42304 0
M  V30 19050 H 1720.23 -2.43137 2.18064 0
M  V30 19051 H 1718.89 -0.81687 3.57383 0
M  V30 19052 H 1718.54 -3.28143 3.81223 0
M  V30 19053 H 1718.24 -2.43194 5.34911 0
M  V30 19054 H 1719.76 -3.33453 5.11509 0
M  V30 19055 H 1721.18 -1.12048 5.62244 0
M  V30 19056 H 1719.57 -0.417988 5.98643 0
M  V30 19057 H 1720.64 0.398577 4.83259 0
M  V30 19058 N 1721.99 -1.57589 -0.0183649 0
M  V30 19059 C 1723.21 -1.94421 -0.722172 0
M  V30 19060 C 1723.64 -0.855471 -1.67521 0
M  V30 19061 O 1722.99 0.187954 -1.80323 0
M  V30 19062 C 1723.04 -3.30331 -1.44615 0
M  V30 19063 O 1722.15 -3.23337 -2.55982 0
M  V30 19064 H 1721.49 -0.63519 -0.193466 0
M  V30 19065 H 1724.02 -2.04579 0.0293527 0
M  V30 19066 H 1724.03 -3.65471 -1.8137 0
M  V30 19067 H 1722.7 -4.09132 -0.747256 0
M  V30 19068 H 1721.28 -2.99845 -2.21692 0
M  V30 19069 N 1723.46 0.290824 -1.54893 0
M  V30 19070 C 1724.4 1.38087 -1.82933 0
M  V30 19071 C 1725.41 1.46365 -0.712811 0
M  V30 19072 O 1726.6 1.48501 -0.990432 0
M  V30 19073 C 1723.7 2.76374 -1.9614 0
M  V30 19074 C 1722.87 2.90905 -3.26639 0
M  V30 19075 C 1721.93 4.09754 -3.30134 0
M  V30 19076 O 1720.96 4.01356 -4.03611 0
M  V30 19077 N 1722.16 5.20878 -2.56254 0
M  V30 19078 H 1724.92 1.14385 -2.77013 0
M  V30 19079 H 1722.48 0.480916 -1.54592 0
M  V30 19080 H 1724.48 3.54144 -1.95868 0
M  V30 19081 H 1723.05 2.92978 -1.09008 0
M  V30 19082 H 1722.27 2.00164 -3.396 0
M  V30 19083 H 1723.55 2.97531 -4.12738 0
M  V30 19084 H 1722.95 5.30584 -1.96207 0
M  V30 19085 H 1721.51 5.96945 -2.61725 0
M  V30 19086 N 1724.94 1.47523 0.554506 0
M  V30 19087 C 1726.17 1.58154 1.34172 0
M  V30 19088 C 1726.59 0.233124 1.8665 0
M  V30 19089 O 1725.95 -0.791439 1.63113 0
M  V30 19090 C 1726 2.61242 2.48566 0
M  V30 19091 O 1725.1 2.167 3.50877 0
M  V30 19092 H 1724.44 0.531184 0.398421 0
M  V30 19093 H 1726.97 1.93324 0.669841 0
M  V30 19094 H 1726.98 2.81746 2.95098 0
M  V30 19095 H 1725.66 3.59148 2.09727 0
M  V30 19096 H 1724.24 2.06305 3.10632 0
M  V30 19097 N 1726.42 -0.801453 1.357 0
M  V30 19098 C 1727.37 -1.90299 1.2558 0
M  V30 19099 C 1728.35 -1.602 0.149922 0
M  V30 19100 O 1729.55 -1.72837 0.381622 0
M  V30 19101 C 1726.68 -3.2732 1.0352 0
M  V30 19102 C 1725.76 -3.63468 2.18522 0
M  V30 19103 N 1726.15 -3.71014 3.43777 0
M  V30 19104 C 1724.45 -3.93455 2.10022 0
M  V30 19105 C 1725.15 -4.03052 4.19433 0
M  V30 19106 N 1724.13 -4.17405 3.48244 0
M  V30 19107 H 1727.93 -1.94341 2.20474 0
M  V30 19108 H 1725.44 -0.996323 1.28247 0
M  V30 19109 H 1727.44 -4.06081 0.943586 0
M  V30 19110 H 1726.1 -3.24561 0.095163 0
M  V30 19111 H 1727.11 -3.53961 3.78064 0
M  V30 19112 H 1723.79 -3.98691 1.23903 0
M  V30 19113 H 1725.18 -4.15914 5.27698 0
M  V30 19114 N 1727.9 -1.19782 -1.02421 0
M  V30 19115 C 1728.86 -0.941631 -2.08964 0
M  V30 19116 C 1729.86 0.0797747 -1.60602 0
M  V30 19117 O 1731.05 -0.155473 -1.73505 0
M  V30 19118 C 1728.18 -0.416114 -3.38351 0
M  V30 19119 H 1729.38 -1.88661 -2.33125 0
M  V30 19120 H 1726.93 -1.01212 -1.19104 0
M  V30 19121 H 1727.66 0.53469 -3.19862 0
M  V30 19122 H 1727.45 -1.15262 -3.74776 0
M  V30 19123 H 1728.94 -0.256114 -4.16814 0
M  V30 19124 N 1729.38 1.21606 -1.00248 0
M  V30 19125 C 1730.61 1.94326 -0.701484 0
M  V30 19126 C 1731.02 1.74148 0.739524 0
M  V30 19127 O 1730.36 1.04364 1.51175 0
M  V30 19128 C 1730.42 3.47005 -0.939568 0
M  V30 19129 C 1730.08 3.90929 -2.36692 0
M  V30 19130 C 1731.08 3.97834 -3.347 0
M  V30 19131 C 1728.77 4.23313 -2.70391 0
M  V30 19132 C 1730.76 4.36511 -4.64475 0
M  V30 19133 C 1728.45 4.61668 -4.00382 0
M  V30 19134 C 1729.45 4.68237 -4.97236 0
M  V30 19135 O 1729.13 5.05719 -6.24903 0
M  V30 19136 H 1728.87 0.624872 -0.257898 0
M  V30 19137 H 1731.42 1.55442 -1.34264 0
M  V30 19138 H 1729.65 3.85947 -0.24124 0
M  V30 19139 H 1731.34 4.00944 -0.632342 0
M  V30 19140 H 1732.1 3.72995 -3.1 0
M  V30 19141 H 1727.98 4.17399 -1.95701 0
M  V30 19142 H 1731.53 4.41553 -5.40071 0
M  V30 19143 H 1727.42 4.8596 -4.24868 0
M  V30 19144 H 1728.19 5.2376 -6.28981 0
M  V30 19145 N 1730.86 0.776895 1.37121 0
M  V30 19146 C 1731.79 0.124809 2.2886 0
M  V30 19147 C 1732.8 -0.658655 1.48881 0
M  V30 19148 O 1733.99 -0.4959 1.71473 0
M  V30 19149 C 1731.09 -0.84672 3.28152 0
M  V30 19150 C 1730.26 -0.11598 4.37246 0
M  V30 19151 C 1729.32 -1.00162 5.16579 0
M  V30 19152 O 1728.35 -0.463491 5.6731 0
M  V30 19153 N 1729.55 -2.32733 5.31804 0
M  V30 19154 H 1732.31 0.91278 2.85462 0
M  V30 19155 H 1729.88 0.629695 1.49152 0
M  V30 19156 H 1731.87 -1.44275 3.78109 0
M  V30 19157 H 1730.44 -1.53563 2.72281 0
M  V30 19158 H 1729.66 0.661015 3.88618 0
M  V30 19159 H 1730.95 0.388757 5.07313 0
M  V30 19160 H 1730.34 -2.78882 4.9218 0
M  V30 19161 H 1728.9 -2.8733 5.85051 0
M  V30 19162 N 1732.33 -1.48497 0.527859 0
M  V30 19163 C 1733.27 -2.27566 -0.273157 0
M  V30 19164 C 1734.28 -1.35235 -0.906381 0
M  V30 19165 O 1735.47 -1.60303 -0.785182 0
M  V30 19166 C 1732.57 -3.08546 -1.40187 0
M  V30 19167 C 1731.74 -4.28641 -0.870962 0
M  V30 19168 C 1730.8 -4.91449 -1.88054 0
M  V30 19169 O 1729.83 -5.50727 -1.43833 0
M  V30 19170 N 1731.03 -4.83501 -3.21259 0
M  V30 19171 H 1733.79 -2.96951 0.404963 0
M  V30 19172 H 1731.35 -1.578 0.362057 0
M  V30 19173 H 1733.35 -3.47434 -2.07537 0
M  V30 19174 H 1731.92 -2.41596 -1.98369 0
M  V30 19175 H 1731.14 -3.94194 -0.0215331 0
M  V30 19176 H 1732.42 -5.06385 -0.495105 0
M  V30 19177 H 1731.82 -4.36487 -3.59855 0
M  V30 19178 H 1730.38 -5.26495 -3.84248 0
M  V30 19179 N 1733.81 -0.262893 -1.55392 0
M  V30 19180 C 1735.06 0.357366 -1.99322 0
M  V30 19181 C 1735.39 1.56772 -1.15121 0
M  V30 19182 O 1734.64 1.94614 -0.205867 0
M  V30 19183 C 1734.94 0.795313 -3.48439 0
M  V30 19184 C 1734.61 -0.309047 -4.4984 0
M  V30 19185 C 1733.27 -0.612317 -4.77288 0
M  V30 19186 C 1735.62 -1.05382 -5.10435 0
M  V30 19187 C 1732.95 -1.66415 -5.62604 0
M  V30 19188 C 1735.3 -2.09528 -5.96892 0
M  V30 19189 C 1733.96 -2.40503 -6.22667 0
M  V30 19190 H 1733.23 0.13077 -0.72937 0
M  V30 19191 H 1735.88 -0.374057 -1.87811 0
M  V30 19192 H 1734.19 1.60621 -3.57363 0
M  V30 19193 H 1735.88 1.28577 -3.79828 0
M  V30 19194 H 1732.47 -0.0625469 -4.28554 0
M  V30 19195 H 1736.66 -0.832773 -4.89263 0
M  V30 19196 H 1731.91 -1.90929 -5.80824 0
M  V30 19197 H 1736.09 -2.67719 -6.42884 0
M  V30 19198 H 1733.71 -3.22143 -6.88569 0
M  V30 19199 N 1735.29 1.57597 0.0100073 0
M  V30 19200 C 1736.22 2.10825 1.00375 0
M  V30 19201 C 1737.2 1.01507 1.36493 0
M  V30 19202 O 1738.39 1.29136 1.45043 0
M  V30 19203 C 1735.52 2.60334 2.29878 0
M  V30 19204 C 1734.47 3.74087 2.07949 0
M  V30 19205 C 1733.8 4.09873 3.43378 0
M  V30 19206 C 1735.1 5.01764 1.45018 0
M  V30 19207 H 1736.79 2.94105 0.560591 0
M  V30 19208 H 1734.34 1.4148 0.268208 0
M  V30 19209 H 1736.29 2.96196 2.99743 0
M  V30 19210 H 1735.01 1.74162 2.76288 0
M  V30 19211 H 1733.67 3.38603 1.40512 0
M  V30 19212 H 1733.32 3.20739 3.87473 0
M  V30 19213 H 1733.02 4.86505 3.29525 0
M  V30 19214 H 1734.54 4.48285 4.14575 0
M  V30 19215 H 1735.96 5.35462 2.04826 0
M  V30 19216 H 1734.35 5.83135 1.41683 0
M  V30 19217 H 1735.42 4.83093 0.41819 0
M  V30 19218 N 1736.77 -0.282606 1.55045 0
M  V30 19219 C 1738.18 -0.629284 1.4667 0
M  V30 19220 C 1738.38 -1.89931 0.672932 0
M  V30 19221 O 1737.44 -2.518 0.187946 0
M  V30 19222 C 1738.75 -0.765174 2.90802 0
M  V30 19223 C 1740.3 -0.859859 3.00958 0
M  V30 19224 C 1740.78 -1.0276 4.46323 0
M  V30 19225 N 1742.27 -1.09336 4.50111 0
M  V30 19226 C 1743 -1.24178 5.59792 0
M  V30 19227 N 1742.5 -1.358 6.7936 0
M  V30 19228 N 1744.29 -1.27212 5.47516 0
M  V30 19229 H 1736.44 0.551592 2.05113 0
M  V30 19230 H 1738.7 0.185277 0.929718 0
M  V30 19231 H 1738.41 0.0974312 3.51565 0
M  V30 19232 H 1738.28 -1.64848 3.39271 0
M  V30 19233 H 1740.67 -1.71294 2.40297 0
M  V30 19234 H 1740.75 0.0478484 2.55755 0
M  V30 19235 H 1740.4 -0.179219 5.07584 0
M  V30 19236 H 1740.33 -1.94981 4.89173 0
M  V30 19237 H 1742.82 -1.01633 3.63977 0
M  V30 19238 H 1743.13 -1.46932 7.58703 0
M  V30 19239 H 1741.48 -1.32822 6.8219 0
M  V30 19240 H 1744.67 -1.17756 4.53046 0
M  V30 19241 H 1744.84 -1.38435 6.3304 0
M  V30 19242 N 1738.25 -1.47815 -0.546675 0
M  V30 19243 C 1739.52 -1.45464 -1.30765 0
M  V30 19244 C 1739.9 -0.157249 -2.10514 0
M  V30 19245 O 1739.25 0.861203 -2.1165 0
M  V30 19246 C 1739.46 -2.70661 -2.20326 0
M  V30 19247 C 1740.81 -3.18309 -2.81007 0
M  V30 19248 O 1741.83 -2.71462 -2.30623 0
M  V30 19249 O 1740.69 -3.9978 -3.7261 0
M  V30 19250 H 1737.79 -0.580175 -0.589343 0
M  V30 19251 H 1740.33 -1.60029 -0.564707 0
M  V30 19252 H 1739.1 -3.56612 -1.61069 0
M  V30 19253 H 1738.73 -2.58734 -3.01898 0
M  V30 19254 N 1739.72 0.794246 -1.36123 0
M  V30 19255 C 1740.95 1.58297 -1.33228 0
M  V30 19256 C 1741.37 1.88597 0.0875426 0
M  V30 19257 O 1740.72 1.49754 1.04307 0
M  V30 19258 C 1740.77 2.90687 -2.14904 0
M  V30 19259 O 1740.5 2.61695 -3.51351 0
M  V30 19260 C 1742 3.85009 -2.19734 0
M  V30 19261 H 1739.22 0.491139 -0.457191 0
M  V30 19262 H 1741.76 0.986129 -1.79153 0
M  V30 19263 H 1739.92 3.46852 -1.72546 0
M  V30 19264 H 1740.33 3.46313 -3.93913 0
M  V30 19265 H 1741.8 4.74976 -2.8125 0
M  V30 19266 H 1742.28 4.22504 -1.19946 0
M  V30 19267 H 1742.89 3.34777 -2.62307 0
M  V30 19268 N 1741.2 1.20323 1.01785 0
M  V30 19269 C 1742.15 0.950946 2.10299 0
M  V30 19270 C 1743.12 -0.118376 1.65678 0
M  V30 19271 O 1744.3 0.0260849 1.90782 0
M  V30 19272 C 1741.44 0.507765 3.41344 0
M  V30 19273 C 1740.56 1.6451 3.9945 0
M  V30 19274 C 1739.69 1.15235 5.1855 0
M  V30 19275 C 1738.73 2.26285 5.68737 0
M  V30 19276 N 1737.87 1.78237 6.79099 0
M  V30 19277 H 1742.71 1.87999 2.31215 0
M  V30 19278 H 1740.24 0.937108 1.13387 0
M  V30 19279 H 1742.2 0.232143 4.16554 0
M  V30 19280 H 1740.83 -0.384278 3.20505 0
M  V30 19281 H 1739.88 2.03567 3.21348 0
M  V30 19282 H 1741.2 2.48135 4.32702 0
M  V30 19283 H 1740.35 0.832619 6.0096 0
M  V30 19284 H 1739.09 0.285978 4.86861 0
M  V30 19285 H 1738.09 2.59076 4.84933 0
M  V30 19286 H 1739.32 3.13397 6.02461 0
M  V30 19287 H 1737.27 0.939248 6.49241 0
M  V30 19288 H 1737.18 2.55443 7.11537 0
M  V30 19289 H 1738.45 1.4926 7.65076 0
M  V30 19290 N 1742.68 -1.21073 1.00892 0
M  V30 19291 C 1743.61 -2.22968 0.530841 0
M  V30 19292 C 1744.62 -1.58239 -0.382664 0
M  V30 19293 O 1745.81 -1.77567 -0.182237 0
M  V30 19294 C 1742.91 -3.37991 -0.248096 0
M  V30 19295 C 1742.09 -4.32309 0.665439 0
M  V30 19296 C 1741.15 -5.2616 -0.0645731 0
M  V30 19297 O 1740.17 -5.66484 0.555383 0
M  V30 19298 N 1741.37 -5.64777 -1.3419 0
M  V30 19299 H 1744.14 -2.64614 1.4071 0
M  V30 19300 H 1741.7 -1.35536 0.885528 0
M  V30 19301 H 1743.69 -3.97774 -0.745513 0
M  V30 19302 H 1742.26 -2.95297 -1.02558 0
M  V30 19303 H 1741.48 -3.70607 1.34329 0
M  V30 19304 H 1742.77 -4.92254 1.28701 0
M  V30 19305 H 1742.17 -5.34016 -1.86664 0
M  V30 19306 H 1740.72 -6.26905 -1.78419 0
M  V30 19307 N 1744.16 -0.784156 -1.36707 0
M  V30 19308 C 1745.12 -0.184957 -2.28453 0
M  V30 19309 C 1746.12 0.614637 -1.4859 0
M  V30 19310 O 1747.31 0.436403 -1.68645 0
M  V30 19311 C 1744.44 0.744662 -3.32667 0
M  V30 19312 H 1745.64 -0.993861 -2.82953 0
M  V30 19313 H 1743.19 -0.553214 -1.46182 0
M  V30 19314 H 1743.92 1.57811 -2.83313 0
M  V30 19315 H 1743.71 0.173313 -3.91717 0
M  V30 19316 H 1745.2 1.15894 -4.01196 0
M  V30 19317 N 1745.64 1.48215 -0.535727 0
M  V30 19318 C 1746.55 2.33494 0.227577 0
M  V30 19319 C 1747.56 1.4685 0.933327 0
M  V30 19320 O 1748.74 1.7982 0.907008 0
M  V30 19321 C 1745.8 3.23092 1.25747 0
M  V30 19322 C 1744.86 4.25613 0.561454 0
M  V30 19323 C 1744.1 5.1093 1.54228 0
M  V30 19324 O 1744.32 4.98325 2.77539 0
M  V30 19325 O 1743.25 5.92158 1.07852 0
M  V30 19326 H 1747.08 3.0002 -0.471375 0
M  V30 19327 H 1744.67 1.46427 -0.296579 0
M  V30 19328 H 1746.55 3.78498 1.8525 0
M  V30 19329 H 1745.22 2.5922 1.93872 0
M  V30 19330 H 1744.13 3.74026 -0.0742194 0
M  V30 19331 H 1745.46 4.92138 -0.0779649 0
M  V30 19332 N 1747.11 0.27113 1.5525 0
M  V30 19333 C 1748.08 -0.604946 2.21072 0
M  V30 19334 C 1749.08 -1.08438 1.18735 0
M  V30 19335 O 1750.27 -0.985192 1.43665 0
M  V30 19336 C 1747.4 -1.83416 2.87353 0
M  V30 19337 H 1748.59 -0.0302981 2.99885 0
M  V30 19338 H 1746.15 0.0217204 1.56285 0
M  V30 19339 H 1746.88 -2.44942 2.12542 0
M  V30 19340 H 1746.67 -1.49834 3.62343 0
M  V30 19341 H 1748.16 -2.45724 3.37653 0
M  V30 19342 N 1748.59 -1.576 -0.00164943 0
M  V30 19343 C 1749.84 -1.90496 -0.686842 0
M  V30 19344 C 1750.17 -0.871747 -1.7387 0
M  V30 19345 O 1749.42 0.123698 -1.95309 0
M  V30 19346 C 1749.72 -3.30147 -1.36886 0
M  V30 19347 C 1749.39 -4.48645 -0.450358 0
M  V30 19348 C 1748.05 -4.80795 -0.197461 0
M  V30 19349 C 1750.4 -5.20882 0.18214 0
M  V30 19350 C 1747.73 -5.82554 0.696255 0
M  V30 19351 C 1750.08 -6.23593 1.06372 0
M  V30 19352 C 1748.75 -6.54201 1.32581 0
M  V30 19353 H 1748.02 -0.697074 -0.251333 0
M  V30 19354 H 1750.66 -1.91425 0.0535238 0
M  V30 19355 H 1748.97 -3.25334 -2.18323 0
M  V30 19356 H 1750.66 -3.52859 -1.90504 0
M  V30 19357 H 1747.25 -4.23525 -0.657635 0
M  V30 19358 H 1751.44 -4.963 -0.000231234 0
M  V30 19359 H 1746.69 -6.0463 0.907337 0
M  V30 19360 H 1750.87 -6.78698 1.56018 0
M  V30 19361 H 1748.5 -7.3287 2.02002 0
M  V30 19362 N 1750.07 0.274379 -1.55193 0
M  V30 19363 C 1751 1.34336 -1.90987 0
M  V30 19364 C 1751.98 1.51594 -0.771582 0
M  V30 19365 O 1753.17 1.6466 -1.0296 0
M  V30 19366 C 1750.3 2.70312 -2.18057 0
M  V30 19367 C 1749.25 2.67787 -3.33878 0
M  V30 19368 C 1748.58 4.07301 -3.46425 0
M  V30 19369 C 1749.88 2.27178 -4.70306 0
M  V30 19370 H 1751.57 1.04627 -2.80524 0
M  V30 19371 H 1749.12 0.501867 -1.34971 0
M  V30 19372 H 1751.07 3.45205 -2.41685 0
M  V30 19373 H 1749.79 3.01601 -1.25318 0
M  V30 19374 H 1748.45 1.95351 -3.10216 0
M  V30 19375 H 1748.1 4.3581 -2.51155 0
M  V30 19376 H 1747.8 4.06507 -4.24295 0
M  V30 19377 H 1749.32 4.83935 -3.72343 0
M  V30 19378 H 1750.74 2.91794 -4.93487 0
M  V30 19379 H 1749.14 2.37548 -5.51082 0
M  V30 19380 H 1750.21 1.22309 -4.69221 0
M  V30 19381 N 1751.55 1.48103 0.538828 0
M  V30 19382 C 1752.5 1.62398 1.66522 0
M  V30 19383 C 1753.49 0.490669 1.62138 0
M  V30 19384 O 1754.7 0.669098 1.67102 0
M  V30 19385 H 1751.07 0.511415 0.551324 0
M  V30 19386 H 1753.04 2.57018 1.51606 0
M  V30 19387 C 1751.79 1.67264 3.04824 0
M  V30 19388 H 1751.11 2.53828 3.08887 0
M  V30 19389 H 1752.55 1.81312 3.83278 0
M  V30 19390 C 1751.01 0.409539 3.34402 0
M  V30 19391 O 1751.54 -0.481433 3.98805 0
M  V30 19392 N 1749.75 0.283934 2.8921 0
M  V30 19393 H 1749.3 1.00993 2.36977 0
M  V30 19394 H 1749.25 -0.560201 3.09369 0
M  V30 19395 N 1753.03 -0.787016 1.36542 0
M  V30 19396 C 1753.97 -1.92115 1.31128 0
M  V30 19397 C 1754.97 -1.68183 0.202656 0
M  V30 19398 O 1756.17 -1.7616 0.369802 0
M  V30 19399 H 1752.55 -0.631514 0.408281 0
M  V30 19400 H 1754.52 -1.938 2.26901 0
M  V30 19401 C 1753.27 -3.29173 1.11985 0
M  V30 19402 H 1752.59 -3.48156 1.96539 0
M  V30 19403 H 1754.03 -4.08873 1.12243 0
M  V30 19404 C 1752.49 -3.36443 -0.175383 0
M  V30 19405 O 1753.02 -3.84455 -1.16437 0
M  V30 19406 N 1751.23 -2.89759 -0.220879 0
M  V30 19407 H 1750.77 -2.5088 0.584558 0
M  V30 19408 H 1750.73 -2.95005 -1.08717 0
M  V30 19409 N 1754.5 -1.20861 -1.01145 0
M  V30 19410 C 1755.44 -0.919862 -2.09931 0
M  V30 19411 C 1756.45 0.0944116 -1.62526 0
M  V30 19412 O 1757.64 -0.137265 -1.77971 0
M  V30 19413 C 1754.74 -0.358478 -3.36999 0
M  V30 19414 C 1753.91 -1.42553 -4.13518 0
M  V30 19415 C 1752.97 -0.874546 -5.18882 0
M  V30 19416 O 1752 -1.55646 -5.47506 0
M  V30 19417 N 1753.2 0.313462 -5.79653 0
M  V30 19418 H 1755.96 -1.85633 -2.35288 0
M  V30 19419 H 1753.52 -1.11299 -1.17577 0
M  V30 19420 H 1755.52 0.0243829 -4.04693 0
M  V30 19421 H 1754.09 0.482669 -3.08851 0
M  V30 19422 H 1753.31 -1.98251 -3.4072 0
M  V30 19423 H 1754.59 -2.14402 -4.61421 0
M  V30 19424 H 1753.99 0.884644 -5.5874 0
M  V30 19425 H 1752.55 0.637904 -6.48671 0
M  V30 19426 N 1755.98 1.20536 -1.01532 0
M  V30 19427 C 1756.89 2.26953 -0.594109 0
M  V30 19428 C 1757.91 1.70069 0.367771 0
M  V30 19429 O 1759.08 2.00093 0.229036 0
M  V30 19430 C 1756.15 3.46644 0.0622939 0
M  V30 19431 C 1755.21 4.18762 -0.945368 0
M  V30 19432 C 1754.44 5.32739 -0.320195 0
M  V30 19433 O 1754.67 5.63565 0.880407 0
M  V30 19434 O 1753.6 5.92912 -1.03629 0
M  V30 19435 H 1757.43 2.65196 -1.48003 0
M  V30 19436 H 1755.01 1.2713 -0.784752 0
M  V30 19437 H 1756.89 4.19211 0.428952 0
M  V30 19438 H 1755.57 3.10279 0.922428 0
M  V30 19439 H 1754.48 3.48372 -1.36337 0
M  V30 19440 H 1755.81 4.59064 -1.77543 0
M  V30 19441 N 1757.46 0.791395 1.36289 0
M  V30 19442 C 1758.69 0.376149 2.03147 0
M  V30 19443 C 1759.1 -1.01287 1.59805 0
M  V30 19444 O 1758.44 -1.66134 0.78392 0
M  V30 19445 C 1758.5 0.362792 3.57665 0
M  V30 19446 C 1758.17 1.69972 4.24215 0
M  V30 19447 C 1759.16 2.65553 4.46965 0
M  V30 19448 C 1756.85 1.97956 4.61648 0
M  V30 19449 C 1758.84 3.87311 5.0623 0
M  V30 19450 C 1756.53 3.19981 5.2063 0
M  V30 19451 C 1757.53 4.14477 5.42861 0
M  V30 19452 O 1757.22 5.3435 6.00604 0
M  V30 19453 H 1756.95 0.152854 0.658492 0
M  V30 19454 H 1759.5 1.072 1.75206 0
M  V30 19455 H 1757.73 -0.389566 3.84733 0
M  V30 19456 H 1759.42 -0.0280568 4.0589 0
M  V30 19457 H 1760.19 2.4522 4.1844 0
M  V30 19458 H 1756.07 1.25222 4.43667 0
M  V30 19459 H 1759.61 4.61081 5.23498 0
M  V30 19460 H 1755.51 3.4019 5.48581 0
M  V30 19461 H 1756.28 5.3544 6.19069 0
M  V30 19462 N 1758.94 -1.47929 0.54358 0
M  V30 19463 C 1760.19 -2.02795 0.014488 0
M  V30 19464 C 1760.52 -1.41848 -1.32638 0
M  V30 19465 O 1759.79 -0.569099 -1.85988 0
M  V30 19466 C 1760.08 -3.5998 -0.093097 0
M  V30 19467 C 1759.93 -4.31384 1.2739 0
M  V30 19468 C 1761.25 -4.32521 -0.813251 0
M  V30 19469 H 1758.37 -0.736969 0.00673905 0
M  V30 19470 H 1761.01 -1.76507 0.703238 0
M  V30 19471 H 1759.16 -3.82508 -0.679685 0
M  V30 19472 H 1760.83 -4.20235 1.90264 0
M  V30 19473 H 1759.07 -3.9227 1.85221 0
M  V30 19474 H 1759.75 -5.39856 1.15148 0
M  V30 19475 H 1762.22 -4.14903 -0.315334 0
M  V30 19476 H 1761.1 -5.42161 -0.857456 0
M  V30 19477 H 1761.36 -4.00768 -1.86649 0
M  V30 19478 N 1760.42 -0.27936 -1.55104 0
M  V30 19479 C 1761.35 0.599831 -2.25664 0
M  V30 19480 C 1762.33 1.15548 -1.24831 0
M  V30 19481 O 1763.51 1.18883 -1.53559 0
M  V30 19482 C 1760.64 1.78202 -2.98096 0
M  V30 19483 C 1759.6 1.35771 -4.05894 0
M  V30 19484 C 1758.92 2.62334 -4.65924 0
M  V30 19485 C 1760.22 0.504795 -5.19855 0
M  V30 19486 H 1761.92 0.0113761 -2.99398 0
M  V30 19487 H 1759.46 0.00403149 -1.43999 0
M  V30 19488 H 1761.42 2.403 -3.4617 0
M  V30 19489 H 1760.14 2.39637 -2.21905 0
M  V30 19490 H 1758.8 0.75991 -3.58638 0
M  V30 19491 H 1758.45 3.22036 -3.86396 0
M  V30 19492 H 1758.15 2.34654 -5.38713 0
M  V30 19493 H 1759.67 3.25273 -5.16749 0
M  V30 19494 H 1761.09 1.03089 -5.63955 0
M  V30 19495 H 1759.48 0.322696 -5.99232 0
M  V30 19496 H 1760.55 -0.475409 -4.82564 0
M  V30 19497 N 1761.9 1.57599 -0.0067085 0
M  V30 19498 C 1762.86 2.07783 0.967417 0
M  V30 19499 C 1763.86 0.988498 1.26828 0
M  V30 19500 O 1765.05 1.25091 1.21235 0
M  V30 19501 C 1762.18 2.52491 2.29044 0
M  V30 19502 H 1763.37 2.95122 0.533201 0
M  V30 19503 H 1760.93 1.54432 0.2409 0
M  V30 19504 H 1761.66 1.68415 2.77141 0
M  V30 19505 H 1761.45 3.32054 2.08525 0
M  V30 19506 H 1762.94 2.9162 2.98911 0
M  V30 19507 N 1763.37 -0.266145 1.55336 0
M  V30 19508 C 1764.32 -1.33159 1.85075 0
M  V30 19509 C 1765.31 -1.44381 0.710142 0
M  V30 19510 O 1766.5 -1.47946 0.971644 0
M  V30 19511 C 1763.63 -2.69063 2.13214 0
M  V30 19512 C 1762.71 -2.61924 3.33552 0
M  V30 19513 N 1763.11 -2.24407 4.53294 0
M  V30 19514 C 1761.4 -2.92973 3.36278 0
M  V30 19515 C 1762.1 -2.27428 5.35398 0
M  V30 19516 N 1761.08 -2.66173 4.73976 0
M  V30 19517 H 1764.88 -1.03172 2.75196 0
M  V30 19518 H 1762.4 -0.474782 1.55305 0
M  V30 19519 H 1764.39 -3.45929 2.32677 0
M  V30 19520 H 1763.05 -2.99933 1.2438 0
M  V30 19521 H 1764.06 -1.9627 4.79269 0
M  V30 19522 H 1760.74 -3.2851 2.57658 0
M  V30 19523 H 1762.13 -2.00925 6.41154 0
M  V30 19524 N 1764.85 -1.48386 -0.530967 0
M  V30 19525 C 1766.08 -1.60014 -1.31161 0
M  V30 19526 C 1766.49 -0.260028 -1.87001 0
M  V30 19527 O 1765.85 0.750547 -1.66352 0
M  V30 19528 C 1765.9 -2.64597 -2.46315 0
M  V30 19529 O 1765.62 -3.93407 -1.92777 0
M  V30 19530 C 1767.12 -2.86654 -3.38149 0
M  V30 19531 H 1764.34 -0.539553 -0.398902 0
M  V30 19532 H 1766.89 -1.94207 -0.64063 0
M  V30 19533 H 1765.04 -2.33265 -3.093 0
M  V30 19534 H 1765.46 -4.50774 -2.68147 0
M  V30 19535 H 1766.93 -3.63634 -4.153 0
M  V30 19536 H 1767.41 -1.95441 -3.93319 0
M  V30 19537 H 1768.01 -3.19285 -2.80957 0
M  V30 19538 N 1766.33 0.779763 -1.36958 0
M  V30 19539 C 1767.24 1.92394 -1.34245 0
M  V30 19540 C 1768.26 1.72292 -0.243187 0
M  V30 19541 O 1769.43 1.95665 -0.477211 0
M  V30 19542 C 1766.5 3.27402 -1.14057 0
M  V30 19543 C 1765.56 3.60213 -2.33548 0
M  V30 19544 C 1764.79 4.88779 -2.14314 0
M  V30 19545 O 1765.01 5.59231 -1.12327 0
M  V30 19546 O 1763.95 5.20469 -3.02316 0
M  V30 19547 H 1767.77 1.97633 -2.30596 0
M  V30 19548 H 1765.36 0.921386 -1.17605 0
M  V30 19549 H 1767.24 4.08172 -1.04755 0
M  V30 19550 H 1765.92 3.23033 -0.207744 0
M  V30 19551 H 1764.82 2.7971 -2.48421 0
M  V30 19552 H 1766.16 3.69317 -3.25371 0
M  V30 19553 N 1767.81 1.21396 1.00503 0
M  V30 19554 C 1768.74 0.916483 2.08988 0
M  V30 19555 C 1769.72 -0.135972 1.6203 0
M  V30 19556 O 1770.9 -0.00701537 1.88499 0
M  V30 19557 C 1768.03 0.376122 3.36605 0
M  V30 19558 C 1767.08 1.41137 4.0247 0
M  V30 19559 S 1767.91 2.98055 4.44886 0
M  V30 19560 C 1769.06 2.45626 5.7569 0
M  V30 19561 H 1769.3 1.83517 2.33899 0
M  V30 19562 H 1766.83 1.0437 1.13782 0
M  V30 19563 H 1768.79 0.0709239 4.10439 0
M  V30 19564 H 1767.45 -0.52125 3.09745 0
M  V30 19565 H 1766.64 0.982903 4.94323 0
M  V30 19566 H 1766.24 1.66465 3.34911 0
M  V30 19567 H 1768.54 1.8611 6.51436 0
M  V30 19568 H 1769.48 3.3592 6.23348 0
M  V30 19569 H 1769.89 1.87337 5.32508 0
M  V30 19570 N 1769.29 -1.19996 1.0217 0
M  V30 19571 C 1770.7 -1.71202 0.744777 0
M  V30 19572 C 1771.05 -1.81862 -0.736238 0
M  V30 19573 O 1770.17 -1.48475 -1.5743 0
M  V30 19574 C 1770.77 -3.10945 1.34531 0
M  V30 19575 C 1769.33 -3.5944 1.11714 0
M  V30 19576 C 1768.47 -2.36501 1.44784 0
M  V30 19577 H 1771.42 -1.04938 1.19054 0
M  V30 19578 H 1771.45 -3.73264 0.738531 0
M  V30 19579 H 1770.96 -3.03154 2.42321 0
M  V30 19580 H 1769.06 -3.72556 0.0571346 0
M  V30 19581 H 1769.17 -4.43969 1.80079 0
M  V30 19582 H 1767.54 -2.3949 0.866981 0
M  V30 19583 H 1768.32 -2.31347 2.53641 0
M  V30 19584 N 1770.76 -0.798611 -1.35867 0
M  V30 19585 C 1771.99 -0.387479 -2.03239 0
M  V30 19586 C 1772.41 0.999052 -1.60201 0
M  V30 19587 O 1771.76 1.64237 -0.795763 0
M  V30 19588 C 1771.81 -0.452101 -3.58662 0
M  V30 19589 O 1771.54 -1.78396 -4.00133 0
M  V30 19590 C 1773.04 -0.0327638 -4.43288 0
M  V30 19591 H 1770.26 -0.15845 -0.652024 0
M  V30 19592 H 1772.8 -1.08002 -1.73655 0
M  V30 19593 H 1770.96 0.192107 -3.86923 0
M  V30 19594 H 1771.37 -1.74118 -4.94756 0
M  V30 19595 H 1772.84 -0.129106 -5.51849 0
M  V30 19596 H 1773.32 1.02098 -4.27168 0
M  V30 19597 H 1773.93 -0.649817 -4.20306 0
M  V30 19598 N 1772.24 1.47639 -0.551417 0
M  V30 19599 C 1773.47 2.06878 -0.0298904 0
M  V30 19600 C 1773.88 1.40493 1.26123 0
M  V30 19601 O 1773.24 0.499513 1.75531 0
M  V30 19602 C 1773.29 3.61074 0.175449 0
M  V30 19603 O 1773.01 4.2497 -1.06454 0
M  V30 19604 C 1774.51 4.37166 0.734919 0
M  V30 19605 H 1771.73 0.669607 -0.0432142 0
M  V30 19606 H 1774.28 1.89726 -0.763178 0
M  V30 19607 H 1772.43 3.7776 0.858848 0
M  V30 19608 H 1772.85 5.17424 -0.858644 0
M  V30 19609 H 1774.32 5.45756 0.827915 0
M  V30 19610 H 1774.8 4.03052 1.74486 0
M  V30 19611 H 1775.4 4.2521 0.0874045 0
M  V30 19612 N 1773.72 0.287581 1.54954 0
M  V30 19613 C 1774.65 -0.587855 2.25979 0
M  V30 19614 C 1775.63 -1.14884 1.25442 0
M  V30 19615 O 1776.82 -1.18067 1.54188 0
M  V30 19616 C 1773.95 -1.76618 2.99037 0
M  V30 19617 C 1772.9 -1.33617 4.06609 0
M  V30 19618 C 1772.23 -2.59859 4.67309 0
M  V30 19619 C 1773.53 -0.477219 5.20115 0
M  V30 19620 H 1775.22 0.00450183 2.994 0
M  V30 19621 H 1772.77 0.00360521 1.44 0
M  V30 19622 H 1774.72 -2.38461 3.4744 0
M  V30 19623 H 1773.44 -2.38457 2.23172 0
M  V30 19624 H 1772.1 -0.74088 3.59036 0
M  V30 19625 H 1771.75 -3.19983 3.88098 0
M  V30 19626 H 1771.45 -2.31793 5.3995 0
M  V30 19627 H 1772.97 -3.22528 5.18467 0
M  V30 19628 H 1774.39 -1.00096 5.64494 0
M  V30 19629 H 1772.79 -0.290913 5.99394 0
M  V30 19630 H 1773.86 0.500993 4.82305 0
M  V30 19631 N 1775.2 -1.57593 0.0150662 0
M  V30 19632 C 1776.11 -2.12807 -0.987437 0
M  V30 19633 C 1777.12 -1.07691 -1.3667 0
M  V30 19634 O 1778.3 -1.39674 -1.45097 0
M  V30 19635 C 1775.37 -2.63276 -2.2558 0
M  V30 19636 C 1774.43 -3.83053 -1.93827 0
M  V30 19637 C 1773.66 -4.31106 -3.14616 0
M  V30 19638 O 1773.88 -3.78405 -4.26809 0
M  V30 19639 O 1772.82 -5.23104 -2.97734 0
M  V30 19640 H 1776.64 -2.98715 -0.548015 0
M  V30 19641 H 1774.23 -1.47991 -0.20469 0
M  V30 19642 H 1776.11 -2.95869 -3.00066 0
M  V30 19643 H 1774.78 -1.80459 -2.68731 0
M  V30 19644 H 1773.69 -3.55409 -1.1677 0
M  V30 19645 H 1775.02 -4.6699 -1.55502 0
M  V30 19646 N 1776.68 0.257904 -1.55475 0
M  V30 19647 C 1777.92 0.985519 -1.76442 0
M  V30 19648 C 1778.25 1.86267 -0.577033 0
M  V30 19649 O 1777.52 1.91613 0.407582 0
M  V30 19650 H 1776.1 0.366872 -0.650702 0
M  V30 19651 H 1778.76 0.278498 -1.929 0
M  V30 19652 H 1777.85 1.61367 -2.67146 0
M  V30 19653 N 1778.15 1.48666 0.52309 0
M  V30 19654 C 1779.12 1.63211 1.60919 0
M  V30 19655 C 1780.12 0.505012 1.52664 0
M  V30 19656 O 1781.31 0.770967 1.56211 0
M  V30 19657 C 1778.44 1.60878 3.00551 0
M  V30 19658 H 1779.63 2.60061 1.4936 0
M  V30 19659 H 1777.19 1.37366 0.745674 0
M  V30 19660 H 1777.92 0.655306 3.1761 0
M  V30 19661 H 1777.71 2.4271 3.07952 0
M  V30 19662 H 1779.2 1.74263 3.79502 0
M  V30 19663 N 1779.63 -0.772489 1.37369 0
M  V30 19664 C 1780.54 -1.91679 1.35263 0
M  V30 19665 C 1781.56 -1.72161 0.252321 0
M  V30 19666 O 1782.73 -1.95409 0.487581 0
M  V30 19667 C 1779.8 -3.26792 1.15792 0
M  V30 19668 C 1778.86 -3.5897 2.35455 0
M  V30 19669 C 1778.09 -4.87636 2.16903 0
M  V30 19670 O 1778.32 -5.58627 1.15291 0
M  V30 19671 O 1777.25 -5.18859 3.05072 0
M  V30 19672 H 1781.08 -1.96408 2.31641 0
M  V30 19673 H 1778.66 -0.915136 1.18092 0
M  V30 19674 H 1780.54 -4.07611 1.06918 0
M  V30 19675 H 1779.22 -3.22918 0.224872 0
M  V30 19676 H 1778.13 -2.78389 2.49901 0
M  V30 19677 H 1779.46 -3.67586 3.27325 0
M  V30 19678 N 1781.11 -1.21927 -0.998575 0
M  V30 19679 C 1782.07 -0.985744 -2.0692 0
M  V30 19680 C 1783.07 0.0456907 -1.60735 0
M  V30 19681 O 1784.26 -0.192241 -1.73136 0
M  V30 19682 C 1781.4 -0.48779 -3.37392 0
M  V30 19683 H 1782.59 -1.93563 -2.2907 0
M  V30 19684 H 1780.14 -1.03716 -1.1693 0
M  V30 19685 H 1780.88 0.466723 -3.20924 0
M  V30 19686 H 1780.66 -1.23186 -3.72247 0
M  V30 19687 H 1782.15 -0.344469 -4.16177 0
M  V30 19688 N 1782.59 1.19452 -1.02805 0
M  V30 19689 C 1783.55 2.20857 -0.612757 0
M  V30 19690 C 1784.55 1.57519 0.323182 0
M  V30 19691 O 1785.74 1.7385 0.110303 0
M  V30 19692 C 1782.87 3.40743 0.103488 0
M  V30 19693 H 1784.07 2.59113 -1.50998 0
M  V30 19694 H 1781.62 1.33116 -0.819142 0
M  V30 19695 H 1782.35 3.08004 1.0151 0
M  V30 19696 H 1782.14 3.87949 -0.56903 0
M  V30 19697 H 1783.63 4.15858 0.380998 0
M  V30 19698 N 1784.07 0.805805 1.35442 0
M  V30 19699 C 1785.32 0.382303 1.98044 0
M  V30 19700 C 1785.63 -1.05602 1.64644 0
M  V30 19701 O 1786.83 -1.5826 2.20604 0
M  V30 19702 C 1785.29 0.632619 3.54296 0
M  V30 19703 C 1784.9 2.08344 3.96607 0
M  V30 19704 C 1786.64 0.274435 4.23612 0
M  V30 19705 C 1784.55 2.27954 5.45702 0
M  V30 19706 H 1783.48 0.13921 0.741037 0
M  V30 19707 H 1786.13 0.989752 1.54519 0
M  V30 19708 H 1784.51 -0.0447699 3.95975 0
M  V30 19709 H 1785.69 2.79857 3.66083 0
M  V30 19710 H 1784 2.40142 3.40178 0
M  V30 19711 H 1786.6 0.399019 5.33209 0
M  V30 19712 H 1786.94 -0.779292 4.08941 0
M  V30 19713 H 1787.47 0.90571 3.87352 0
M  V30 19714 H 1784.21 3.3177 5.6534 0
M  V30 19715 H 1783.73 1.60965 5.77798 0
M  V30 19716 H 1785.41 2.09469 6.12153 0
M  V30 19717 N 1785.54 -1.47344 0.559239 0
M  V30 19718 C 1786.49 -2.30039 -0.187317 0
M  V30 19719 C 1787.46 -1.39186 -0.906443 0
M  V30 19720 O 1788.65 -1.68147 -0.901739 0
M  V30 19721 C 1785.79 -3.2319 -1.21004 0
M  V30 19722 C 1784.9 -4.29134 -0.496776 0
M  V30 19723 C 1784.03 -5.09435 -1.50497 0
M  V30 19724 C 1783.07 -6.07151 -0.776794 0
M  V30 19725 N 1782.21 -6.80404 -1.73192 0
M  V30 19726 H 1787.05 -2.93357 0.523978 0
M  V30 19727 H 1784.59 -1.44597 0.270225 0
M  V30 19728 H 1786.55 -3.75621 -1.81561 0
M  V30 19729 H 1785.18 -2.61732 -1.88935 0
M  V30 19730 H 1784.23 -3.79744 0.223359 0
M  V30 19731 H 1785.54 -4.98746 0.0735731 0
M  V30 19732 H 1784.69 -5.66026 -2.18402 0
M  V30 19733 H 1783.43 -4.3973 -2.10924 0
M  V30 19734 H 1782.44 -5.49736 -0.0838382 0
M  V30 19735 H 1783.66 -6.78866 -0.178239 0
M  V30 19736 H 1781.61 -6.13427 -2.32472 0
M  V30 19737 H 1781.53 -7.46193 -1.21377 0
M  V30 19738 H 1782.79 -7.41567 -2.40204 0
M  V30 19739 N 1787.02 -0.295795 -1.54799 0
M  V30 19740 C 1787.97 0.582614 -2.23325 0
M  V30 19741 C 1788.94 1.13365 -1.21398 0
M  V30 19742 O 1790.12 1.17914 -1.50003 0
M  V30 19743 C 1787.26 1.75112 -2.97371 0
M  V30 19744 C 1786.38 1.23197 -4.14061 0
M  V30 19745 C 1785.51 2.36393 -4.75701 0
M  V30 19746 C 1784.55 1.81585 -5.84545 0
M  V30 19747 N 1783.69 2.88334 -6.40162 0
M  V30 19748 H 1788.53 -0.00836451 -2.97999 0
M  V30 19749 H 1786.07 -0.0158966 -1.47091 0
M  V30 19750 H 1788.02 2.4383 -3.38531 0
M  V30 19751 H 1786.65 2.31381 -2.25084 0
M  V30 19752 H 1785.71 0.437226 -3.77879 0
M  V30 19753 H 1787.02 0.790706 -4.92493 0
M  V30 19754 H 1786.17 3.13067 -5.19687 0
M  V30 19755 H 1784.91 2.83844 -3.9659 0
M  V30 19756 H 1783.92 1.03399 -5.3999 0
M  V30 19757 H 1785.14 1.35045 -6.65537 0
M  V30 19758 H 1783.09 3.35129 -5.63937 0
M  V30 19759 H 1783 2.48687 -7.13926 0
M  V30 19760 H 1784.27 3.64921 -6.88805 0
M  V30 19761 N 1788.5 1.57583 -0.0234236 0
M  V30 19762 C 1789.43 2.06766 0.988961 0
M  V30 19763 C 1790.45 0.98998 1.29241 0
M  V30 19764 O 1791.64 1.2663 1.25806 0
M  V30 19765 C 1788.74 2.47244 2.31784 0
M  V30 19766 C 1787.91 3.78023 2.20039 0
M  V30 19767 C 1786.97 4.05113 3.35812 0
M  V30 19768 O 1785.99 4.75447 3.12952 0
M  V30 19769 N 1787.2 3.5484 4.59422 0
M  V30 19770 H 1789.96 2.94242 0.569355 0
M  V30 19771 H 1787.52 1.61073 0.163461 0
M  V30 19772 H 1789.51 2.62463 3.08051 0
M  V30 19773 H 1788.08 1.65163 2.65405 0
M  V30 19774 H 1787.3 3.72656 1.28534 0
M  V30 19775 H 1788.59 4.63717 2.09389 0
M  V30 19776 H 1787.99 2.97928 4.8089 0
M  V30 19777 H 1786.55 3.75348 5.32877 0
M  V30 19778 N 1789.98 -0.249655 1.5561 0
M  V30 19779 C 1790.89 -1.33061 1.93215 0
M  V30 19780 C 1791.91 -1.52806 0.832239 0
M  V30 19781 O 1793.08 -1.66482 1.13339 0
M  V30 19782 C 1790.15 -2.66569 2.2168 0
M  V30 19783 C 1789.21 -2.5537 3.45087 0
M  V30 19784 C 1788.44 -3.82511 3.72184 0
M  V30 19785 O 1788.66 -4.84267 3.014 0
M  V30 19786 O 1787.6 -3.81309 4.65711 0
M  V30 19787 H 1791.42 -1.04161 2.85279 0
M  V30 19788 H 1789.01 -0.450177 1.42456 0
M  V30 19789 H 1790.89 -3.45468 2.41308 0
M  V30 19790 H 1789.57 -2.95207 1.32794 0
M  V30 19791 H 1788.47 -1.74766 3.30768 0
M  V30 19792 H 1789.81 -2.31677 4.34266 0
M  V30 19793 N 1791.46 -1.48941 -0.515198 0
M  V30 19794 C 1792.73 -1.48205 -1.27651 0
M  V30 19795 C 1793.11 -0.201866 -2.10133 0
M  V30 19796 O 1792.46 0.816115 -2.13429 0
M  V30 19797 C 1792.67 -2.75274 -2.14535 0
M  V30 19798 C 1794.02 -3.24198 -2.74192 0
M  V30 19799 O 1795.04 -2.76293 -2.24813 0
M  V30 19800 O 1793.9 -4.07593 -3.64047 0
M  V30 19801 H 1791 -0.592546 -0.576904 0
M  V30 19802 H 1793.54 -1.6119 -0.530636 0
M  V30 19803 H 1792.32 -3.59949 -1.53469 0
M  V30 19804 H 1791.94 -2.6508 -2.96342 0
M  V30 19805 N 1792.94 0.765193 -1.37777 0
M  V30 19806 C 1794.18 1.52397 -1.33347 0
M  V30 19807 C 1794.51 1.94335 0.0800559 0
M  V30 19808 O 1793.77 1.64847 1.05469 0
M  V30 19809 C 1794.06 2.79732 -2.22452 0
M  V30 19810 C 1793.73 2.56814 -3.70618 0
M  V30 19811 C 1792.39 2.50272 -4.10996 0
M  V30 19812 C 1794.74 2.36494 -4.64457 0
M  V30 19813 C 1792.07 2.2141 -5.43318 0
M  V30 19814 C 1794.42 2.09155 -5.97024 0
M  V30 19815 C 1793.09 2.01062 -6.36499 0
M  V30 19816 H 1792.36 0.55766 -0.487951 0
M  V30 19817 H 1795.01 0.880853 -1.70039 0
M  V30 19818 H 1793.31 3.48635 -1.78777 0
M  V30 19819 H 1795.01 3.37639 -2.16335 0
M  V30 19820 H 1791.6 2.62771 -3.38599 0
M  V30 19821 H 1795.78 2.40534 -4.34117 0
M  V30 19822 H 1791.04 2.13644 -5.72858 0
M  V30 19823 H 1795.21 1.92433 -6.69285 0
M  V30 19824 H 1792.84 1.78462 -7.38956 0
M  V30 19825 N 1794.41 1.22455 0.992094 0
M  V30 19826 C 1795.35 0.938597 2.08004 0
M  V30 19827 C 1796.32 -0.118779 1.62166 0
M  V30 19828 O 1797.51 0.0129778 1.88496 0
M  V30 19829 C 1794.64 0.411803 3.36187 0
M  V30 19830 C 1793.68 1.45398 4.00951 0
M  V30 19831 S 1794.51 3.02757 4.417 0
M  V30 19832 C 1795.67 2.51718 5.73052 0
M  V30 19833 H 1795.9 1.85987 2.3194 0
M  V30 19834 H 1793.44 1.0557 1.12669 0
M  V30 19835 H 1795.39 0.114452 4.1034 0
M  V30 19836 H 1794.06 -0.488368 3.1028 0
M  V30 19837 H 1793.25 1.03528 4.93252 0
M  V30 19838 H 1792.85 1.70008 3.33127 0
M  V30 19839 H 1795.14 1.93009 6.49426 0
M  V30 19840 H 1796.09 3.42513 6.1975 0
M  V30 19841 H 1796.49 1.92974 5.30491 0
M  V30 19842 N 1795.89 -1.18905 1.03437 0
M  V30 19843 C 1797.12 -1.92678 0.753853 0
M  V30 19844 C 1797.53 -1.75814 -0.688111 0
M  V30 19845 O 1796.89 -1.08363 -1.46846 0
M  V30 19846 C 1796.94 -3.44275 1.10258 0
M  V30 19847 O 1796.66 -3.60602 2.48793 0
M  V30 19848 C 1798.16 -4.35159 0.84566 0
M  V30 19849 H 1795.38 -0.611875 0.275408 0
M  V30 19850 H 1797.93 -1.50887 1.38034 0
M  V30 19851 H 1796.08 -3.83878 0.521177 0
M  V30 19852 H 1796.5 -4.54403 2.61951 0
M  V30 19853 H 1797.97 -5.40109 1.13958 0
M  V30 19854 H 1798.45 -4.3865 -0.219767 0
M  V30 19855 H 1799.05 -4.01245 1.41006 0
M  V30 19856 N 1797.37 -0.812977 -1.35013 0
M  V30 19857 C 1798.6 -0.409014 -2.02817 0
M  V30 19858 C 1799.01 0.982004 -1.61252 0
M  V30 19859 O 1798.37 1.63384 -0.813137 0
M  V30 19860 C 1798.42 -0.490117 -3.58162 0
M  V30 19861 O 1798.14 -1.8263 -3.98218 0
M  V30 19862 C 1799.64 -0.0797786 -4.43228 0
M  V30 19863 H 1796.86 -0.165356 -0.650306 0
M  V30 19864 H 1799.41 -1.09837 -1.72499 0
M  V30 19865 H 1797.56 0.151057 -3.87105 0
M  V30 19866 H 1797.98 -1.79356 -4.92881 0
M  V30 19867 H 1799.45 -0.18763 -5.51681 0
M  V30 19868 H 1799.93 0.975612 -4.28227 0
M  V30 19869 H 1800.53 -0.694359 -4.19594 0
M  V30 19870 N 1798.85 1.47045 -0.567045 0
M  V30 19871 C 1799.78 2.27106 0.223156 0
M  V30 19872 C 1800.76 1.34662 0.911315 0
M  V30 19873 O 1801.94 1.64055 0.92834 0
M  V30 19874 C 1799.07 3.1197 1.31879 0
M  V30 19875 C 1798.12 4.20064 0.738145 0
M  V30 19876 S 1798.95 5.33828 -0.422892 0
M  V30 19877 C 1800.1 6.22257 0.674324 0
M  V30 19878 H 1800.34 2.93779 -0.456193 0
M  V30 19879 H 1797.87 1.50297 -0.353581 0
M  V30 19880 H 1799.83 3.61432 1.9462 0
M  V30 19881 H 1798.49 2.44641 1.97002 0
M  V30 19882 H 1797.68 4.7921 1.56122 0
M  V30 19883 H 1797.28 3.73534 0.186721 0
M  V30 19884 H 1799.58 6.59201 1.56398 0
M  V30 19885 H 1800.52 7.07998 0.11999 0
M  V30 19886 H 1800.93 5.56079 0.971422 0
M  V30 19887 N 1800.33 0.304 1.5464 0
M  V30 19888 C 1801.6 -0.357665 1.92302 0
M  V30 19889 C 1801.98 -1.71453 1.23155 0
M  V30 19890 O 1801.33 -2.25512 0.368342 0
M  V30 19891 C 1801.54 -0.469339 3.4583 0
M  V30 19892 C 1802.89 -0.738803 4.18123 0
M  V30 19893 O 1803.91 -0.553033 3.51881 0
M  V30 19894 O 1802.77 -1.09585 5.354 0
M  V30 19895 H 1799.87 -0.200506 0.802326 0
M  V30 19896 H 1802.41 0.352279 1.66003 0
M  V30 19897 H 1801.18 0.484397 3.8829 0
M  V30 19898 H 1800.81 -1.22763 3.78173 0
M  V30 19899 N 1801.8 -1.57568 0.0317802 0
M  V30 19900 C 1802.77 -2.09296 -0.934239 0
M  V30 19901 C 1803.77 -1.00855 -1.25239 0
M  V30 19902 O 1804.96 -1.27004 -1.19229 0
M  V30 19903 C 1802.09 -2.56103 -2.24998 0
M  V30 19904 H 1803.28 -2.95933 -0.486183 0
M  V30 19905 H 1800.83 -1.54796 -0.2163 0
M  V30 19906 H 1801.57 -1.72803 -2.74426 0
M  V30 19907 H 1801.35 -3.35329 -2.03216 0
M  V30 19908 H 1802.84 -2.96339 -2.94233 0
M  V30 19909 N 1803.28 0.241399 -1.5574 0
M  V30 19910 C 1804.23 1.31868 -1.91608 0
M  V30 19911 C 1805.22 1.49545 -0.795774 0
M  V30 19912 O 1806.43 1.50955 -0.980442 0
M  V30 19913 H 1802.81 0.441685 -0.60862 0
M  V30 19914 H 1804.78 0.98887 -2.81538 0
M  V30 19915 C 1803.53 2.66602 -2.23201 0
M  V30 19916 H 1802.85 2.53802 -3.08909 0
M  V30 19917 H 1804.29 3.40842 -2.52196 0
M  V30 19918 C 1802.75 3.20112 -1.05024 0
M  V30 19919 O 1803.28 4.0057 -0.301069 0
M  V30 19920 N 1801.48 2.78214 -0.839381 0
M  V30 19921 H 1801.03 2.12894 -1.4503 0
M  V30 19922 H 1800.99 3.1436 -0.050362 0
M  V30 19923 N 1804.76 1.49212 0.507292 0
M  V30 19924 C 1805.67 1.68141 1.63603 0
M  V30 19925 C 1806.69 0.563959 1.64607 0
M  V30 19926 O 1807.86 0.837885 1.83143 0
M  V30 19927 C 1804.93 1.73793 2.99995 0
M  V30 19928 C 1803.99 2.9733 3.09667 0
M  V30 19929 C 1803.22 3.02703 4.39553 0
M  V30 19930 O 1803.44 2.15844 5.27985 0
M  V30 19931 O 1802.38 3.95105 4.54066 0
M  V30 19932 H 1806.2 2.63749 1.50565 0
M  V30 19933 H 1803.79 1.32879 0.682893 0
M  V30 19934 H 1805.67 1.79901 3.81069 0
M  V30 19935 H 1804.35 0.813622 3.13308 0
M  V30 19936 H 1803.25 2.96743 2.27804 0
M  V30 19937 H 1804.59 3.8922 3.01278 0
M  V30 19938 N 1806.24 -0.757876 1.38181 0
M  V30 19939 C 1807.15 -1.90234 1.37289 0
M  V30 19940 C 1808.16 -1.71883 0.270567 0
M  V30 19941 O 1809.34 -1.94881 0.508279 0
M  V30 19942 C 1806.41 -3.25546 1.19251 0
M  V30 19943 C 1805.47 -3.56452 2.39249 0
M  V30 19944 C 1804.7 -4.85308 2.22063 0
M  V30 19945 O 1804.92 -5.57373 1.2121 0
M  V30 19946 O 1803.86 -5.15594 3.10558 0
M  V30 19947 H 1807.68 -1.9394 2.33711 0
M  V30 19948 H 1805.27 -0.902559 1.19056 0
M  V30 19949 H 1807.15 -4.06454 1.11235 0
M  V30 19950 H 1805.82 -3.22661 0.259109 0
M  V30 19951 H 1804.73 -2.75723 2.52839 0
M  V30 19952 H 1806.06 -3.64094 3.31205 0
M  V30 19953 N 1807.72 -1.22979 -0.985586 0
M  V30 19954 C 1808.66 -1.00637 -2.07704 0
M  V30 19955 C 1809.63 0.0744076 -1.65933 0
M  V30 19956 O 1810.82 -0.0766583 -1.90646 0
M  V30 19957 C 1807.96 -0.598088 -3.39878 0
M  V30 19958 C 1807.07 -1.75043 -3.94948 0
M  V30 19959 C 1806.21 -1.28943 -5.15313 0
M  V30 19960 C 1805.25 -2.41285 -5.62537 0
M  V30 19961 N 1804.38 -1.9618 -6.74135 0
M  V30 19962 H 1809.22 -1.94063 -2.26149 0
M  V30 19963 H 1806.76 -0.966841 -1.10863 0
M  V30 19964 H 1808.72 -0.342503 -4.15792 0
M  V30 19965 H 1807.35 0.299167 -3.21411 0
M  V30 19966 H 1806.4 -2.12015 -3.15838 0
M  V30 19967 H 1807.71 -2.5952 -4.25971 0
M  V30 19968 H 1806.87 -0.99166 -5.98541 0
M  V30 19969 H 1805.6 -0.41496 -4.85931 0
M  V30 19970 H 1804.61 -2.71842 -4.77893 0
M  V30 19971 H 1805.83 -3.2926 -5.9394 0
M  V30 19972 H 1803.78 -1.11105 -6.46523 0
M  V30 19973 H 1803.7 -2.74219 -7.04514 0
M  V30 19974 H 1804.97 -1.69492 -7.6085 0
M  V30 19975 N 1809.19 1.18355 -1.04066 0
M  V30 19976 C 1810.44 1.87665 -0.73923 0
M  V30 19977 C 1810.76 1.81226 0.735963 0
M  V30 19978 O 1811.96 2.45899 1.15091 0
M  V30 19979 C 1810.42 3.36671 -1.27203 0
M  V30 19980 C 1810.03 3.5164 -2.77585 0
M  V30 19981 C 1811.77 4.11383 -1.04712 0
M  V30 19982 C 1809.68 4.94605 -3.24222 0
M  V30 19983 H 1808.61 0.702908 -0.27283 0
M  V30 19984 H 1811.26 1.33733 -1.25649 0
M  V30 19985 H 1809.64 3.90072 -0.682621 0
M  V30 19986 H 1810.81 3.08511 -3.42283 0
M  V30 19987 H 1809.13 2.90334 -2.98488 0
M  V30 19988 H 1811.73 5.16832 -1.37071 0
M  V30 19989 H 1812.07 4.16297 0.0156344 0
M  V30 19990 H 1812.6 3.64154 -1.60114 0
M  V30 19991 H 1809.34 4.94859 -4.29878 0
M  V30 19992 H 1808.86 5.38449 -2.6426 0
M  V30 19993 H 1810.54 5.6332 -3.18245 0
M  V30 19994 N 1810.67 0.820125 1.3458 0
M  V30 19995 C 1811.62 0.22828 2.31477 0
M  V30 19996 C 1812.61 -0.629439 1.57272 0
M  V30 19997 O 1813.82 -0.521091 1.72292 0
M  V30 19998 H 1810.2 0.0550728 0.749981 0
M  V30 19999 H 1812.17 1.0604 2.78923 0
M  V30 20000 C 1810.92 -0.597495 3.42528 0
M  V30 20001 H 1810.24 0.0531749 3.99765 0
M  V30 20002 H 1811.68 -0.977765 4.12572 0
M  V30 20003 C 1810.14 -1.76868 2.86739 0
M  V30 20004 O 1810.67 -2.86674 2.81391 0
M  V30 20005 N 1808.87 -1.58453 2.436 0
M  V30 20006 H 1808.42 -0.691318 2.4815 0
M  V30 20007 H 1808.38 -2.36969 2.06624 0
M  V30 20008 N 1812.15 -1.46743 0.574835 0
M  V30 20009 C 1813.11 -2.28691 -0.152633 0
M  V30 20010 C 1814.11 -1.37949 -0.826238 0
M  V30 20011 O 1815.3 -1.60405 -0.679398 0
M  V30 20012 C 1812.44 -3.1812 -1.22525 0
M  V30 20013 H 1813.63 -2.94483 0.567439 0
M  V30 20014 H 1811.18 -1.52723 0.33248 0
M  V30 20015 H 1811.92 -2.57058 -1.97716 0
M  V30 20016 H 1811.7 -3.84922 -0.746841 0
M  V30 20017 H 1813.19 -3.7982 -1.7357 0
M  V30 20018 N 1813.63 -0.312197 -1.54477 0
M  V30 20019 C 1814.87 0.294208 -2.00655 0
M  V30 20020 C 1815.21 1.52674 -1.20018 0
M  V30 20021 O 1814.48 1.92481 -0.279517 0
M  V30 20022 C 1814.77 0.639677 -3.54373 0
M  V30 20023 C 1814.62 -0.602773 -4.45743 0
M  V30 20024 C 1815.94 1.46181 -4.15113 0
M  V30 20025 H 1813.06 0.10546 -0.729416 0
M  V30 20026 H 1815.7 -0.426519 -1.85151 0
M  V30 20027 H 1813.85 1.25371 -3.67715 0
M  V30 20028 H 1815.52 -1.24116 -4.44289 0
M  V30 20029 H 1813.76 -1.23386 -4.15882 0
M  V30 20030 H 1814.43 -0.316748 -5.5109 0
M  V30 20031 H 1816.91 0.942887 -4.05276 0
M  V30 20032 H 1815.79 1.67231 -5.22805 0
M  V30 20033 H 1816.05 2.45448 -3.67706 0
M  V30 20034 N 1815.11 1.57549 -0.040136 0
M  V30 20035 C 1816.35 1.92535 0.637037 0
M  V30 20036 C 1816.69 0.917836 1.71141 0
M  V30 20037 O 1815.96 -0.057824 1.94414 0
M  V30 20038 C 1816.24 3.37955 1.24333 0
M  V30 20039 C 1816.1 4.49449 0.177761 0
M  V30 20040 C 1817.42 3.8355 2.15818 0
M  V30 20041 H 1814.53 0.700157 0.230107 0
M  V30 20042 H 1817.18 1.89739 -0.0996468 0
M  V30 20043 H 1815.33 3.40468 1.87119 0
M  V30 20044 H 1817 4.59065 -0.453507 0
M  V30 20045 H 1815.24 4.30961 -0.495486 0
M  V30 20046 H 1815.91 5.48256 0.641792 0
M  V30 20047 H 1818.39 3.82842 1.63006 0
M  V30 20048 H 1817.26 4.85974 2.55188 0
M  V30 20049 H 1817.53 3.19678 3.05382 0
M  V30 20050 N 1816.58 -0.233136 1.55866 0
M  V30 20051 C 1817.49 -1.31004 1.94615 0
M  V30 20052 C 1818.51 -1.51915 0.848399 0
M  V30 20053 O 1819.69 -1.6527 1.15098 0
M  V30 20054 C 1816.75 -2.64203 2.24494 0
M  V30 20055 C 1815.81 -2.51695 3.47776 0
M  V30 20056 C 1815.05 -3.78542 3.7622 0
M  V30 20057 O 1815.27 -4.81043 3.06519 0
M  V30 20058 O 1814.2 -3.76348 4.69729 0
M  V30 20059 H 1818.03 -1.01129 2.86368 0
M  V30 20060 H 1815.61 -0.435043 1.42926 0
M  V30 20061 H 1817.5 -3.42889 2.44959 0
M  V30 20062 H 1816.17 -2.93782 1.35918 0
M  V30 20063 H 1815.08 -1.71248 3.32603 0
M  V30 20064 H 1816.41 -2.27058 4.36698 0
M  V30 20065 N 1818.06 -1.49479 -0.499372 0
M  V30 20066 C 1819.29 -1.6276 -1.27738 0
M  V30 20067 C 1819.71 -0.299635 -1.86407 0
M  V30 20068 O 1819.06 0.715092 -1.67907 0
M  V30 20069 C 1819.11 -2.69762 -2.40647 0
M  V30 20070 O 1818.84 -3.97407 -1.84388 0
M  V30 20071 C 1820.34 -2.93762 -3.31992 0
M  V30 20072 H 1817.56 -0.547893 -0.387368 0
M  V30 20073 H 1820.1 -1.95522 -0.599292 0
M  V30 20074 H 1818.26 -2.39773 -3.04282 0
M  V30 20075 H 1818.67 -4.56361 -2.58525 0
M  V30 20076 H 1820.14 -3.72361 -4.07494 0
M  V30 20077 H 1820.62 -2.0374 -3.89085 0
M  V30 20078 H 1821.23 -3.25173 -2.74122 0
M  V30 20079 N 1819.54 0.750537 -1.38581 0
M  V30 20080 C 1820.79 1.50676 -1.34689 0
M  V30 20081 C 1821.11 1.94903 0.0615414 0
M  V30 20082 O 1820.38 1.67867 1.00982 0
M  V30 20083 H 1818.96 0.558914 -0.495605 0
M  V30 20084 H 1821.62 0.891979 -1.73291 0
M  V30 20085 H 1820.72 2.39623 -1.99969 0
M  V30 20086 N 1821.02 1.235 0.979051 0
M  V30 20087 C 1822.44 0.997948 1.24552 0
M  V30 20088 C 1822.64 -0.300139 1.99252 0
M  V30 20089 O 1821.69 -1.01923 2.31015 0
M  V30 20090 C 1823 2.2057 2.04375 0
M  V30 20091 C 1824.55 2.25075 2.17509 0
M  V30 20092 C 1825.03 3.45441 3.00724 0
M  V30 20093 N 1826.52 3.45688 3.08308 0
M  V30 20094 C 1827.25 4.35478 3.73024 0
M  V30 20095 N 1826.75 5.35506 4.39551 0
M  V30 20096 N 1828.54 4.23218 3.69923 0
M  V30 20097 H 1820.69 2.06936 0.478649 0
M  V30 20098 H 1822.96 0.907514 0.274083 0
M  V30 20099 H 1822.66 3.14781 1.56863 0
M  V30 20100 H 1822.54 2.21765 3.05123 0
M  V30 20101 H 1824.92 1.31403 2.64229 0
M  V30 20102 H 1825 2.27912 1.16146 0
M  V30 20103 H 1824.65 4.3942 2.547 0
M  V30 20104 H 1824.58 3.39845 4.0226 0
M  V30 20105 H 1827.07 2.73315 2.60974 0
M  V30 20106 H 1827.38 6.00274 4.86715 0
M  V30 20107 H 1825.73 5.39404 4.38256 0
M  V30 20108 H 1828.92 3.44315 3.17119 0
M  V30 20109 H 1829.09 4.93396 4.20076 0
M  V30 20110 N 1822.5 -1.17802 1.04693 0
M  V30 20111 C 1823.91 -1.39944 0.76733 0
M  V30 20112 C 1824.11 -1.91051 -0.640451 0
M  V30 20113 O 1823.17 -2.09889 -1.40366 0
M  V30 20114 C 1824.48 -2.39465 1.81871 0
M  V30 20115 C 1826.03 -2.5318 1.84035 0
M  V30 20116 C 1826.51 -3.55971 2.88182 0
M  V30 20117 N 1828 -3.63484 2.87113 0
M  V30 20118 C 1828.73 -4.42762 3.64348 0
M  V30 20119 N 1828.23 -5.25597 4.51353 0
M  V30 20120 N 1830.02 -4.37586 3.52809 0
M  V30 20121 H 1822.17 -0.829567 1.9553 0
M  V30 20122 H 1824.43 -0.427009 0.846385 0
M  V30 20123 H 1824.14 -2.08974 2.82883 0
M  V30 20124 H 1824.01 -3.38899 1.65612 0
M  V30 20125 H 1826.4 -2.82984 0.836908 0
M  V30 20126 H 1826.48 -1.53837 2.04371 0
M  V30 20127 H 1826.13 -3.26906 3.88709 0
M  V30 20128 H 1826.06 -4.55006 2.65099 0
M  V30 20129 H 1828.55 -3.04338 2.24024 0
M  V30 20130 H 1828.86 -5.83258 5.06981 0
M  V30 20131 H 1827.21 -5.24996 4.55417 0
M  V30 20132 H 1830.4 -3.71924 2.84236 0
M  V30 20133 H 1830.57 -4.99128 4.13249 0
M  V30 20134 N 1823.98 -0.827251 -1.34143 0
M  V30 20135 C 1824.91 -0.267015 -2.31968 0
M  V30 20136 C 1825.89 0.618906 -1.58441 0
M  V30 20137 O 1827.07 0.544882 -1.86399 0
M  V30 20138 C 1824.2 0.568379 -3.42617 0
M  V30 20139 C 1823.16 -0.220767 -4.2743 0
M  V30 20140 C 1822.48 0.737643 -5.29587 0
M  V30 20141 C 1823.78 -1.43137 -5.02304 0
M  V30 20142 H 1825.48 -1.08436 -2.79073 0
M  V30 20143 H 1823.02 -0.522879 -1.34171 0
M  V30 20144 H 1824.97 0.970525 -4.10072 0
M  V30 20145 H 1823.7 1.41882 -2.94172 0
M  V30 20146 H 1822.36 -0.604333 -3.61585 0
M  V30 20147 H 1822.01 1.58416 -4.77403 0
M  V30 20148 H 1821.71 0.213815 -5.87211 0
M  V30 20149 H 1823.23 1.13755 -5.9991 0
M  V30 20150 H 1824.64 -1.10301 -5.62589 0
M  V30 20151 H 1823.04 -1.89115 -5.69522 0
M  V30 20152 H 1824.11 -2.2073 -4.31748 0
M  V30 20153 N 1825.45 1.46436 -0.582609 0
M  V30 20154 C 1826.7 2.02685 -0.0682503 0
M  V30 20155 C 1827.03 1.45315 1.2883 0
M  V30 20156 O 1826.31 0.61821 1.84414 0
M  V30 20157 C 1826.59 3.601 -0.00237797 0
M  V30 20158 C 1826.44 4.27855 -1.38782 0
M  V30 20159 C 1827.76 4.34525 0.69829 0
M  V30 20160 H 1824.88 0.736531 -0.0262761 0
M  V30 20161 H 1827.52 1.7458 -0.749789 0
M  V30 20162 H 1825.67 3.84176 0.57803 0
M  V30 20163 H 1827.35 4.15043 -2.01339 0
M  V30 20164 H 1825.59 3.87221 -1.95557 0
M  V30 20165 H 1826.26 5.36614 -1.2942 0
M  V30 20166 H 1828.74 4.15594 0.205219 0
M  V30 20167 H 1827.61 5.44244 0.71341 0
M  V30 20168 H 1827.87 4.05575 1.75957 0
M  V30 20169 N 1826.93 0.320385 1.54309 0
M  V30 20170 C 1828.16 -0.28794 2.05391 0
M  V30 20171 C 1828.58 -1.45249 1.19517 0
M  V30 20172 O 1827.94 -1.80154 0.203556 0
M  V30 20173 C 1827.99 -0.703261 3.53676 0
M  V30 20174 O 1827.09 -1.80598 3.70753 0
M  V30 20175 H 1826.43 -0.052589 0.661914 0
M  V30 20176 H 1828.96 0.46787 1.99179 0
M  V30 20177 H 1828.97 -0.986793 3.95887 0
M  V30 20178 H 1827.65 0.148514 4.15635 0
M  V30 20179 H 1826.22 -1.5215 3.40448 0
M  V30 20180 N 1828.41 -1.57525 0.0484906 0
M  V30 20181 C 1829.69 -1.83927 -0.66561 0
M  V30 20182 C 1830.07 -0.93636 -1.89197 0
M  V30 20183 O 1829.41 0.00326905 -2.285 0
M  V30 20184 C 1829.62 -3.33595 -1.02545 0
M  V30 20185 C 1830.97 -4.00544 -1.40889 0
M  V30 20186 O 1832 -3.38204 -1.11787 0
M  V30 20187 O 1830.86 -5.10454 -1.95189 0
M  V30 20188 H 1827.95 -0.759042 -0.328305 0
M  V30 20189 H 1830.5 -1.69522 0.0776497 0
M  V30 20190 H 1829.27 -3.90999 -0.153456 0
M  V30 20191 H 1828.89 -3.53177 -1.82625 0
M  V30 20192 N 1829.89 0.224867 -1.55988 0
M  V30 20193 C 1831.14 0.947871 -1.78493 0
M  V30 20194 C 1831.46 1.85001 -0.616413 0
M  V30 20195 O 1830.73 1.92435 0.366847 0
M  V30 20196 H 1829.31 0.352987 -0.658338 0
M  V30 20197 H 1831.97 0.237519 -1.93447 0
M  V30 20198 H 1831.06 1.55664 -2.70509 0
M  V30 20199 N 1831.37 1.49742 0.491438 0
M  V30 20200 C 1832.31 1.67614 1.61271 0
M  V30 20201 C 1833.31 0.542004 1.60495 0
M  V30 20202 O 1834.51 0.721922 1.64889 0
M  V30 20203 H 1830.89 0.528696 0.534775 0
M  V30 20204 H 1832.86 2.61711 1.43352 0
M  V30 20205 C 1831.61 1.76877 2.99349 0
M  V30 20206 H 1830.93 2.63526 3.00656 0
M  V30 20207 H 1832.37 1.93414 3.77315 0
M  V30 20208 C 1830.83 0.515719 3.32929 0
M  V30 20209 O 1831.36 -0.354312 4.00134 0
M  V30 20210 N 1829.57 0.3758 2.8816 0
M  V30 20211 H 1829.11 1.08481 2.33644 0
M  V30 20212 H 1829.07 -0.461494 3.10995 0
M  V30 20213 N 1832.84 -0.743177 1.38977 0
M  V30 20214 C 1834.09 -1.49798 1.35069 0
M  V30 20215 C 1834.41 -1.95527 -0.0533172 0
M  V30 20216 O 1835.61 -2.70648 -0.21497 0
M  V30 20217 C 1834.07 -2.70637 2.37242 0
M  V30 20218 C 1833.68 -2.3189 3.83316 0
M  V30 20219 C 1835.42 -3.4849 2.42395 0
M  V30 20220 C 1833.33 -3.49403 4.77149 0
M  V30 20221 H 1832.26 -0.562495 0.50211 0
M  V30 20222 H 1834.91 -0.81145 1.64584 0
M  V30 20223 H 1833.29 -3.41323 2.00785 0
M  V30 20224 H 1834.46 -1.68803 4.28768 0
M  V30 20225 H 1832.78 -1.67148 3.8138 0
M  V30 20226 H 1835.38 -4.35882 3.09694 0
M  V30 20227 H 1835.72 -3.9038 1.446 0
M  V30 20228 H 1836.25 -2.84825 2.77704 0
M  V30 20229 H 1832.99 -3.1257 5.76177 0
M  V30 20230 H 1832.51 -4.11498 4.36382 0
M  V30 20231 H 1834.19 -4.15847 4.95661 0
M  V30 20232 N 1834.32 -1.24018 -0.972487 0
M  V30 20233 C 1835.27 -1.02594 -2.08752 0
M  V30 20234 C 1836.26 0.0376128 -1.69358 0
M  V30 20235 O 1837.47 -0.116549 -1.79622 0
M  V30 20236 H 1833.85 -0.314713 -0.682979 0
M  V30 20237 H 1835.82 -1.97163 -2.23985 0
M  V30 20238 C 1834.57 -0.642298 -3.41716 0
M  V30 20239 H 1833.89 -1.45243 -3.72484 0
M  V30 20240 H 1835.33 -0.531964 -4.2065 0
M  V30 20241 C 1833.79 0.650173 -3.30567 0
M  V30 20242 O 1834.32 1.6972 -3.64085 0
M  V30 20243 N 1832.52 0.629085 -2.83709 0
M  V30 20244 H 1832.07 -0.223302 -2.5663 0
M  V30 20245 H 1832.03 1.49407 -2.76631 0
M  V30 20246 N 1835.8 1.17245 -1.05316 0
M  V30 20247 C 1837.03 1.91995 -0.784387 0
M  V30 20248 C 1837.45 1.76362 0.65408 0
M  V30 20249 O 1836.81 1.0822 1.45458 0
M  V30 20250 C 1836.86 3.41043 -1.1714 0
M  V30 20251 O 1835.96 4.11276 -0.304285 0
M  V30 20252 H 1835.3 0.598516 -0.287532 0
M  V30 20253 H 1837.83 1.48604 -1.40634 0
M  V30 20254 H 1837.84 3.91788 -1.13871 0
M  V30 20255 H 1836.52 3.51742 -2.21924 0
M  V30 20256 H 1835.09 3.70773 -0.39769 0
M  V30 20257 N 1837.28 0.834353 1.33702 0
M  V30 20258 C 1838.56 0.350003 1.92443 0
M  V30 20259 C 1838.94 -1.1641 1.76102 0
M  V30 20260 O 1838.28 -1.97646 1.14666 0
M  V30 20261 C 1838.49 0.791928 3.39896 0
M  V30 20262 C 1839.84 0.797338 4.17046 0
M  V30 20263 O 1840.87 0.735242 3.48529 0
M  V30 20264 O 1839.72 0.880963 5.39353 0
M  V30 20265 H 1836.82 0.0981048 0.82116 0
M  V30 20266 H 1839.36 0.919905 1.42604 0
M  V30 20267 H 1838.14 1.83433 3.45641 0
M  V30 20268 H 1837.76 0.198349 3.97105 0
M  V30 20269 N 1838.76 -1.46125 0.590367 0
M  V30 20270 C 1840.17 -1.57588 0.252639 0
M  V30 20271 C 1840.37 -1.58435 -1.24502 0
M  V30 20272 O 1839.43 -1.50541 -2.02716 0
M  V30 20273 C 1840.74 -2.86644 0.908612 0
M  V30 20274 C 1842.29 -3.00289 0.882917 0
M  V30 20275 C 1842.76 -4.32092 1.51858 0
M  V30 20276 N 1844.26 -4.38809 1.48327 0
M  V30 20277 C 1844.99 -5.39426 1.94442 0
M  V30 20278 N 1844.49 -6.46674 2.48565 0
M  V30 20279 N 1846.28 -5.30675 1.85313 0
M  V30 20280 H 1838.43 -1.43819 1.56301 0
M  V30 20281 H 1840.69 -0.686515 0.653759 0
M  V30 20282 H 1840.4 -2.91857 1.96246 0
M  V30 20283 H 1840.27 -3.74838 0.421445 0
M  V30 20284 H 1842.66 -2.94653 -0.16233 0
M  V30 20285 H 1842.74 -2.13551 1.40818 0
M  V30 20286 H 1842.39 -4.38486 2.56306 0
M  V30 20287 H 1842.32 -5.17618 0.968474 0
M  V30 20288 H 1844.81 -3.61907 1.08772 0
M  V30 20289 H 1845.12 -7.19671 2.8159 0
M  V30 20290 H 1843.46 -6.47473 2.52595 0
M  V30 20291 H 1846.66 -4.45793 1.42782 0
M  V30 20292 H 1846.83 -6.08943 2.21567 0
M  V30 20293 N 1840.23 -0.328564 -1.54137 0
M  V30 20294 C 1841.48 0.273427 -1.99838 0
M  V30 20295 C 1841.8 1.52851 -1.22049 0
M  V30 20296 O 1843 2.20681 -1.58152 0
M  V30 20297 C 1841.46 0.537757 -3.5586 0
M  V30 20298 C 1841.07 -0.700562 -4.42489 0
M  V30 20299 C 1842.81 1.09943 -4.10016 0
M  V30 20300 C 1840.72 -0.40786 -5.89992 0
M  V30 20301 H 1839.65 0.105947 -0.746519 0
M  V30 20302 H 1842.3 -0.441565 -1.78108 0
M  V30 20303 H 1840.68 1.31307 -3.73597 0
M  V30 20304 H 1841.85 -1.47583 -4.36527 0
M  V30 20305 H 1840.17 -1.1828 -3.99248 0
M  V30 20306 H 1842.77 1.33312 -5.17815 0
M  V30 20307 H 1843.11 2.05035 -3.62307 0
M  V30 20308 H 1843.64 0.385182 -3.95931 0
M  V30 20309 H 1840.38 -1.32809 -6.41905 0
M  V30 20310 H 1839.9 0.329604 -5.98894 0
M  V30 20311 H 1841.58 -0.0195391 -6.46997 0
M  V30 20312 N 1841.71 1.57497 -0.0568439 0
M  V30 20313 C 1842.64 2.08817 0.94488 0
M  V30 20314 C 1843.66 1.01717 1.27112 0
M  V30 20315 O 1844.85 1.2927 1.23092 0
M  V30 20316 C 1841.95 2.52104 2.26488 0
M  V30 20317 C 1841.12 3.82606 2.11971 0
M  V30 20318 C 1840.18 4.12145 3.27144 0
M  V30 20319 O 1839.2 4.81978 3.02797 0
M  V30 20320 N 1840.41 3.64505 4.51792 0
M  V30 20321 H 1843.17 2.95384 0.506814 0
M  V30 20322 H 1840.73 1.61383 0.129259 0
M  V30 20323 H 1842.72 2.68938 3.02415 0
M  V30 20324 H 1841.29 1.70756 2.61842 0
M  V30 20325 H 1840.51 3.75299 1.20601 0
M  V30 20326 H 1841.8 4.68055 1.99505 0
M  V30 20327 H 1841.2 3.08061 4.74462 0
M  V30 20328 H 1839.76 3.86566 5.24795 0
M  V30 20329 N 1843.19 -0.216591 1.56105 0
M  V30 20330 C 1844.1 -1.28933 1.95994 0
M  V30 20331 C 1845.12 -1.51007 0.864464 0
M  V30 20332 O 1846.29 -1.6404 1.16845 0
M  V30 20333 C 1843.36 -2.61807 2.27284 0
M  V30 20334 C 1842.42 -2.47992 3.50426 0
M  V30 20335 C 1841.65 -3.7453 3.80214 0
M  V30 20336 O 1841.87 -4.77765 3.11604 0
M  V30 20337 O 1840.81 -3.71345 4.73694 0
M  V30 20338 H 1844.63 -0.980864 2.87424 0
M  V30 20339 H 1842.22 -0.419859 1.43379 0
M  V30 20340 H 1844.1 -3.40272 2.48582 0
M  V30 20341 H 1842.78 -2.92324 1.39026 0
M  V30 20342 H 1841.68 -1.67711 3.34401 0
M  V30 20343 H 1843.02 -2.22413 4.39082 0
M  V30 20344 N 1844.67 -1.5 -0.48349 0
M  V30 20345 C 1845.62 -1.67957 -1.58301 0
M  V30 20346 C 1846.59 -0.520895 -1.57721 0
M  V30 20347 O 1847.77 -0.750008 -1.75441 0
M  V30 20348 C 1844.91 -1.76832 -2.96352 0
M  V30 20349 C 1844.02 -3.04119 -3.06815 0
M  V30 20350 C 1843.16 -3.03865 -4.35706 0
M  V30 20351 C 1842.2 -4.25658 -4.39865 0
M  V30 20352 N 1841.33 -4.23214 -5.60209 0
M  V30 20353 H 1846.17 -2.61832 -1.42296 0
M  V30 20354 H 1843.71 -1.29804 -0.692045 0
M  V30 20355 H 1845.67 -1.79958 -3.76392 0
M  V30 20356 H 1844.3 -0.864074 -3.1102 0
M  V30 20357 H 1843.35 -3.10523 -2.19727 0
M  V30 20358 H 1844.66 -3.94106 -3.05748 0
M  V30 20359 H 1843.82 -3.05652 -5.24082 0
M  V30 20360 H 1842.56 -2.11687 -4.39363 0
M  V30 20361 H 1841.56 -4.24097 -3.49888 0
M  V30 20362 H 1842.79 -5.19049 -4.37909 0
M  V30 20363 H 1840.73 -3.33883 -5.64675 0
M  V30 20364 H 1840.65 -5.06956 -5.60832 0
M  V30 20365 H 1841.92 -4.29129 -6.50744 0
M  V30 20366 N 1846.15 0.735796 -1.39369 0
M  V30 20367 C 1847.39 1.49756 -1.36752 0
M  V30 20368 C 1847.73 1.94165 0.036815 0
M  V30 20369 O 1847 1.66728 1.00159 0
M  V30 20370 C 1847.28 2.73779 -2.33916 0
M  V30 20371 C 1847.14 2.35394 -3.83288 0
M  V30 20372 C 1848.46 3.75875 -2.28924 0
M  V30 20373 H 1845.57 0.543236 -0.49806 0
M  V30 20374 H 1848.22 0.841381 -1.70355 0
M  V30 20375 H 1846.37 3.29768 -2.05391 0
M  V30 20376 H 1848.04 1.85043 -4.2256 0
M  V30 20377 H 1846.28 1.67632 -4.00102 0
M  V30 20378 H 1846.95 3.24206 -4.4676 0
M  V30 20379 H 1849.43 3.29469 -2.54144 0
M  V30 20380 H 1848.3 4.60321 -2.98991 0
M  V30 20381 H 1848.57 4.22739 -1.29399 0
M  V30 20382 N 1847.63 1.24532 0.965897 0
M  V30 20383 C 1848.9 0.994047 1.68458 0
M  V30 20384 C 1849.28 -0.483115 2.05497 0
M  V30 20385 O 1848.63 -1.45784 1.75953 0
M  V30 20386 C 1848.84 1.91872 2.91524 0
M  V30 20387 C 1850.19 2.19066 3.63724 0
M  V30 20388 O 1851.21 1.8954 3.01584 0
M  V30 20389 O 1850.07 2.69217 4.75589 0
M  V30 20390 H 1847.17 0.376083 0.73654 0
M  V30 20391 H 1849.71 1.35638 1.01982 0
M  V30 20392 H 1848.48 2.91665 2.60858 0
M  V30 20393 H 1848.11 1.55966 3.65732 0
M  V30 20394 N 1849.1 -1.16685 1.05936 0
M  V30 20395 C 1850.33 -1.91576 0.794558 0
M  V30 20396 C 1850.75 -1.76706 -0.644718 0
M  V30 20397 O 1850.11 -1.0899 -1.44882 0
M  V30 20398 C 1850.16 -3.40417 1.18947 0
M  V30 20399 O 1849.26 -4.11109 0.326091 0
M  V30 20400 H 1848.6 -0.596983 0.290702 0
M  V30 20401 H 1851.13 -1.47856 1.4142 0
M  V30 20402 H 1851.14 -3.91178 1.15947 0
M  V30 20403 H 1849.82 -3.5056 2.23786 0
M  V30 20404 H 1848.4 -3.70557 0.417347 0
M  V30 20405 N 1850.58 -0.841432 -1.33258 0
M  V30 20406 C 1851.83 -0.434677 -1.96961 0
M  V30 20407 C 1852.14 1.012 -1.67386 0
M  V30 20408 O 1853.35 1.52356 -2.24722 0
M  V30 20409 C 1851.81 -0.726332 -3.52495 0
M  V30 20410 C 1851.41 -2.18786 -3.90943 0
M  V30 20411 C 1853.16 -0.386652 -4.22735 0
M  V30 20412 C 1851.06 -2.42343 -5.39466 0
M  V30 20413 H 1849.99 -0.158809 -0.737086 0
M  V30 20414 H 1852.65 -1.03037 -1.51841 0
M  V30 20415 H 1851.03 -0.0602315 -3.95954 0
M  V30 20416 H 1852.2 -2.89465 -3.58534 0
M  V30 20417 H 1850.52 -2.49076 -3.33691 0
M  V30 20418 H 1853.11 -0.540249 -5.31964 0
M  V30 20419 H 1853.46 0.670595 -4.10863 0
M  V30 20420 H 1853.99 -1.00809 -3.84815 0
M  V30 20421 H 1850.73 -3.46642 -5.56345 0
M  V30 20422 H 1850.25 -1.76227 -5.73327 0
M  V30 20423 H 1851.93 -2.25625 -6.06385 0
M  V30 20424 N 1852.06 1.4581 -0.598108 0
M  V30 20425 C 1853.34 1.95588 -0.0220376 0
M  V30 20426 C 1853.72 1.54066 1.44316 0
M  V30 20427 O 1853.06 0.798663 2.14088 0
M  V30 20428 C 1853.27 3.48366 -0.210204 0
M  V30 20429 C 1854.62 4.24513 -0.0860474 0
M  V30 20430 O 1855.65 3.55925 -0.139833 0
M  V30 20431 O 1854.51 5.46488 0.0367961 0
M  V30 20432 H 1851.6 0.825977 0.0411123 0
M  V30 20433 H 1854.15 1.56021 -0.667506 0
M  V30 20434 H 1852.92 3.71526 -1.22818 0
M  V30 20435 H 1852.54 3.94801 0.470974 0
M  V30 20436 N 1853.54 0.336733 1.53961 0
M  V30 20437 C 1854.81 -0.316794 1.93018 0
M  V30 20438 C 1855.19 -1.68802 1.26764 0
M  V30 20439 O 1854.54 -2.2468 0.416094 0
M  V30 20440 C 1854.75 -0.395878 3.46747 0
M  V30 20441 C 1856.1 -0.649946 4.19596 0
M  V30 20442 O 1857.12 -0.47827 3.52975 0
M  V30 20443 O 1855.98 -0.982035 5.37604 0
M  V30 20444 H 1853.08 -0.183442 0.806398 0
M  V30 20445 H 1855.62 0.387412 1.65219 0
M  V30 20446 H 1854.4 0.56665 3.87175 0
M  V30 20447 H 1854.02 -1.14714 3.80692 0
M  V30 20448 N 1855.02 -1.57465 0.0651956 0
M  V30 20449 C 1856.43 -1.56917 -0.291414 0
M  V30 20450 C 1856.63 -1.07405 -1.70489 0
M  V30 20451 O 1855.69 -0.736958 -2.41506 0
M  V30 20452 C 1857 -3.00509 -0.107088 0
M  V30 20453 C 1858.55 -3.12498 -0.177127 0
M  V30 20454 C 1859.02 -4.57995 -0.0211616 0
M  V30 20455 N 1860.51 -4.63136 -0.0769824 0
M  V30 20456 C 1861.25 -5.73397 0.0193783 0
M  V30 20457 N 1860.75 -6.92594 0.168885 0
M  V30 20458 N 1862.54 -5.62088 -0.0372133 0
M  V30 20459 H 1854.69 -1.87966 0.989061 0
M  V30 20460 H 1856.95 -0.866234 0.385154 0
M  V30 20461 H 1856.66 -3.4082 0.868005 0
M  V30 20462 H 1856.53 -3.67214 -0.86221 0
M  V30 20463 H 1858.92 -2.72078 -1.1427 0
M  V30 20464 H 1859 -2.48445 0.608986 0
M  V30 20465 H 1858.64 -4.99104 0.941151 0
M  V30 20466 H 1858.57 -5.20072 -0.826597 0
M  V30 20467 H 1861.07 -3.77416 -0.191213 0
M  V30 20468 H 1861.38 -7.72443 0.234737 0
M  V30 20469 H 1859.72 -6.947 0.204159 0
M  V30 20470 H 1862.91 -4.67851 -0.152669 0
M  V30 20471 H 1863.09 -6.47987 0.0413392 0
M  V30 20472 N 1856.49 0.20831 -1.56217 0
M  V30 20473 C 1857.44 1.26199 -1.89889 0
M  V30 20474 C 1858.43 1.41646 -0.763239 0
M  V30 20475 O 1859.62 1.44238 -1.02588 0
M  V30 20476 C 1856.75 2.60964 -2.23053 0
M  V30 20477 C 1855.83 2.49364 -3.43043 0
M  V30 20478 N 1856.23 2.07429 -4.6131 0
M  V30 20479 C 1854.52 2.80291 -3.4692 0
M  V30 20480 C 1855.22 2.07401 -5.4347 0
M  V30 20481 N 1854.2 2.48398 -4.83528 0
M  V30 20482 H 1858 0.928874 -2.78835 0
M  V30 20483 H 1855.52 0.416815 -1.5696 0
M  V30 20484 H 1857.51 3.37055 -2.45356 0
M  V30 20485 H 1856.17 2.9511 -1.35426 0
M  V30 20486 H 1857.18 1.78348 -4.86223 0
M  V30 20487 H 1853.86 3.1872 -2.69673 0
M  V30 20488 H 1855.25 1.76991 -6.4817 0
M  V30 20489 N 1857.97 1.50255 0.475528 0
M  V30 20490 C 1859.39 1.37582 0.808907 0
M  V30 20491 C 1859.59 0.428494 1.96891 0
M  V30 20492 O 1858.64 -0.130513 2.52162 0
M  V30 20493 C 1859.96 2.78856 1.12515 0
M  V30 20494 C 1861.5 2.8774 1.23186 0
M  V30 20495 C 1861.98 4.29838 1.58126 0
M  V30 20496 N 1863.47 4.32767 1.65126 0
M  V30 20497 C 1864.21 5.39708 1.93656 0
M  V30 20498 N 1863.7 6.56862 2.20237 0
M  V30 20499 N 1865.49 5.27147 1.95121 0
M  V30 20500 H 1857.65 2.10425 -0.28901 0
M  V30 20501 H 1859.91 0.945646 -0.0667713 0
M  V30 20502 H 1859.61 3.49995 0.345892 0
M  V30 20503 H 1859.49 3.15822 2.06244 0
M  V30 20504 H 1861.88 2.16823 2.0018 0
M  V30 20505 H 1861.96 2.54323 0.274475 0
M  V30 20506 H 1861.6 5.0129 0.816737 0
M  V30 20507 H 1861.53 4.60737 2.55007 0
M  V30 20508 H 1864.02 3.48288 1.46642 0
M  V30 20509 H 1864.33 7.34173 2.41268 0
M  V30 20510 H 1862.68 6.60044 2.17639 0
M  V30 20511 H 1865.87 4.3462 1.73849 0
M  V30 20512 H 1866.04 6.10578 2.17021 0
M  V30 20513 N 1859.45 -0.728395 1.39758 0
M  V30 20514 C 1860.4 -1.84245 1.39005 0
M  V30 20515 C 1861.37 -1.64226 0.248783 0
M  V30 20516 O 1862.55 -1.8554 0.444904 0
M  V30 20517 C 1859.69 -3.21828 1.24583 0
M  V30 20518 C 1858.8 -3.53507 2.48308 0
M  V30 20519 C 1857.94 -4.80526 2.26425 0
M  V30 20520 C 1856.98 -5.05069 3.45792 0
M  V30 20521 N 1856.12 -6.23295 3.23184 0
M  V30 20522 H 1860.96 -1.84224 2.34234 0
M  V30 20523 H 1858.49 -0.900094 1.16347 0
M  V30 20524 H 1860.45 -4.01257 1.14231 0
M  V30 20525 H 1859.08 -3.21111 0.329793 0
M  V30 20526 H 1858.13 -2.68729 2.69238 0
M  V30 20527 H 1859.44 -3.67558 3.37198 0
M  V30 20528 H 1858.6 -5.67949 2.13353 0
M  V30 20529 H 1857.34 -4.6866 1.3494 0
M  V30 20530 H 1856.34 -4.16106 3.59355 0
M  V30 20531 H 1857.57 -5.18815 4.38186 0
M  V30 20532 H 1855.51 -6.12704 2.3437 0
M  V30 20533 H 1855.43 -6.37964 4.05633 0
M  V30 20534 H 1856.7 -7.13539 3.13819 0
M  V30 20535 N 1860.93 -1.25042 -0.959279 0
M  V30 20536 C 1861.88 -1.04802 -2.07652 0
M  V30 20537 C 1862.87 0.019648 -1.69389 0
M  V30 20538 O 1864.08 -0.135594 -1.79489 0
M  V30 20539 H 1860.45 -0.321939 -0.679602 0
M  V30 20540 H 1862.42 -1.99527 -2.21882 0
M  V30 20541 C 1861.17 -0.678505 -3.41016 0
M  V30 20542 H 1860.49 -1.49185 -3.70923 0
M  V30 20543 H 1861.93 -0.576549 -4.20062 0
M  V30 20544 C 1860.39 0.615075 -3.31238 0
M  V30 20545 O 1860.92 1.65848 -3.65865 0
M  V30 20546 N 1859.13 0.598958 -2.8436 0
M  V30 20547 H 1858.68 -0.250509 -2.56379 0
M  V30 20548 H 1858.63 1.46464 -2.78201 0
M  V30 20549 N 1862.41 1.16121 -1.06553 0
M  V30 20550 C 1863.82 1.38705 -0.789497 0
M  V30 20551 C 1864.02 1.92046 0.609975 0
M  V30 20552 O 1863.08 2.12096 1.37009 0
M  V30 20553 C 1864.39 2.36541 -1.85658 0
M  V30 20554 C 1865.94 2.5022 -1.88039 0
M  V30 20555 C 1866.41 3.51341 -2.93809 0
M  V30 20556 N 1867.91 3.5887 -2.92859 0
M  V30 20557 C 1868.64 4.3691 -3.71346 0
M  V30 20558 N 1868.14 5.1835 -4.59657 0
M  V30 20559 N 1869.93 4.31918 -3.59726 0
M  V30 20560 H 1862.08 0.798355 -1.96825 0
M  V30 20561 H 1864.34 0.41349 -0.853071 0
M  V30 20562 H 1864.05 2.04447 -2.86172 0
M  V30 20563 H 1863.92 3.36221 -1.70983 0
M  V30 20564 H 1866.31 2.81617 -0.881822 0
M  V30 20565 H 1866.39 1.50567 -2.06793 0
M  V30 20566 H 1866.04 3.20681 -3.93861 0
M  V30 20567 H 1865.97 4.50731 -2.72304 0
M  V30 20568 H 1868.46 3.00735 -2.28838 0
M  V30 20569 H 1868.77 5.75119 -5.16196 0
M  V30 20570 H 1867.11 5.17684 -4.63711 0
M  V30 20571 H 1870.31 3.67355 -2.90117 0
M  V30 20572 H 1870.48 4.92491 -4.21137 0
M  V30 20573 N 1863.88 0.848487 1.3281 0
M  V30 20574 C 1864.79 0.291355 2.32784 0
M  V30 20575 C 1865.81 -0.587621 1.63777 0
M  V30 20576 O 1866.99 -0.489458 1.95362 0
M  V30 20577 C 1864.05 -0.51634 3.42834 0
M  V30 20578 C 1863.11 0.388046 4.27543 0
M  V30 20579 C 1862.35 -0.381197 5.32337 0
M  V30 20580 O 1862.57 -1.61186 5.47152 0
M  V30 20581 O 1861.5 0.2498 6.01381 0
M  V30 20582 H 1865.33 1.11947 2.82315 0
M  V30 20583 H 1862.91 0.611259 1.36323 0
M  V30 20584 H 1864.8 -0.974995 4.09966 0
M  V30 20585 H 1863.47 -1.32136 2.95503 0
M  V30 20586 H 1862.38 0.894745 3.63243 0
M  V30 20587 H 1863.71 1.15808 4.78382 0
M  V30 20588 N 1865.36 -1.4549 0.605832 0
M  V30 20589 C 1866.59 -2.06625 0.106651 0
M  V30 20590 C 1867.01 -1.45077 -1.20822 0
M  V30 20591 O 1866.36 -0.564316 -1.73556 0
M  V30 20592 C 1866.41 -3.61476 -0.0413179 0
M  V30 20593 O 1866.13 -4.20726 1.22153 0
M  V30 20594 C 1867.64 -4.39592 -0.572162 0
M  V30 20595 H 1864.86 -0.667542 0.0680365 0
M  V30 20596 H 1867.4 -1.86763 0.833067 0
M  V30 20597 H 1865.55 -3.80687 -0.718053 0
M  V30 20598 H 1865.97 -5.13881 1.05009 0
M  V30 20599 H 1867.44 -5.48453 -0.624791 0
M  V30 20600 H 1867.92 -4.09251 -1.59407 0
M  V30 20601 H 1868.53 -4.25242 0.0704697 0
M  V30 20602 N 1866.84 -0.344893 -1.5378 0
M  V30 20603 C 1867.8 0.498781 -2.23707 0
M  V30 20604 C 1868.8 1.02649 -1.23773 0
M  V30 20605 O 1869.99 0.915526 -1.48202 0
M  V30 20606 C 1867.13 1.69497 -2.95776 0
M  V30 20607 H 1868.32 -0.112815 -2.99688 0
M  V30 20608 H 1865.87 -0.0962613 -1.56003 0
M  V30 20609 H 1866.61 2.34522 -2.23986 0
M  V30 20610 H 1866.39 1.32376 -3.69079 0
M  V30 20611 H 1867.88 2.29334 -3.48992 0
M  V30 20612 N 1868.32 1.57428 -0.0735454 0
M  V30 20613 C 1869.54 1.98301 0.607591 0
M  V30 20614 C 1869.97 0.951686 1.62248 0
M  V30 20615 O 1869.33 -0.0825008 1.81112 0
M  V30 20616 C 1869.37 3.38201 1.2511 0
M  V30 20617 O 1868.48 3.37711 2.36696 0
M  V30 20618 H 1867.82 0.64539 0.156104 0
M  V30 20619 H 1870.35 2.0406 -0.148578 0
M  V30 20620 H 1870.36 3.75424 1.59753 0
M  V30 20621 H 1869.03 4.12793 0.50745 0
M  V30 20622 H 1867.61 3.1226 2.03833 0
M  V30 20623 N 1869.8 -0.200022 1.56326 0
M  V30 20624 C 1870.71 -1.26847 1.9735 0
M  V30 20625 C 1871.72 -1.50081 0.880432 0
M  V30 20626 O 1872.9 -1.62792 1.18578 0
M  V30 20627 C 1869.96 -2.59382 2.30048 0
M  V30 20628 C 1869.02 -2.44262 3.53036 0
M  V30 20629 C 1868.26 -3.70476 3.84165 0
M  V30 20630 O 1868.48 -4.74433 3.16654 0
M  V30 20631 O 1867.41 -3.663 4.77606 0
M  V30 20632 H 1871.24 -0.950324 2.88449 0
M  V30 20633 H 1868.83 -0.404628 1.43816 0
M  V30 20634 H 1870.71 -3.37616 2.52177 0
M  V30 20635 H 1869.38 -2.90833 1.42119 0
M  V30 20636 H 1868.29 -1.64154 3.36161 0
M  V30 20637 H 1869.62 -2.17744 4.41416 0
M  V30 20638 N 1871.27 -1.50505 -0.467553 0
M  V30 20639 C 1872.2 -1.72558 -1.57309 0
M  V30 20640 C 1873.19 -0.574619 -1.601 0
M  V30 20641 O 1874.37 -0.814135 -1.76311 0
M  V30 20642 C 1871.5 -1.82296 -2.9561 0
M  V30 20643 C 1870.45 -2.97513 -3.07685 0
M  V30 20644 C 1869.78 -2.92398 -4.47669 0
M  V30 20645 C 1871.08 -4.37968 -2.84573 0
M  V30 20646 H 1872.77 -2.65122 -1.39107 0
M  V30 20647 H 1870.32 -1.2758 -0.667776 0
M  V30 20648 H 1872.27 -1.96308 -3.72882 0
M  V30 20649 H 1871 -0.863562 -3.14976 0
M  V30 20650 H 1869.66 -2.83157 -2.32847 0
M  V30 20651 H 1869.3 -1.94297 -4.63959 0
M  V30 20652 H 1869 -3.69749 -4.56683 0
M  V30 20653 H 1870.53 -3.08464 -5.26956 0
M  V30 20654 H 1871.94 -4.52831 -3.51593 0
M  V30 20655 H 1870.34 -5.16796 -3.05028 0
M  V30 20656 H 1871.41 -4.50093 -1.80402 0
M  V30 20657 N 1872.75 0.720973 -1.40142 0
M  V30 20658 C 1873.68 1.84799 -1.42729 0
M  V30 20659 C 1874.66 1.67629 -0.288866 0
M  V30 20660 O 1875.85 1.8774 -0.496713 0
M  V30 20661 C 1872.98 3.22699 -1.28385 0
M  V30 20662 C 1871.93 3.54532 -2.39773 0
M  V30 20663 C 1871.26 4.91518 -2.10509 0
M  V30 20664 C 1872.56 3.56077 -3.82108 0
M  V30 20665 H 1874.25 1.82892 -2.37046 0
M  V30 20666 H 1871.8 0.8785 -1.14098 0
M  V30 20667 H 1873.75 4.0123 -1.28812 0
M  V30 20668 H 1872.48 3.25169 -0.305408 0
M  V30 20669 H 1871.13 2.78338 -2.38586 0
M  V30 20670 H 1870.78 4.90584 -1.11069 0
M  V30 20671 H 1870.48 5.13783 -2.85132 0
M  V30 20672 H 1872.01 5.72389 -2.1261 0
M  V30 20673 H 1873.42 4.24657 -3.85148 0
M  V30 20674 H 1871.82 3.89866 -4.56207 0
M  V30 20675 H 1872.89 2.55576 -4.12079 0
M  V30 20676 N 1874.23 1.25549 0.952634 0
M  V30 20677 C 1875.16 1.0043 2.04912 0
M  V30 20678 C 1876.14 -0.0671275 1.62461 0
M  V30 20679 O 1877.33 0.0729397 1.88359 0
M  V30 20680 C 1874.45 0.51855 3.34707 0
M  V30 20681 C 1873.5 1.58081 3.96122 0
M  V30 20682 S 1874.33 3.16656 4.31844 0
M  V30 20683 C 1875.49 2.69821 5.64754 0
M  V30 20684 H 1875.72 1.93272 2.25905 0
M  V30 20685 H 1873.25 1.09102 1.09253 0
M  V30 20686 H 1875.21 0.244941 4.09769 0
M  V30 20687 H 1873.87 -0.389408 3.11677 0
M  V30 20688 H 1873.07 1.19168 4.89709 0
M  V30 20689 H 1872.67 1.8052 3.27549 0
M  V30 20690 H 1874.96 2.13572 6.42957 0
M  V30 20691 H 1875.9 3.62056 6.0854 0
M  V30 20692 H 1876.31 2.09754 5.24084 0
M  V30 20693 N 1875.71 -1.15554 1.07168 0
M  V30 20694 C 1877.12 -1.38284 0.796841 0
M  V30 20695 C 1877.32 -1.92366 -0.599782 0
M  V30 20696 O 1876.38 -2.1282 -1.35883 0
M  V30 20697 C 1877.69 -2.35553 1.8691 0
M  V30 20698 C 1879.24 -2.4922 1.89364 0
M  V30 20699 C 1879.72 -3.49778 2.95668 0
M  V30 20700 N 1881.21 -3.57312 2.94759 0
M  V30 20701 C 1881.94 -4.34934 3.73657 0
M  V30 20702 N 1881.44 -5.15905 4.624 0
M  V30 20703 N 1883.23 -4.30004 3.62012 0
M  V30 20704 H 1875.38 -0.787905 1.97246 0
M  V30 20705 H 1877.65 -0.40896 0.855252 0
M  V30 20706 H 1877.35 -2.02927 2.87252 0
M  V30 20707 H 1877.23 -3.3531 1.72763 0
M  V30 20708 H 1879.61 -2.81145 0.896745 0
M  V30 20709 H 1879.69 -1.49468 2.07589 0
M  V30 20710 H 1879.34 -3.18588 3.95556 0
M  V30 20711 H 1879.27 -4.4928 2.74691 0
M  V30 20712 H 1881.76 -2.99518 2.30429 0
M  V30 20713 H 1882.07 -5.72373 5.19238 0
M  V30 20714 H 1880.42 -5.15218 4.6645 0
M  V30 20715 H 1883.61 -3.65811 2.92061 0
M  V30 20716 H 1883.78 -4.90251 4.23743 0
M  V30 20717 N 1877.19 -0.855519 -1.32358 0
M  V30 20718 C 1878.12 -0.316159 -2.3135 0
M  V30 20719 C 1879.1 0.585159 -1.59718 0
M  V30 20720 O 1880.28 0.505221 -1.87513 0
M  V30 20721 C 1877.41 0.495577 -3.43746 0
M  V30 20722 C 1876.37 -0.311382 -4.26866 0
M  V30 20723 C 1875.69 0.625144 -5.31033 0
M  V30 20724 C 1876.99 -1.5376 -4.99154 0
M  V30 20725 H 1878.69 -1.14331 -2.7671 0
M  V30 20726 H 1876.23 -0.551221 -1.33032 0
M  V30 20727 H 1878.19 0.883325 -4.12038 0
M  V30 20728 H 1876.91 1.3561 -2.97115 0
M  V30 20729 H 1875.57 -0.680895 -3.60221 0
M  V30 20730 H 1875.22 1.48254 -4.80656 0
M  V30 20731 H 1874.92 0.0892112 -5.87532 0
M  V30 20732 H 1876.44 1.01005 -6.02188 0
M  V30 20733 H 1877.86 -1.2221 -5.60123 0
M  V30 20734 H 1876.25 -2.01153 -5.65382 0
M  V30 20735 H 1877.32 -2.29838 -4.26969 0
M  V30 20736 N 1878.67 1.45167 -0.61354 0
M  V30 20737 C 1879.61 2.30575 0.101811 0
M  V30 20738 C 1880.58 1.42455 0.85416 0
M  V30 20739 O 1881.77 1.71378 0.838711 0
M  V30 20740 C 1878.91 3.27459 1.08926 0
M  V30 20741 C 1878.02 4.30682 0.337164 0
M  V30 20742 C 1877.16 5.1467 1.31486 0
M  V30 20743 C 1876.19 6.09616 0.550918 0
M  V30 20744 N 1875.33 6.86363 1.4782 0
M  V30 20745 H 1880.17 2.9121 -0.632495 0
M  V30 20746 H 1877.71 1.43494 -0.323705 0
M  V30 20747 H 1879.67 3.82101 1.67495 0
M  V30 20748 H 1878.3 2.68564 1.79091 0
M  V30 20749 H 1877.35 3.78653 -0.364144 0
M  V30 20750 H 1878.66 4.98129 -0.258629 0
M  V30 20751 H 1877.81 5.73742 1.97243 0
M  V30 20752 H 1876.55 4.47255 1.94458 0
M  V30 20753 H 1875.56 5.49668 -0.120251 0
M  V30 20754 H 1876.78 6.7906 -0.07384 0
M  V30 20755 H 1874.73 6.21632 2.09545 0
M  V30 20756 H 1874.65 7.50183 0.935989 0
M  V30 20757 H 1875.91 7.49972 2.12516 0
M  V30 20758 N 1880.14 0.353044 1.53595 0
M  V30 20759 C 1881.42 -0.296304 1.93343 0
M  V30 20760 C 1881.8 -1.67448 1.28548 0
M  V30 20761 O 1881.15 -2.24226 0.4399 0
M  V30 20762 C 1881.36 -0.359079 3.47148 0
M  V30 20763 C 1882.71 -0.605406 4.20262 0
M  V30 20764 O 1883.73 -0.440805 3.53462 0
M  V30 20765 O 1882.59 -0.92496 5.38616 0
M  V30 20766 H 1879.68 -0.174879 0.808298 0
M  V30 20767 H 1882.23 0.404914 1.64798 0
M  V30 20768 H 1881 0.607684 3.86553 0
M  V30 20769 H 1880.62 -1.1067 3.81887 0
M  V30 20770 N 1881.62 -1.57387 0.0818932 0
M  V30 20771 C 1882.57 -2.14508 -0.899386 0
M  V30 20772 C 1883.56 -1.08453 -1.30132 0
M  V30 20773 O 1884.77 -1.26818 -1.27739 0
M  V30 20774 H 1881.14 -0.686024 -0.308018 0
M  V30 20775 H 1883.12 -2.95804 -0.392786 0
M  V30 20776 C 1881.86 -2.72963 -2.15375 0
M  V30 20777 H 1881.19 -3.54248 -1.85333 0
M  V30 20778 H 1882.63 -3.16515 -2.82125 0
M  V30 20779 C 1881.09 -1.68212 -2.91901 0
M  V30 20780 O 1881.62 -1.11314 -3.85969 0
M  V30 20781 N 1879.82 -1.3901 -2.55195 0
M  V30 20782 H 1879.37 -1.85468 -1.78771 0
M  V30 20783 H 1879.33 -0.691582 -3.06699 0
M  V30 20784 N 1883.1 0.191729 -1.56429 0
M  V30 20785 C 1884.52 0.542701 -1.5009 0
M  V30 20786 C 1884.72 1.85685 -0.782522 0
M  V30 20787 O 1883.77 2.50275 -0.334432 0
M  V30 20788 C 1885.08 0.594326 -2.94768 0
M  V30 20789 C 1886.63 0.682929 -3.05459 0
M  V30 20790 C 1887.11 0.765634 -4.51555 0
M  V30 20791 N 1888.6 0.829072 -4.5572 0
M  V30 20792 C 1889.33 0.91329 -5.6608 0
M  V30 20793 N 1888.83 0.959603 -6.86122 0
M  V30 20794 N 1890.62 0.950739 -5.54001 0
M  V30 20795 H 1882.77 -0.670241 -2.01548 0
M  V30 20796 H 1885.04 -0.239168 -0.917335 0
M  V30 20797 H 1884.74 -0.302238 -3.50399 0
M  V30 20798 H 1884.62 1.44787 -3.48305 0
M  V30 20799 H 1887 1.56992 -2.49875 0
M  V30 20800 H 1887.08 -0.19688 -2.55041 0
M  V30 20801 H 1886.73 -0.117022 -5.07765 0
M  V30 20802 H 1886.66 1.66129 -4.99709 0
M  V30 20803 H 1889.15 0.802391 -3.69283 0
M  V30 20804 H 1889.46 1.02447 -7.65979 0
M  V30 20805 H 1887.81 0.928223 -6.88774 0
M  V30 20806 H 1891 0.911418 -4.59141 0
M  V30 20807 H 1891.17 1.01291 -6.40034 0
M  V30 20808 N 1884.58 1.50751 0.459565 0
M  V30 20809 C 1885.85 1.5284 1.22062 0
M  V30 20810 C 1886.23 0.279716 2.09239 0
M  V30 20811 O 1885.58 -0.73634 2.16311 0
M  V30 20812 C 1885.79 2.83046 2.04171 0
M  V30 20813 C 1887.14 3.34151 2.6197 0
M  V30 20814 O 1888.16 2.84446 2.14403 0
M  V30 20815 O 1887.02 4.20824 3.48668 0
M  V30 20816 H 1884.12 0.613549 0.554515 0
M  V30 20817 H 1886.66 1.63049 0.470445 0
M  V30 20818 H 1885.44 3.65397 1.40004 0
M  V30 20819 H 1885.06 2.75896 2.86299 0
M  V30 20820 N 1886.06 -0.713531 1.40522 0
M  V30 20821 C 1886.99 -1.8404 1.43707 0
M  V30 20822 C 1887.97 -1.67474 0.297751 0
M  V30 20823 O 1889.15 -1.87474 0.506662 0
M  V30 20824 C 1886.28 -3.22014 1.30094 0
M  V30 20825 C 1885.24 -3.53255 2.4165 0
M  V30 20826 C 1884.56 -4.90395 2.13113 0
M  V30 20827 C 1885.86 -3.54045 3.83991 0
M  V30 20828 H 1887.56 -1.81632 2.38013 0
M  V30 20829 H 1885.1 -0.872437 1.14562 0
M  V30 20830 H 1887.05 -4.00541 1.30938 0
M  V30 20831 H 1885.78 -3.25002 0.322648 0
M  V30 20832 H 1884.44 -2.77069 2.40059 0
M  V30 20833 H 1884.09 -4.89988 1.13669 0
M  V30 20834 H 1883.79 -5.12264 2.87853 0
M  V30 20835 H 1885.31 -5.71254 2.15642 0
M  V30 20836 H 1886.72 -4.22609 3.87395 0
M  V30 20837 H 1885.12 -3.87441 4.58268 0
M  V30 20838 H 1886.19 -2.53387 4.13428 0
M  V30 20839 N 1887.53 -1.26053 -0.945962 0
M  V30 20840 C 1888.47 -1.02985 -2.0476 0
M  V30 20841 C 1889.48 0.00812739 -1.62798 0
M  V30 20842 O 1890.67 -0.231411 -1.76994 0
M  V30 20843 C 1887.77 -0.536609 -3.34625 0
M  V30 20844 C 1886.94 -1.64273 -4.0538 0
M  V30 20845 C 1886 -1.14836 -5.13516 0
M  V30 20846 O 1885.03 -1.84449 -5.38486 0
M  V30 20847 N 1886.23 0.00576017 -5.805 0
M  V30 20848 H 1888.99 -1.97845 -2.25117 0
M  V30 20849 H 1886.55 -1.17375 -1.11512 0
M  V30 20850 H 1888.55 -0.19017 -4.04253 0
M  V30 20851 H 1887.12 0.318275 -3.10976 0
M  V30 20852 H 1886.34 -2.16034 -3.29732 0
M  V30 20853 H 1887.62 -2.3856 -4.49407 0
M  V30 20854 H 1887.02 0.587225 -5.62644 0
M  V30 20855 H 1885.58 0.293161 -6.5114 0
M  V30 20856 N 1889.01 1.14984 -1.07779 0
M  V30 20857 C 1889.96 2.19864 -0.702018 0
M  V30 20858 C 1890.93 1.63206 0.308695 0
M  V30 20859 O 1892.11 1.8981 0.194157 0
M  V30 20860 C 1889.25 3.44923 -0.110634 0
M  V30 20861 C 1888.37 4.1576 -1.17335 0
M  V30 20862 C 1887.5 5.28381 -0.546508 0
M  V30 20863 C 1886.54 5.91042 -1.59171 0
M  V30 20864 N 1885.68 6.95126 -0.987129 0
M  V30 20865 H 1890.52 2.51358 -1.60073 0
M  V30 20866 H 1888.05 1.2344 -0.80006 0
M  V30 20867 H 1890.01 4.16451 0.249903 0
M  V30 20868 H 1888.64 3.13932 0.751416 0
M  V30 20869 H 1887.69 3.42685 -1.6514 0
M  V30 20870 H 1889.01 4.58436 -1.96566 0
M  V30 20871 H 1888.16 6.06552 -0.133852 0
M  V30 20872 H 1886.9 4.8691 0.277527 0
M  V30 20873 H 1885.9 5.1158 -2.01409 0
M  V30 20874 H 1887.13 6.3459 -2.4181 0
M  V30 20875 H 1885.08 6.55742 -0.184076 0
M  V30 20876 H 1884.99 7.36253 -1.71662 0
M  V30 20877 H 1886.26 7.77186 -0.60012 0
M  V30 20878 N 1890.49 0.862526 1.31902 0
M  V30 20879 C 1891.74 0.469775 1.96976 0
M  V30 20880 C 1892.06 -0.976339 1.6822 0
M  V30 20881 O 1891.32 -1.70131 0.967153 0
M  V30 20882 C 1891.62 0.664872 3.51161 0
M  V30 20883 C 1891.28 2.08264 3.99921 0
M  V30 20884 C 1889.95 2.47039 4.12947 0
M  V30 20885 C 1892.3 3.00762 4.25666 0
M  V30 20886 C 1889.63 3.77568 4.49065 0
M  V30 20887 C 1891.98 4.30797 4.63245 0
M  V30 20888 C 1890.64 4.69496 4.74478 0
M  V30 20889 H 1889.91 0.171903 0.720785 0
M  V30 20890 H 1892.56 1.09409 1.57169 0
M  V30 20891 H 1890.86 -0.0426255 3.91777 0
M  V30 20892 H 1892.56 0.340921 3.99548 0
M  V30 20893 H 1889.15 1.77158 3.90273 0
M  V30 20894 H 1893.34 2.72034 4.15104 0
M  V30 20895 H 1888.59 4.07323 4.55958 0
M  V30 20896 H 1892.77 5.02527 4.8212 0
M  V30 20897 H 1890.39 5.70682 5.02221 0
M  V30 20898 N 1891.97 -1.4484 0.62123 0
M  V30 20899 C 1892.9 -2.33374 -0.0766286 0
M  V30 20900 C 1893.88 -1.47631 -0.844932 0
M  V30 20901 O 1895.06 -1.76373 -0.81278 0
M  V30 20902 C 1892.19 -3.30552 -1.0655 0
M  V30 20903 C 1891.15 -4.26037 -0.409496 0
M  V30 20904 C 1890.47 -5.13007 -1.50757 0
M  V30 20905 C 1891.77 -5.17881 0.677994 0
M  V30 20906 H 1893.47 -2.91975 0.662658 0
M  V30 20907 H 1891.01 -1.40397 0.320117 0
M  V30 20908 H 1892.97 -3.91367 -1.56237 0
M  V30 20909 H 1891.69 -2.70139 -1.83555 0
M  V30 20910 H 1890.35 -3.66539 0.0666321 0
M  V30 20911 H 1890 -4.48954 -2.26825 0
M  V30 20912 H 1889.7 -5.777 -1.07407 0
M  V30 20913 H 1891.22 -5.76692 -2.00645 0
M  V30 20914 H 1892.64 -5.72689 0.264637 0
M  V30 20915 H 1891.03 -5.91124 1.03405 0
M  V30 20916 H 1892.1 -4.59488 1.54914 0
M  V30 20917 N 1893.45 -0.361184 -1.53405 0
M  V30 20918 C 1894.38 0.522004 -2.23177 0
M  V30 20919 C 1895.39 1.04974 -1.24436 0
M  V30 20920 O 1896.58 0.956873 -1.50686 0
M  V30 20921 C 1893.68 1.733 -2.91239 0
M  V30 20922 C 1892.85 1.33752 -4.16448 0
M  V30 20923 C 1891.91 2.4101 -4.67761 0
M  V30 20924 O 1890.94 2.03583 -5.31547 0
M  V30 20925 N 1892.14 3.72531 -4.45198 0
M  V30 20926 H 1894.91 -0.0756154 -2.99605 0
M  V30 20927 H 1892.47 -0.18615 -1.60826 0
M  V30 20928 H 1894.46 2.44522 -3.22477 0
M  V30 20929 H 1893.03 2.23759 -2.18291 0
M  V30 20930 H 1892.25 0.455335 -3.91561 0
M  V30 20931 H 1893.54 1.04953 -4.97858 0
M  V30 20932 H 1892.93 4.05716 -3.94222 0
M  V30 20933 H 1891.49 4.3987 -4.80997 0
M  V30 20934 N 1894.92 1.57341 -0.0902386 0
M  V30 20935 C 1896.2 1.85627 0.616611 0
M  V30 20936 C 1896.58 0.986193 1.86648 0
M  V30 20937 O 1895.93 0.0573148 2.28428 0
M  V30 20938 C 1896.14 3.36196 0.936645 0
M  V30 20939 C 1897.49 4.04139 1.30219 0
M  V30 20940 O 1898.51 3.41049 1.02781 0
M  V30 20941 O 1897.37 5.1545 1.81586 0
M  V30 20942 H 1894.46 0.76748 0.308065 0
M  V30 20943 H 1897.01 1.69257 -0.122568 0
M  V30 20944 H 1895.78 3.91268 0.0497354 0
M  V30 20945 H 1895.41 3.57895 1.73197 0
M  V30 20946 N 1896.4 -0.183431 1.56529 0
M  V30 20947 C 1897.64 -0.908628 1.83094 0
M  V30 20948 C 1898.01 -1.79952 0.669429 0
M  V30 20949 O 1899.21 -2.56139 0.81524 0
M  V30 20950 C 1897.48 -1.69353 3.14729 0
M  V30 20951 S 1899.04 -2.46915 3.62737 0
M  V30 20952 H 1895.86 -0.304549 0.642472 0
M  V30 20953 H 1898.46 -0.171145 1.94749 0
M  V30 20954 H 1897.16 -1.02987 3.97268 0
M  V30 20955 H 1896.69 -2.47261 3.05983 0
M  V30 20956 H 1898.71 -3.71359 3.29101 0
M  V30 20957 N 1897.88 -1.50992 -0.451564 0
M  V30 20958 C 1898.81 -1.67453 -1.56499 0
M  V30 20959 C 1899.83 -0.555481 -1.5303 0
M  V30 20960 O 1901.01 -0.829335 -1.58064 0
M  V30 20961 C 1898.11 -1.66093 -2.95409 0
M  V30 20962 C 1897.29 -2.94351 -3.23537 0
M  V30 20963 C 1896.35 -2.8537 -4.42098 0
M  V30 20964 O 1895.37 -3.59323 -4.41447 0
M  V30 20965 N 1896.57 -2.0025 -5.44867 0
M  V30 20966 H 1899.34 -2.63499 -1.42788 0
M  V30 20967 H 1896.9 -1.48701 -0.640293 0
M  V30 20968 H 1898.89 -1.57672 -3.72722 0
M  V30 20969 H 1897.46 -0.777014 -3.02789 0
M  V30 20970 H 1896.68 -3.16751 -2.34654 0
M  V30 20971 H 1897.97 -3.79281 -3.39151 0
M  V30 20972 H 1897.37 -1.39517 -5.48226 0
M  V30 20973 H 1895.93 -1.97719 -6.21088 0
M  V30 20974 N 1899.36 0.706069 -1.40899 0
M  V30 20975 C 1900.27 1.85007 -1.44255 0
M  V30 20976 C 1901.28 1.70761 -0.334174 0
M  V30 20977 O 1902.46 1.9286 -0.580258 0
M  V30 20978 C 1899.53 3.20896 -1.31251 0
M  V30 20979 C 1898.59 3.47327 -2.52314 0
M  V30 20980 C 1897.82 4.76732 -2.39922 0
M  V30 20981 O 1898.04 5.5249 -1.41813 0
M  V30 20982 O 1896.98 5.03713 -3.2948 0
M  V30 20983 H 1900.8 1.85132 -2.40748 0
M  V30 20984 H 1898.39 0.857751 -1.22323 0
M  V30 20985 H 1900.27 4.02045 -1.26244 0
M  V30 20986 H 1898.94 3.21477 -0.378684 0
M  V30 20987 H 1897.85 2.66149 -2.62899 0
M  V30 20988 H 1899.18 3.5155 -3.4449 0
M  V30 20989 N 1900.84 1.26553 0.939264 0
M  V30 20990 C 1901.77 1.10778 2.05549 0
M  V30 20991 C 1902.75 0.0124359 1.70095 0
M  V30 20992 O 1903.93 0.184814 1.93319 0
M  V30 20993 C 1901.06 0.742011 3.39281 0
M  V30 20994 C 1900.02 1.78931 3.88803 0
M  V30 20995 C 1899.34 1.2778 5.19207 0
M  V30 20996 C 1900.64 3.1912 4.13473 0
M  V30 20997 H 1902.34 2.04151 2.19004 0
M  V30 20998 H 1899.88 0.98294 1.05234 0
M  V30 20999 H 1901.84 0.618526 4.16836 0
M  V30 21000 H 1900.56 -0.22742 3.25807 0
M  V30 21001 H 1899.22 1.9015 3.13431 0
M  V30 21002 H 1898.87 0.298159 5.02116 0
M  V30 21003 H 1898.57 1.9779 5.53311 0
M  V30 21004 H 1900.09 1.16703 5.99344 0
M  V30 21005 H 1901.5 3.10967 4.81635 0
M  V30 21006 H 1899.9 3.86738 4.58862 0
M  V30 21007 H 1900.97 3.65034 3.19183 0
M  V30 21008 N 1902.31 -1.14411 1.08387 0
M  V30 21009 C 1903.54 -1.89848 0.835015 0
M  V30 21010 C 1903.96 -1.78034 -0.607091 0
M  V30 21011 O 1903.32 -1.12039 -1.42538 0
M  V30 21012 C 1903.37 -3.37818 1.26141 0
M  V30 21013 O 1902.47 -4.10325 0.41322 0
M  V30 21014 H 1901.82 -0.590682 0.303299 0
M  V30 21015 H 1904.35 -1.44823 1.44525 0
M  V30 21016 H 1904.36 -3.88631 1.24218 0
M  V30 21017 H 1903.03 -3.45735 2.31172 0
M  V30 21018 H 1901.61 -3.69589 0.495854 0
M  V30 21019 N 1903.79 -0.869509 -1.31443 0
M  V30 21020 C 1904.72 -0.340679 -2.31001 0
M  V30 21021 C 1905.7 0.568186 -1.6033 0
M  V30 21022 O 1906.89 0.485305 -1.88038 0
M  V30 21023 C 1904.02 0.45909 -3.44252 0
M  V30 21024 C 1902.97 -0.356639 -4.26512 0
M  V30 21025 C 1902.3 0.568786 -5.31666 0
M  V30 21026 C 1903.6 -1.59045 -4.97496 0
M  V30 21027 H 1905.29 -1.1726 -2.75482 0
M  V30 21028 H 1902.84 -0.5653 -1.3244 0
M  V30 21029 H 1904.79 0.839573 -4.12952 0
M  V30 21030 H 1903.52 1.32451 -2.98537 0
M  V30 21031 H 1902.17 -0.719063 -3.59479 0
M  V30 21032 H 1901.82 1.43148 -4.82201 0
M  V30 21033 H 1901.52 0.0268906 -5.87594 0
M  V30 21034 H 1903.05 0.946122 -6.03225 0
M  V30 21035 H 1904.46 -1.28144 -5.58795 0
M  V30 21036 H 1902.86 -2.07139 -5.63217 0
M  V30 21037 H 1903.93 -2.34354 -4.24507 0
M  V30 21038 N 1905.27 1.44508 -0.628902 0
M  V30 21039 C 1906.52 2.02909 -0.141209 0
M  V30 21040 C 1906.87 1.48569 1.2225 0
M  V30 21041 O 1906.16 0.659289 1.799 0
M  V30 21042 C 1906.36 3.57339 -0.0660437 0
M  V30 21043 C 1906.19 4.26661 -1.42092 0
M  V30 21044 C 1904.96 4.63727 -2.00713 0
M  V30 21045 C 1907.16 4.5725 -2.35429 0
M  V30 21046 N 1905.14 5.18006 -3.29459 0
M  V30 21047 C 1906.51 5.12589 -3.48788 0
M  V30 21048 C 1908.56 4.39201 -2.34535 0
M  V30 21049 C 1907.27 5.51779 -4.61446 0
M  V30 21050 C 1909.29 4.79437 -3.46257 0
M  V30 21051 C 1908.65 5.34887 -4.58339 0
M  V30 21052 H 1904.75 0.776142 -0.09554 0
M  V30 21053 H 1907.34 1.76032 -0.83191 0
M  V30 21054 H 1905.51 3.83832 0.593932 0
M  V30 21055 H 1907.24 4.02406 0.430272 0
M  V30 21056 H 1904 4.47972 -1.53682 0
M  V30 21057 H 1904.42 5.49623 -3.95276 0
M  V30 21058 H 1909.06 3.95626 -1.49131 0
M  V30 21059 H 1906.78 5.94309 -5.4756 0
M  V30 21060 H 1910.37 4.67187 -3.46739 0
M  V30 21061 H 1909.25 5.65447 -5.43359 0
M  V30 21062 N 1906.75 0.369315 1.53212 0
M  V30 21063 C 1908 -0.220348 2.00493 0
M  V30 21064 C 1908.31 -1.49561 1.26059 0
M  V30 21065 O 1909.52 -2.1641 1.63947 0
M  V30 21066 C 1907.97 -0.443218 3.5716 0
M  V30 21067 C 1907.58 0.817634 4.40476 0
M  V30 21068 C 1909.33 -0.990333 4.12786 0
M  V30 21069 C 1907.23 0.564143 5.88703 0
M  V30 21070 H 1906.16 -0.0861173 0.749066 0
M  V30 21071 H 1908.81 0.488632 1.76875 0
M  V30 21072 H 1907.2 -1.21355 3.76947 0
M  V30 21073 H 1908.37 1.59105 4.32461 0
M  V30 21074 H 1906.68 1.28824 3.95971 0
M  V30 21075 H 1909.28 -1.19537 5.21167 0
M  V30 21076 H 1909.62 -1.95357 3.67616 0
M  V30 21077 H 1910.16 -0.280073 3.96813 0
M  V30 21078 H 1906.9 1.49782 6.38158 0
M  V30 21079 H 1906.42 -0.170702 5.99557 0
M  V30 21080 H 1908.1 0.191072 6.46718 0
M  V30 21081 N 1908.23 -1.57291 0.0985816 0
M  V30 21082 C 1909.18 -2.1545 -0.876584 0
M  V30 21083 C 1910.17 -1.09827 -1.28974 0
M  V30 21084 O 1911.38 -1.28166 -1.26386 0
M  V30 21085 H 1907.75 -0.689252 -0.300725 0
M  V30 21086 H 1909.72 -2.96204 -0.36139 0
M  V30 21087 C 1908.47 -2.75232 -2.12468 0
M  V30 21088 H 1907.79 -3.56194 -1.81565 0
M  V30 21089 H 1909.23 -3.19489 -2.78752 0
M  V30 21090 C 1907.69 -1.71298 -2.90101 0
M  V30 21091 O 1908.22 -1.15402 -3.84767 0
M  V30 21092 N 1906.43 -1.41709 -2.53706 0
M  V30 21093 H 1905.98 -1.87354 -1.76794 0
M  V30 21094 H 1905.93 -0.724072 -3.05949 0
M  V30 21095 N 1909.71 0.175127 -1.56624 0
M  V30 21096 C 1910.62 1.23691 -1.99343 0
M  V30 21097 C 1911.63 1.48662 -0.904197 0
M  V30 21098 O 1912.81 1.60885 -1.21153 0
M  V30 21099 C 1909.87 2.55689 -2.34145 0
M  V30 21100 C 1908.93 2.38614 -3.56878 0
M  V30 21101 C 1908.17 3.64318 -3.9001 0
M  V30 21102 O 1908.39 4.69335 -3.24162 0
M  V30 21103 O 1907.32 3.58655 -4.83373 0
M  V30 21104 H 1911.15 0.904314 -2.89924 0
M  V30 21105 H 1908.73 0.381697 -1.44442 0
M  V30 21106 H 1910.62 3.33562 -2.57516 0
M  V30 21107 H 1909.29 2.88535 -1.46728 0
M  V30 21108 H 1908.2 1.58786 -3.3873 0
M  V30 21109 H 1909.53 2.10694 -4.44825 0
M  V30 21110 N 1911.18 1.5123 0.44355 0
M  V30 21111 C 1912.13 1.72095 1.53792 0
M  V30 21112 C 1913.1 0.562529 1.56284 0
M  V30 21113 O 1914.29 0.796259 1.73391 0
M  V30 21114 C 1911.43 1.84627 2.9156 0
M  V30 21115 C 1910.54 3.12147 2.98644 0
M  V30 21116 C 1909.67 3.1531 4.27496 0
M  V30 21117 C 1908.71 4.37171 4.28425 0
M  V30 21118 N 1907.85 4.37919 5.48791 0
M  V30 21119 H 1912.69 2.65512 1.35304 0
M  V30 21120 H 1910.23 1.31593 0.657387 0
M  V30 21121 H 1912.18 1.89874 3.71488 0
M  V30 21122 H 1910.81 0.946232 3.0862 0
M  V30 21123 H 1909.87 3.16239 2.11417 0
M  V30 21124 H 1911.18 4.02074 2.95192 0
M  V30 21125 H 1910.33 3.19439 5.15794 0
M  V30 21126 H 1909.07 2.23261 4.33596 0
M  V30 21127 H 1908.08 4.33225 3.38521 0
M  V30 21128 H 1909.3 5.30477 4.23994 0
M  V30 21129 H 1907.25 3.48737 5.55624 0
M  V30 21130 H 1907.16 5.21647 5.47193 0
M  V30 21131 H 1908.43 4.46232 6.39138 0
M  V30 21132 N 1912.66 -0.698586 1.41271 0
M  V30 21133 C 1913.59 -1.82278 1.37295 0
M  V30 21134 C 1914.57 -1.60809 0.240668 0
M  V30 21135 O 1915.76 -1.83598 0.42709 0
M  V30 21136 C 1912.88 -3.18907 1.14087 0
M  V30 21137 C 1911.93 -3.59172 2.29994 0
M  V30 21138 S 1912.76 -3.64327 3.92462 0
M  V30 21139 C 1913.92 -5.03687 3.71551 0
M  V30 21140 H 1914.15 -1.85373 2.32431 0
M  V30 21141 H 1911.68 -0.867008 1.27759 0
M  V30 21142 H 1913.64 -3.97783 1.01383 0
M  V30 21143 H 1912.3 -3.13425 0.20577 0
M  V30 21144 H 1911.5 -4.58421 2.09442 0
M  V30 21145 H 1911.1 -2.87597 2.3909 0
M  V30 21146 H 1913.39 -5.911 3.3107 0
M  V30 21147 H 1914.33 -5.2928 4.70391 0
M  V30 21148 H 1914.74 -4.75083 3.04887 0
M  V30 21149 N 1914.14 -1.27049 -0.93254 0
M  V30 21150 C 1915.07 -1.11867 -2.04959 0
M  V30 21151 C 1916.05 -0.0214563 -1.70086 0
M  V30 21152 O 1917.24 -0.195063 -1.93218 0
M  V30 21153 C 1914.37 -0.759993 -3.38883 0
M  V30 21154 C 1913.32 -1.8099 -3.87849 0
M  V30 21155 C 1912.65 -1.30532 -5.18522 0
M  V30 21156 C 1913.95 -3.21309 -4.11774 0
M  V30 21157 H 1915.64 -2.05309 -2.17918 0
M  V30 21158 H 1913.19 -0.988507 -1.04712 0
M  V30 21159 H 1915.14 -0.640623 -4.16502 0
M  V30 21160 H 1913.86 0.210139 -3.25923 0
M  V30 21161 H 1912.52 -1.91809 -3.12418 0
M  V30 21162 H 1912.17 -0.324784 -5.0195 0
M  V30 21163 H 1911.87 -2.00722 -5.52254 0
M  V30 21164 H 1913.39 -1.19879 -5.98716 0
M  V30 21165 H 1914.81 -3.13517 -4.79979 0
M  V30 21166 H 1913.2 -3.89166 -4.56804 0
M  V30 21167 H 1914.27 -3.66722 -3.17243 0
M  V30 21168 N 1915.62 1.13835 -1.08993 0
M  V30 21169 C 1916.85 1.88861 -0.844923 0
M  V30 21170 C 1917.26 1.78897 0.603444 0
M  V30 21171 O 1916.62 1.15246 1.41508 0
M  V30 21172 C 1916.67 3.38622 -1.26559 0
M  V30 21173 O 1916.39 3.48321 -2.65714 0
M  V30 21174 C 1917.89 4.30629 -1.05232 0
M  V30 21175 H 1915.11 0.598038 -0.304288 0
M  V30 21176 H 1917.65 1.44129 -1.45076 0
M  V30 21177 H 1915.81 3.80954 -0.703737 0
M  V30 21178 H 1916.22 4.41387 -2.83333 0
M  V30 21179 H 1917.7 5.34057 -1.39598 0
M  V30 21180 H 1918.17 4.39199 0.0102308 0
M  V30 21181 H 1918.78 3.9406 -1.5999 0
M  V30 21182 N 1917.1 0.876467 1.3098 0
M  V30 21183 C 1918.06 0.341893 2.26636 0
M  V30 21184 C 1919.06 -0.510816 1.52471 0
M  V30 21185 O 1920.25 -0.31919 1.71251 0
M  V30 21186 C 1917.38 -0.513725 3.37007 0
M  V30 21187 H 1918.57 1.18642 2.75434 0
M  V30 21188 H 1916.13 0.652602 1.42024 0
M  V30 21189 H 1916.86 -1.37919 2.93511 0
M  V30 21190 H 1916.65 0.0969443 3.9198 0
M  V30 21191 H 1918.14 -0.87981 4.08227 0
M  V30 21192 N 1918.57 -1.44173 0.636557 0
M  V30 21193 C 1919.51 -2.28966 -0.103602 0
M  V30 21194 C 1920.52 -1.41586 -0.80357 0
M  V30 21195 O 1921.71 -1.65686 -0.66411 0
M  V30 21196 C 1918.81 -3.18095 -1.16913 0
M  V30 21197 C 1917.98 -4.33921 -0.550607 0
M  V30 21198 C 1917.04 -5.04044 -1.51081 0
M  V30 21199 O 1916.07 -5.59879 -1.02585 0
M  V30 21200 N 1917.27 -5.05999 -2.84509 0
M  V30 21201 H 1920.03 -2.93129 0.624119 0
M  V30 21202 H 1917.59 -1.54679 0.478112 0
M  V30 21203 H 1919.59 -3.61872 -1.81193 0
M  V30 21204 H 1918.16 -2.55645 -1.79902 0
M  V30 21205 H 1917.38 -3.93268 0.27093 0
M  V30 21206 H 1918.66 -5.08663 -0.118116 0
M  V30 21207 H 1918.06 -4.61978 -3.26486 0
M  V30 21208 H 1916.62 -5.53547 -3.44135 0
M  V30 21209 N 1920.05 -0.377435 -1.53014 0
M  V30 21210 C 1921.33 0.265508 -1.9379 0
M  V30 21211 C 1921.71 1.65381 -1.31195 0
M  V30 21212 O 1921.06 2.23497 -0.475517 0
M  V30 21213 C 1921.27 0.303805 -3.47675 0
M  V30 21214 C 1922.61 0.538469 -4.21172 0
M  V30 21215 O 1923.64 0.384517 -3.54118 0
M  V30 21216 O 1922.5 0.839154 -5.40019 0
M  V30 21217 H 1919.59 0.161997 -0.810978 0
M  V30 21218 H 1922.14 -0.431081 -1.64133 0
M  V30 21219 H 1920.91 -0.669104 -3.85537 0
M  V30 21220 H 1920.53 1.0458 -3.836 0
M  V30 21221 N 1921.53 1.57237 -0.106922 0
M  V30 21222 C 1922.46 2.10354 0.884666 0
M  V30 21223 C 1923.44 1.01696 1.26873 0
M  V30 21224 O 1924.63 1.29272 1.3719 0
M  V30 21225 C 1921.75 2.59029 2.18223 0
M  V30 21226 C 1920.8 3.79458 1.94715 0
M  V30 21227 S 1921.63 5.22464 1.17439 0
M  V30 21228 C 1922.79 5.74498 2.48401 0
M  V30 21229 H 1923.02 2.94132 0.432824 0
M  V30 21230 H 1920.55 1.54031 0.106612 0
M  V30 21231 H 1922.51 2.87729 2.92783 0
M  V30 21232 H 1921.17 1.75455 2.60527 0
M  V30 21233 H 1920.37 4.11624 2.9083 0
M  V30 21234 H 1919.97 3.51312 1.2828 0
M  V30 21235 H 1922.26 5.83486 3.44312 0
M  V30 21236 H 1923.2 6.72796 2.20797 0
M  V30 21237 H 1923.61 5.02494 2.57215 0
M  V30 21238 N 1923.01 -0.166818 1.56715 0
M  V30 21239 C 1924.23 -0.902208 1.86748 0
M  V30 21240 C 1924.66 -1.74838 0.693767 0
M  V30 21241 O 1924.02 -1.77749 -0.35708 0
M  V30 21242 C 1924.06 -1.75107 3.1523 0
M  V30 21243 O 1923.17 -2.85319 2.9777 0
M  V30 21244 H 1922.51 -0.252474 0.614128 0
M  V30 21245 H 1925.04 -0.163603 2.03945 0
M  V30 21246 H 1925.05 -2.15009 3.46749 0
M  V30 21247 H 1923.72 -1.12955 4.00267 0
M  V30 21248 H 1922.3 -2.48967 2.77615 0
M  V30 21249 N 1924.49 -1.51463 -0.435524 0
M  V30 21250 C 1925.72 -1.67787 -1.20544 0
M  V30 21251 C 1926.12 -0.375521 -1.85436 0
M  V30 21252 O 1925.47 0.656051 -1.71586 0
M  V30 21253 C 1925.53 -2.73801 -2.32966 0
M  V30 21254 C 1925.19 -4.16346 -1.88427 0
M  V30 21255 C 1926.19 -5.01066 -1.38669 0
M  V30 21256 C 1923.88 -4.62455 -1.96063 0
M  V30 21257 C 1925.87 -6.29955 -0.971368 0
M  V30 21258 C 1923.56 -5.9134 -1.54142 0
M  V30 21259 C 1924.55 -6.74918 -1.04761 0
M  V30 21260 O 1924.24 -8.01393 -0.634352 0
M  V30 21261 H 1923.97 -0.566192 -0.369328 0
M  V30 21262 H 1926.53 -1.98654 -0.522069 0
M  V30 21263 H 1924.76 -2.38253 -3.04586 0
M  V30 21264 H 1926.45 -2.78987 -2.94824 0
M  V30 21265 H 1927.21 -4.66645 -1.32163 0
M  V30 21266 H 1923.09 -3.97523 -2.33445 0
M  V30 21267 H 1926.64 -6.95141 -0.585236 0
M  V30 21268 H 1922.53 -6.25274 -1.60319 0
M  V30 21269 H 1923.3 -8.14964 -0.760039 0
M  V30 21270 N 1925.96 0.691085 -1.4164 0
M  V30 21271 C 1927.24 1.44595 -1.31726 0
M  V30 21272 C 1927.62 2.11033 0.0530624 0
M  V30 21273 O 1926.97 2.02027 1.06759 0
M  V30 21274 C 1927.18 2.46172 -2.47387 0
M  V30 21275 C 1928.53 3.11293 -2.88759 0
M  V30 21276 O 1929.55 2.56497 -2.47159 0
M  V30 21277 O 1928.41 4.10551 -3.60707 0
M  V30 21278 H 1925.5 0.644163 -0.518635 0
M  V30 21279 H 1928.05 0.721184 -1.53613 0
M  V30 21280 H 1926.82 1.95764 -3.3881 0
M  V30 21281 H 1926.45 3.26151 -2.27401 0
M  V30 21282 N 1927.44 1.27542 0.925789 0
M  V30 21283 C 1928.35 1.1225 2.06002 0
M  V30 21284 C 1929.37 0.0520487 1.73922 0
M  V30 21285 O 1930.54 0.258921 1.99729 0
M  V30 21286 C 1927.61 0.773231 3.37967 0
M  V30 21287 C 1926.67 1.92476 3.83733 0
M  V30 21288 C 1925.9 1.59206 5.09401 0
M  V30 21289 O 1926.13 0.500836 5.68197 0
M  V30 21290 O 1925.06 2.43185 5.50586 0
M  V30 21291 H 1928.89 2.07439 2.21817 0
M  V30 21292 H 1926.47 1.06747 1.04525 0
M  V30 21293 H 1928.35 0.591863 4.17223 0
M  V30 21294 H 1927.03 -0.149116 3.23356 0
M  V30 21295 H 1925.94 2.1612 3.05357 0
M  V30 21296 H 1927.27 2.82738 4.02889 0
M  V30 21297 N 1928.92 -1.13255 1.09595 0
M  V30 21298 C 1929.88 -2.16909 0.740481 0
M  V30 21299 C 1930.88 -1.59135 -0.230794 0
M  V30 21300 O 1932.07 -1.74198 -0.00875551 0
M  V30 21301 C 1929.21 -3.40767 0.0953504 0
M  V30 21302 H 1930.4 -2.49869 1.65848 0
M  V30 21303 H 1927.95 -1.28113 0.895358 0
M  V30 21304 H 1928.69 -3.13398 -0.833794 0
M  V30 21305 H 1928.47 -3.83972 0.794247 0
M  V30 21306 H 1929.96 -4.17372 -0.137892 0
M  V30 21307 N 1930.4 -0.883401 -1.30514 0
M  V30 21308 C 1931.81 -0.577183 -1.48798 0
M  V30 21309 C 1932.01 0.885462 -1.81002 0
M  V30 21310 O 1931.07 1.66679 -1.89669 0
M  V30 21311 C 1932.38 -1.48898 -2.61247 0
M  V30 21312 C 1933.93 -1.49244 -2.75128 0
M  V30 21313 C 1934.41 -2.39012 -3.90688 0
M  V30 21314 N 1935.9 -2.36967 -3.97996 0
M  V30 21315 C 1936.63 -3.03138 -4.86718 0
M  V30 21316 N 1936.13 -3.78529 -5.80248 0
M  V30 21317 N 1937.92 -2.92378 -4.80074 0
M  V30 21318 H 1930.07 -1.82963 -1.07882 0
M  V30 21319 H 1932.34 -0.783078 -0.534315 0
M  V30 21320 H 1932.04 -2.53035 -2.44266 0
M  V30 21321 H 1931.92 -1.19739 -3.5769 0
M  V30 21322 H 1934.3 -0.458579 -2.91515 0
M  V30 21323 H 1934.38 -1.82432 -1.7931 0
M  V30 21324 H 1934.03 -3.42482 -3.75058 0
M  V30 21325 H 1933.96 -2.03141 -4.85841 0
M  V30 21326 H 1936.45 -1.82179 -3.31088 0
M  V30 21327 H 1936.76 -4.26115 -6.44706 0
M  V30 21328 H 1935.11 -3.82636 -5.80185 0
M  V30 21329 H 1938.3 -2.33008 -4.05986 0
M  V30 21330 H 1938.47 -3.44225 -5.49011 0
M  V30 21331 N 1931.88 1.43833 -0.644194 0
M  V30 21332 C 1932.82 2.32509 0.0649184 0
M  V30 21333 C 1933.82 1.48097 0.822405 0
M  V30 21334 O 1935.02 1.64362 0.733827 0
M  V30 21335 H 1931.4 0.750948 0.0397724 0
M  V30 21336 H 1933.37 2.90053 -0.700857 0
M  V30 21337 C 1932.12 3.32282 1.02391 0
M  V30 21338 H 1931.44 3.97254 0.45047 0
M  V30 21339 H 1932.88 3.96982 1.48933 0
M  V30 21340 C 1931.34 2.62194 2.11556 0
M  V30 21341 O 1931.87 2.43066 3.19815 0
M  V30 21342 N 1930.08 2.21717 1.87856 0
M  V30 21343 H 1929.62 2.37474 0.998189 0
M  V30 21344 H 1929.58 1.7515 2.61093 0
M  V30 21345 N 1933.35 0.385544 1.52811 0
M  V30 21346 C 1934.28 -0.442951 2.2926 0
M  V30 21347 C 1935.27 -1.06674 1.32494 0
M  V30 21348 O 1936.45 -1.08022 1.61384 0
M  V30 21349 C 1933.58 -1.57243 3.09664 0
M  V30 21350 C 1932.53 -1.07488 4.14283 0
M  V30 21351 C 1931.86 -2.29614 4.82889 0
M  V30 21352 C 1933.16 -0.145479 5.22097 0
M  V30 21353 H 1934.85 0.1949 2.98765 0
M  V30 21354 H 1932.4 0.0951762 1.43685 0
M  V30 21355 H 1934.35 -2.15882 3.61902 0
M  V30 21356 H 1933.08 -2.23781 2.37885 0
M  V30 21357 H 1931.74 -0.511047 3.6302 0
M  V30 21358 H 1931.38 -2.94653 4.07662 0
M  V30 21359 H 1931.08 -1.96985 5.53598 0
M  V30 21360 H 1932.61 -2.88902 5.37929 0
M  V30 21361 H 1934.02 -0.639941 5.69717 0
M  V30 21362 H 1932.42 0.0908687 6.00031 0
M  V30 21363 H 1933.49 0.806707 4.78142 0
M  V30 21364 N 1934.83 -1.57178 0.115259 0
M  V30 21365 C 1935.78 -2.11668 -0.847394 0
M  V30 21366 C 1936.77 -1.03654 -1.23064 0
M  V30 21367 O 1937.96 -1.29894 -1.20235 0
M  V30 21368 C 1935.09 -2.71667 -2.09886 0
M  V30 21369 C 1934.17 -3.86755 -1.74015 0
M  V30 21370 N 1934.56 -4.9396 -1.08801 0
M  V30 21371 C 1932.86 -3.96869 -2.03497 0
M  V30 21372 C 1933.56 -5.74381 -0.919867 0
M  V30 21373 N 1932.54 -5.24079 -1.44367 0
M  V30 21374 H 1936.34 -2.91932 -0.339579 0
M  V30 21375 H 1933.86 -1.62165 -0.0873304 0
M  V30 21376 H 1935.85 -3.09045 -2.79815 0
M  V30 21377 H 1934.51 -1.92865 -2.61215 0
M  V30 21378 H 1935.52 -5.12405 -0.75243 0
M  V30 21379 H 1932.2 -3.29104 -2.56899 0
M  V30 21380 H 1933.59 -6.70658 -0.408269 0
M  V30 21381 N 1936.31 0.158505 -1.56801 0
M  V30 21382 C 1937.54 0.892291 -1.87224 0
M  V30 21383 C 1937.96 1.74468 -0.703029 0
M  V30 21384 O 1937.32 1.77936 0.347649 0
M  V30 21385 C 1937.37 1.73433 -3.16154 0
M  V30 21386 O 1936.47 2.83736 -2.99279 0
M  V30 21387 H 1935.81 0.249214 -0.615458 0
M  V30 21388 H 1938.34 0.152785 -2.04029 0
M  V30 21389 H 1938.35 2.13168 -3.47884 0
M  V30 21390 H 1937.03 1.10831 -4.00861 0
M  V30 21391 H 1935.6 2.47491 -2.78931 0
M  V30 21392 N 1937.79 1.51692 0.427485 0
M  V30 21393 C 1938.74 1.73716 1.51958 0
M  V30 21394 C 1939.71 0.579073 1.55679 0
M  V30 21395 O 1940.89 0.814605 1.72536 0
M  V30 21396 C 1938.03 1.87709 2.89585 0
M  V30 21397 C 1937.14 3.15297 2.95317 0
M  V30 21398 C 1936.28 3.19827 4.24128 0
M  V30 21399 C 1935.32 4.4169 4.23764 0
M  V30 21400 N 1934.46 4.43715 5.44116 0
M  V30 21401 H 1939.3 2.66933 1.3248 0
M  V30 21402 H 1936.83 1.32283 0.643393 0
M  V30 21403 H 1938.79 1.93804 3.69454 0
M  V30 21404 H 1937.42 0.978912 3.07599 0
M  V30 21405 H 1936.47 3.18464 2.08051 0
M  V30 21406 H 1937.78 4.05182 2.90911 0
M  V30 21407 H 1936.94 3.24892 5.12377 0
M  V30 21408 H 1935.68 2.27848 4.31204 0
M  V30 21409 H 1934.68 4.36791 3.33907 0
M  V30 21410 H 1935.91 5.34944 4.18343 0
M  V30 21411 H 1933.85 3.5461 5.51894 0
M  V30 21412 H 1933.77 5.27421 5.4163 0
M  V30 21413 H 1935.04 4.52986 6.34369 0
M  V30 21414 N 1939.27 -0.683564 1.42004 0
M  V30 21415 C 1940.51 -1.44433 1.43215 0
M  V30 21416 C 1940.87 -1.92348 0.0445644 0
M  V30 21417 O 1940.16 -1.6742 -0.931726 0
M  V30 21418 C 1940.36 -2.66286 2.38383 0
M  V30 21419 C 1940.18 -2.30293 3.86258 0
M  V30 21420 C 1938.95 -2.20076 4.54857 0
M  V30 21421 C 1941.15 -1.92498 4.76916 0
M  V30 21422 N 1939.13 -1.77094 5.87802 0
M  V30 21423 C 1940.51 -1.60367 5.98901 0
M  V30 21424 C 1942.56 -1.79413 4.64452 0
M  V30 21425 C 1941.26 -1.16466 7.09809 0
M  V30 21426 C 1943.29 -1.36916 5.75333 0
M  V30 21427 C 1942.65 -1.05704 6.96424 0
M  V30 21428 H 1938.75 -0.525345 0.579255 0
M  V30 21429 H 1941.33 -0.789697 1.77966 0
M  V30 21430 H 1939.51 -3.29452 2.05708 0
M  V30 21431 H 1941.24 -3.32829 2.30233 0
M  V30 21432 H 1937.99 -2.38861 4.08953 0
M  V30 21433 H 1938.42 -1.58051 6.58292 0
M  V30 21434 H 1943.06 -2.02193 3.71319 0
M  V30 21435 H 1940.78 -0.924313 8.02796 0
M  V30 21436 H 1944.36 -1.27325 5.67697 0
M  V30 21437 H 1943.24 -0.733189 7.80765 0
M  V30 21438 N 1940.75 -1.28031 -0.919012 0
M  V30 21439 C 1941.68 -1.14034 -2.03761 0
M  V30 21440 C 1942.66 -0.039495 -1.70054 0
M  V30 21441 O 1943.84 -0.215546 -1.93 0
M  V30 21442 C 1940.97 -0.795894 -3.38057 0
M  V30 21443 C 1939.93 -1.85093 -3.85907 0
M  V30 21444 C 1939.25 -1.36024 -5.17109 0
M  V30 21445 C 1940.55 -3.25658 -4.08343 0
M  V30 21446 H 1942.25 -2.07609 -2.15729 0
M  V30 21447 H 1939.79 -0.999558 -1.03657 0
M  V30 21448 H 1941.74 -0.684762 -4.15799 0
M  V30 21449 H 1940.47 0.175558 -3.26128 0
M  V30 21450 H 1939.13 -1.95112 -3.10366 0
M  V30 21451 H 1938.78 -0.378004 -5.01578 0
M  V30 21452 H 1938.48 -2.06568 -5.50094 0
M  V30 21453 H 1940 -1.26223 -5.97411 0
M  V30 21454 H 1941.41 -3.1859 -4.76627 0
M  V30 21455 H 1939.81 -3.93989 -4.52651 0
M  V30 21456 H 1940.88 -3.70066 -3.13335 0
M  V30 21457 N 1942.22 1.12672 -1.10194 0
M  V30 21458 C 1943.17 2.18326 -0.748496 0
M  V30 21459 C 1944.14 1.63824 0.274007 0
M  V30 21460 O 1945.33 1.90179 0.153852 0
M  V30 21461 C 1942.47 3.4461 -0.183772 0
M  V30 21462 C 1941.58 4.13178 -1.26127 0
M  V30 21463 C 1940.71 5.27103 -0.658462 0
M  V30 21464 C 1939.75 5.87533 -1.71672 0
M  V30 21465 N 1938.89 6.92876 -1.13435 0
M  V30 21466 H 1943.73 2.47906 -1.65369 0
M  V30 21467 H 1941.27 1.21715 -0.826064 0
M  V30 21468 H 1943.22 4.16887 0.161511 0
M  V30 21469 H 1941.85 3.15456 0.684657 0
M  V30 21470 H 1940.91 3.39105 -1.72372 0
M  V30 21471 H 1942.22 4.54163 -2.06246 0
M  V30 21472 H 1941.37 6.06132 -0.26248 0
M  V30 21473 H 1940.11 4.87389 0.174183 0
M  V30 21474 H 1939.12 5.07193 -2.12215 0
M  V30 21475 H 1940.34 6.29318 -2.55217 0
M  V30 21476 H 1938.29 6.55204 -0.323127 0
M  V30 21477 H 1938.2 7.32446 -1.8724 0
M  V30 21478 H 1939.47 7.75739 -0.764838 0
M  V30 21479 N 1943.7 0.89031 1.30043 0
M  V30 21480 C 1944.65 0.332451 2.25563 0
M  V30 21481 C 1945.64 -0.542139 1.51491 0
M  V30 21482 O 1946.83 -0.38569 1.72747 0
M  V30 21483 C 1943.96 -0.447303 3.40373 0
M  V30 21484 C 1943.04 0.441676 4.21794 0
M  V30 21485 N 1943.43 1.54459 4.81639 0
M  V30 21486 C 1941.73 0.237754 4.45366 0
M  V30 21487 C 1942.43 2.09448 5.42685 0
M  V30 21488 N 1941.41 1.38873 5.25562 0
M  V30 21489 H 1945.21 1.17511 2.69385 0
M  V30 21490 H 1942.72 0.74031 1.44545 0
M  V30 21491 H 1944.72 -0.863632 4.07857 0
M  V30 21492 H 1943.38 -1.28733 2.9809 0
M  V30 21493 H 1944.39 1.92741 4.80699 0
M  V30 21494 H 1941.07 -0.564672 4.13664 0
M  V30 21495 H 1942.46 3.02096 6.00156 0
M  V30 21496 N 1945.18 -1.43489 0.651812 0
M  V30 21497 C 1946.11 -2.29063 -0.0793108 0
M  V30 21498 C 1947.12 -1.4243 -0.788508 0
M  V30 21499 O 1948.31 -1.66381 -0.646499 0
M  V30 21500 C 1945.41 -3.19317 -1.13533 0
M  V30 21501 C 1944.59 -4.3448 -0.504553 0
M  V30 21502 C 1943.65 -5.05619 -1.45727 0
M  V30 21503 O 1942.67 -5.60936 -0.966409 0
M  V30 21504 N 1943.87 -5.08988 -2.79126 0
M  V30 21505 H 1946.64 -2.92451 0.655174 0
M  V30 21506 H 1944.2 -1.54164 0.494491 0
M  V30 21507 H 1946.19 -3.63773 -1.77345 0
M  V30 21508 H 1944.76 -2.57538 -1.7718 0
M  V30 21509 H 1943.98 -3.92958 0.312626 0
M  V30 21510 H 1945.27 -5.0876 -0.0641591 0
M  V30 21511 H 1944.67 -4.65415 -3.21567 0
M  V30 21512 H 1943.22 -5.57166 -3.38245 0
M  V30 21513 N 1946.66 -0.393643 -1.52605 0
M  V30 21514 C 1947.62 0.427358 -2.25181 0
M  V30 21515 C 1948.62 0.986595 -1.26976 0
M  V30 21516 O 1949.81 0.867913 -1.51039 0
M  V30 21517 C 1946.94 1.60001 -3.01019 0
M  V30 21518 H 1948.14 -0.208101 -2.99177 0
M  V30 21519 H 1945.69 -0.145844 -1.55618 0
M  V30 21520 H 1946.42 2.27278 -2.31334 0
M  V30 21521 H 1946.21 1.20567 -3.73103 0
M  V30 21522 H 1947.7 2.18115 -3.56112 0
M  V30 21523 N 1948.14 1.57115 -0.123593 0
M  V30 21524 C 1949.38 1.95352 0.533292 0
M  V30 21525 C 1949.71 1.00716 1.66393 0
M  V30 21526 O 1948.97 0.0318953 1.95674 0
M  V30 21527 C 1949.26 3.39981 1.10218 0
M  V30 21528 C 1948.93 4.50805 0.0924171 0
M  V30 21529 C 1947.59 4.80843 -0.185228 0
M  V30 21530 C 1949.94 5.17787 -0.595483 0
M  V30 21531 C 1947.27 5.75179 -1.15698 0
M  V30 21532 C 1949.62 6.13168 -1.5559 0
M  V30 21533 C 1948.29 6.41596 -1.84148 0
M  V30 21534 H 1947.56 0.714842 0.195146 0
M  V30 21535 H 1950.21 1.90395 -0.205471 0
M  V30 21536 H 1948.51 3.41654 1.9178 0
M  V30 21537 H 1950.21 3.66881 1.61862 0
M  V30 21538 H 1946.8 4.27411 0.319001 0
M  V30 21539 H 1950.98 4.94732 -0.394155 0
M  V30 21540 H 1946.24 5.95508 -1.38494 0
M  V30 21541 H 1950.41 6.64154 -2.09458 0
M  V30 21542 H 1948.04 7.14501 -2.59601 0
M  V30 21543 N 1949.61 -0.150187 1.56883 0
M  V30 21544 C 1950.55 -1.21495 1.93169 0
M  V30 21545 C 1951.52 -1.41721 0.797116 0
M  V30 21546 O 1952.71 -1.56385 1.05243 0
M  V30 21547 C 1949.84 -2.5744 2.20096 0
M  V30 21548 C 1948.88 -2.53828 3.42744 0
M  V30 21549 S 1949.71 -2.00835 4.96413 0
M  V30 21550 C 1950.87 -3.38515 5.26458 0
M  V30 21551 H 1951.1 -0.905357 2.83179 0
M  V30 21552 H 1948.64 -0.355666 1.50248 0
M  V30 21553 H 1950.59 -3.35675 2.3629 0
M  V30 21554 H 1949.26 -2.85591 1.30755 0
M  V30 21555 H 1948.45 -3.53894 3.58852 0
M  V30 21556 H 1948.05 -1.837 3.25776 0
M  V30 21557 H 1950.34 -4.34611 5.19731 0
M  V30 21558 H 1951.29 -3.27263 6.27937 0
M  V30 21559 H 1951.69 -3.35503 4.5398 0
M  V30 21560 N 1951.09 -1.51916 -0.419434 0
M  V30 21561 C 1952.06 -1.73908 -1.49293 0
M  V30 21562 C 1953.06 -0.60898 -1.48822 0
M  V30 21563 O 1954.25 -0.876745 -1.50528 0
M  V30 21564 C 1951.38 -1.812 -2.88755 0
M  V30 21565 H 1952.57 -2.69732 -1.3109 0
M  V30 21566 H 1950.12 -1.42176 -0.649274 0
M  V30 21567 H 1950.86 -0.872544 -3.12341 0
M  V30 21568 H 1950.64 -2.63348 -2.905 0
M  V30 21569 H 1952.13 -1.99992 -3.66596 0
M  V30 21570 N 1952.57 0.676023 -1.42365 0
M  V30 21571 C 1953.48 1.81906 -1.48147 0
M  V30 21572 C 1954.5 1.70014 -0.37032 0
M  V30 21573 O 1955.67 1.91586 -0.621036 0
M  V30 21574 C 1952.74 3.18039 -1.38029 0
M  V30 21575 C 1951.8 3.41897 -2.59625 0
M  V30 21576 C 1951.03 4.71536 -2.4998 0
M  V30 21577 O 1951.25 5.49358 -1.535 0
M  V30 21578 O 1950.19 4.9661 -3.40091 0
M  V30 21579 H 1954.01 1.79984 -2.44621 0
M  V30 21580 H 1951.6 0.831611 -1.24115 0
M  V30 21581 H 1953.48 3.99277 -1.34743 0
M  V30 21582 H 1952.16 3.20602 -0.446789 0
M  V30 21583 H 1951.06 2.60512 -2.68485 0
M  V30 21584 H 1952.4 3.44164 -3.51869 0
M  V30 21585 N 1954.05 1.28517 0.912209 0
M  V30 21586 C 1954.98 1.15113 2.03153 0
M  V30 21587 C 1955.96 0.0485128 1.70031 0
M  V30 21588 O 1957.14 0.225778 1.92883 0
M  V30 21589 C 1954.27 0.81381 3.37631 0
M  V30 21590 C 1953.23 1.87137 3.8492 0
M  V30 21591 C 1952.55 1.38765 5.1638 0
M  V30 21592 C 1953.85 3.27819 4.06611 0
M  V30 21593 H 1955.55 2.0875 2.14625 0
M  V30 21594 H 1953.09 1.00504 1.03126 0
M  V30 21595 H 1955.05 0.706804 4.1543 0
M  V30 21596 H 1953.77 -0.15826 3.26216 0
M  V30 21597 H 1952.43 1.96755 3.09327 0
M  V30 21598 H 1952.08 0.404598 5.0137 0
M  V30 21599 H 1951.78 2.09482 5.48991 0
M  V30 21600 H 1953.3 1.29389 5.96733 0
M  V30 21601 H 1954.72 3.21114 4.7493 0
M  V30 21602 H 1953.11 3.96384 4.50555 0
M  V30 21603 H 1954.18 3.71723 3.11368 0
M  V30 21604 N 1955.53 -1.12086 1.1079 0
M  V30 21605 C 1956.49 -2.16111 0.763446 0
M  V30 21606 C 1957.49 -1.59371 -0.213903 0
M  V30 21607 O 1958.68 -1.74197 0.00972099 0
M  V30 21608 C 1955.81 -3.40646 0.131488 0
M  V30 21609 H 1957 -2.48096 1.68489 0
M  V30 21610 H 1954.56 -1.27156 0.908896 0
M  V30 21611 H 1955.29 -3.14265 -0.800507 0
M  V30 21612 H 1955.08 -3.83108 0.834928 0
M  V30 21613 H 1956.57 -4.17495 -0.0936165 0
M  V30 21614 N 1957 -0.897194 -1.29569 0
M  V30 21615 C 1958.23 -0.536465 -2.00342 0
M  V30 21616 C 1958.65 0.87088 -1.66725 0
M  V30 21617 O 1958.01 1.57924 -0.890492 0
M  V30 21618 C 1958.06 -0.732781 -3.53076 0
M  V30 21619 O 1957.16 0.215848 -4.11835 0
M  V30 21620 H 1956.51 -0.209904 -0.62995 0
M  V30 21621 H 1959.04 -1.20809 -1.65125 0
M  V30 21622 H 1959.05 -0.636468 -4.03005 0
M  V30 21623 H 1957.72 -1.75882 -3.7688 0
M  V30 21624 H 1956.3 0.0722012 -3.7283 0
M  V30 21625 N 1958.48 1.43142 -0.659413 0
M  V30 21626 C 1959.43 2.32565 0.040254 0
M  V30 21627 C 1960.42 1.48961 0.806651 0
M  V30 21628 O 1961.63 1.65131 0.716353 0
M  V30 21629 H 1958.01 0.751327 0.0318053 0
M  V30 21630 H 1959.98 2.89293 -0.731581 0
M  V30 21631 C 1958.73 3.33349 0.988614 0
M  V30 21632 H 1958.05 3.9771 0.40831 0
M  V30 21633 H 1959.49 3.9854 1.44714 0
M  V30 21634 C 1957.95 2.64423 2.08763 0
M  V30 21635 O 1958.48 2.46444 3.17219 0
M  V30 21636 N 1956.68 2.23697 1.85494 0
M  V30 21637 H 1956.23 2.38519 0.972945 0
M  V30 21638 H 1956.19 1.7791 2.59221 0
M  V30 21639 N 1959.96 0.40173 1.52394 0
M  V30 21640 C 1960.91 -0.427385 2.26808 0
M  V30 21641 C 1961.88 -1.04733 1.28919 0
M  V30 21642 O 1963.06 -1.073 1.5777 0
M  V30 21643 C 1960.2 -1.54211 3.08728 0
M  V30 21644 C 1959.32 -0.943809 4.21564 0
M  V30 21645 C 1958.45 -2.03061 4.90856 0
M  V30 21646 C 1957.49 -1.40886 5.95666 0
M  V30 21647 N 1956.63 -2.4355 6.58504 0
M  V30 21648 H 1961.47 0.21363 2.97233 0
M  V30 21649 H 1959 0.117187 1.46632 0
M  V30 21650 H 1960.96 -2.1993 3.54523 0
M  V30 21651 H 1959.59 -2.15326 2.40488 0
M  V30 21652 H 1958.64 -0.175875 3.79993 0
M  V30 21653 H 1959.96 -0.449559 4.9677 0
M  V30 21654 H 1959.11 -2.76523 5.40018 0
M  V30 21655 H 1957.85 -2.5585 4.15201 0
M  V30 21656 H 1956.85 -0.659546 5.4583 0
M  V30 21657 H 1958.08 -0.888766 6.73259 0
M  V30 21658 H 1956.02 -2.95484 5.85683 0
M  V30 21659 H 1955.94 -1.98916 7.29362 0
M  V30 21660 H 1957.21 -3.16604 7.12308 0
M  V30 21661 N 1961.44 -1.57047 0.131923 0
M  V30 21662 C 1962.35 -2.19545 -0.826862 0
M  V30 21663 C 1963.36 -1.17532 -1.28305 0
M  V30 21664 O 1964.54 -1.50052 -1.34337 0
M  V30 21665 C 1961.61 -2.79284 -2.0543 0
M  V30 21666 C 1960.67 -3.96375 -1.64879 0
M  V30 21667 C 1959.9 -4.53256 -2.81771 0
M  V30 21668 O 1960.12 -4.09022 -3.97564 0
M  V30 21669 O 1959.06 -5.43748 -2.58111 0
M  V30 21670 H 1962.88 -3.01957 -0.324926 0
M  V30 21671 H 1960.47 -1.49102 -0.0943495 0
M  V30 21672 H 1962.35 -3.17312 -2.77292 0
M  V30 21673 H 1961.02 -1.99895 -2.54605 0
M  V30 21674 H 1959.93 -3.63092 -0.900848 0
M  V30 21675 H 1961.26 -4.77238 -1.20434 0
M  V30 21676 N 1962.92 0.141865 -1.5696 0
M  V30 21677 C 1964.16 0.850019 -1.84787 0
M  V30 21678 C 1964.52 1.78556 -0.716613 0
M  V30 21679 O 1963.81 1.89467 0.285076 0
M  V30 21680 C 1964 1.65717 -3.16658 0
M  V30 21681 C 1963.83 0.801282 -4.42504 0
M  V30 21682 C 1962.6 0.464915 -5.03157 0
M  V30 21683 C 1964.8 0.129271 -5.14138 0
M  V30 21684 N 1962.78 -0.404035 -6.12569 0
M  V30 21685 C 1964.15 -0.599606 -6.17094 0
M  V30 21686 C 1966.21 0.0504761 -4.97874 0
M  V30 21687 C 1964.91 -1.39985 -7.05547 0
M  V30 21688 C 1966.94 -0.736517 -5.86796 0
M  V30 21689 C 1966.3 -1.45366 -6.89237 0
M  V30 21690 H 1962.4 0.288707 -0.726755 0
M  V30 21691 H 1964.98 0.115075 -1.9436 0
M  V30 21692 H 1963.15 2.36332 -3.08224 0
M  V30 21693 H 1964.89 2.30889 -3.32374 0
M  V30 21694 H 1961.64 0.801892 -4.66762 0
M  V30 21695 H 1962.07 -0.829685 -6.71897 0
M  V30 21696 H 1966.71 0.590566 -4.18655 0
M  V30 21697 H 1964.43 -1.95118 -7.84191 0
M  V30 21698 H 1968.01 -0.799543 -5.7628 0
M  V30 21699 H 1966.89 -2.05285 -7.56854 0
M  V30 21700 N 1964.39 1.52136 0.411372 0
M  V30 21701 C 1965.32 1.78277 1.50796 0
M  V30 21702 C 1966.31 0.633643 1.57857 0
M  V30 21703 O 1967.49 0.879011 1.73168 0
M  V30 21704 C 1964.62 1.93142 2.88641 0
M  V30 21705 C 1963.57 3.08727 2.96431 0
M  V30 21706 C 1962.9 3.08812 4.36508 0
M  V30 21707 C 1964.2 4.48228 2.68122 0
M  V30 21708 H 1965.89 2.70102 1.29171 0
M  V30 21709 H 1963.44 1.29971 0.619965 0
M  V30 21710 H 1965.39 2.10012 3.65339 0
M  V30 21711 H 1964.12 0.979869 3.11554 0
M  V30 21712 H 1962.78 2.91604 2.22177 0
M  V30 21713 H 1962.42 2.11383 4.56428 0
M  V30 21714 H 1962.12 3.86444 4.42645 0
M  V30 21715 H 1963.65 3.27809 5.15144 0
M  V30 21716 H 1965.06 4.65568 3.34544 0
M  V30 21717 H 1963.46 5.27761 2.85638 0
M  V30 21718 H 1964.53 4.56478 1.63572 0
M  V30 21719 N 1965.87 -0.668464 1.42721 0
M  V30 21720 C 1967.15 -1.42481 1.3401 0
M  V30 21721 C 1967.53 -2.11091 -0.0194821 0
M  V30 21722 O 1966.88 -2.037 -1.03531 0
M  V30 21723 C 1967.09 -2.42205 2.51272 0
M  V30 21724 C 1968.44 -3.0666 2.93675 0
M  V30 21725 O 1969.46 -2.52532 2.51209 0
M  V30 21726 O 1968.32 -4.04761 3.67193 0
M  V30 21727 H 1965.41 -0.635831 0.528818 0
M  V30 21728 H 1967.96 -0.696654 1.54741 0
M  V30 21729 H 1966.73 -1.90349 3.41881 0
M  V30 21730 H 1966.35 -3.22492 2.32561 0
M  V30 21731 N 1967.35 -1.28999 -0.905381 0
M  V30 21732 C 1968.3 -1.13642 -2.00883 0
M  V30 21733 C 1969.27 -0.0312703 -1.66071 0
M  V30 21734 O 1970.45 -0.197747 -1.89773 0
M  V30 21735 C 1967.59 -0.813027 -3.35386 0
M  V30 21736 C 1966.71 -1.99806 -3.83017 0
M  V30 21737 C 1965.84 -1.61454 -5.06069 0
M  V30 21738 C 1964.88 -2.76572 -5.46054 0
M  V30 21739 N 1964.02 -2.38655 -6.60294 0
M  V30 21740 H 1968.86 -2.08052 -2.1335 0
M  V30 21741 H 1966.39 -1.03539 -1.0449 0
M  V30 21742 H 1968.35 -0.606238 -4.12772 0
M  V30 21743 H 1966.98 0.094156 -3.22663 0
M  V30 21744 H 1966.03 -2.31672 -3.01715 0
M  V30 21745 H 1967.35 -2.86084 -4.08604 0
M  V30 21746 H 1966.5 -1.3703 -5.91023 0
M  V30 21747 H 1965.24 -0.723154 -4.82309 0
M  V30 21748 H 1964.24 -3.01684 -4.59638 0
M  V30 21749 H 1965.47 -3.66365 -5.71798 0
M  V30 21750 H 1963.42 -1.51997 -6.38148 0
M  V30 21751 H 1963.33 -3.18468 -6.85649 0
M  V30 21752 H 1964.6 -2.17536 -7.48531 0
M  V30 21753 N 1968.83 1.11497 -1.11383 0
M  V30 21754 C 1970.08 1.82584 -0.857082 0
M  V30 21755 C 1970.39 1.8554 0.61922 0
M  V30 21756 O 1971.6 2.52721 0.992197 0
M  V30 21757 C 1970.05 3.279 -1.48356 0
M  V30 21758 C 1969.66 3.33275 -2.99386 0
M  V30 21759 C 1971.41 4.0389 -1.30663 0
M  V30 21760 C 1969.31 4.72984 -3.55021 0
M  V30 21761 H 1968.24 0.684134 -0.31698 0
M  V30 21762 H 1970.89 1.25471 -1.339 0
M  V30 21763 H 1969.28 3.84941 -0.929311 0
M  V30 21764 H 1970.45 2.86119 -3.6121 0
M  V30 21765 H 1968.76 2.70764 -3.16348 0
M  V30 21766 H 1971.36 5.07069 -1.69662 0
M  V30 21767 H 1971.7 4.15554 -0.249147 0
M  V30 21768 H 1972.24 3.53235 -1.82949 0
M  V30 21769 H 1968.98 4.66518 -4.60479 0
M  V30 21770 H 1968.5 5.20553 -2.97968 0
M  V30 21771 H 1970.18 5.41941 -3.53425 0
M  V30 21772 N 1970.31 0.904053 1.29092 0
M  V30 21773 C 1971.22 0.389825 2.31339 0
M  V30 21774 C 1972.23 -0.517628 1.66122 0
M  V30 21775 O 1973.41 -0.406158 1.97262 0
M  V30 21776 C 1970.47 -0.370468 3.44715 0
M  V30 21777 C 1969.54 0.569032 4.25512 0
M  V30 21778 C 1968.77 -0.155071 5.33475 0
M  V30 21779 O 1968.99 -1.37834 5.53496 0
M  V30 21780 O 1967.93 0.504642 5.99781 0
M  V30 21781 H 1971.75 1.2382 2.77313 0
M  V30 21782 H 1969.34 0.668528 1.33608 0
M  V30 21783 H 1971.22 -0.800237 4.13732 0
M  V30 21784 H 1969.89 -1.19484 3.00841 0
M  V30 21785 H 1968.8 1.048 3.59121 0
M  V30 21786 H 1970.13 1.35994 4.7304 0
M  V30 21787 N 1971.79 -1.4279 0.666995 0
M  V30 21788 C 1972.73 -2.30794 -0.0161644 0
M  V30 21789 C 1973.7 -1.45527 -0.800701 0
M  V30 21790 O 1974.89 -1.74372 -0.774527 0
M  V30 21791 C 1972.03 -3.31276 -0.966974 0
M  V30 21792 C 1971.14 -4.31637 -0.177086 0
M  V30 21793 C 1970.28 -5.19195 -1.12294 0
M  V30 21794 C 1969.31 -6.1124 -0.324284 0
M  V30 21795 N 1968.45 -6.91376 -1.22244 0
M  V30 21796 H 1973.29 -2.88662 0.74014 0
M  V30 21797 H 1970.83 -1.42194 0.376738 0
M  V30 21798 H 1972.79 -3.88054 -1.53198 0
M  V30 21799 H 1971.42 -2.75025 -1.69 0
M  V30 21800 H 1970.47 -3.77041 0.504428 0
M  V30 21801 H 1971.78 -4.96826 0.443328 0
M  V30 21802 H 1970.93 -5.80667 -1.75813 0
M  V30 21803 H 1969.67 -4.54164 -1.77725 0
M  V30 21804 H 1968.68 -5.48843 0.324174 0
M  V30 21805 H 1969.9 -6.78318 0.325818 0
M  V30 21806 H 1967.85 -6.28981 -1.86329 0
M  V30 21807 H 1967.77 -7.5314 -0.656918 0
M  V30 21808 H 1969.03 -7.57342 -1.84535 0
M  V30 21809 N 1973.26 -0.409806 -1.52179 0
M  V30 21810 C 1974.17 0.42219 -2.3077 0
M  V30 21811 C 1975.19 1.05295 -1.38524 0
M  V30 21812 O 1976.37 1.05432 -1.71599 0
M  V30 21813 C 1973.43 1.52345 -3.11435 0
M  V30 21814 C 1972.49 0.91568 -4.19421 0
M  V30 21815 C 1971.72 1.96446 -4.9623 0
M  V30 21816 O 1971.95 3.18271 -4.7335 0
M  V30 21817 O 1970.88 1.57032 -5.81055 0
M  V30 21818 H 1974.71 -0.218635 -3.02912 0
M  V30 21819 H 1972.29 -0.172994 -1.48395 0
M  V30 21820 H 1974.17 2.16276 -3.61666 0
M  V30 21821 H 1972.85 2.14886 -2.42086 0
M  V30 21822 H 1971.76 0.239064 -3.73335 0
M  V30 21823 H 1973.09 0.33418 -4.91064 0
M  V30 21824 N 1974.74 1.56975 -0.14025 0
M  V30 21825 C 1975.99 1.95519 0.51153 0
M  V30 21826 C 1976.31 1.02572 1.65843 0
M  V30 21827 O 1975.58 0.0859828 1.95711 0
M  V30 21828 H 1974.16 0.721914 0.191961 0
M  V30 21829 H 1976.82 1.9372 -0.214169 0
M  V30 21830 H 1975.92 2.99078 0.892131 0
M  V30 21831 N 1976.22 -0.133539 1.57033 0
M  V30 21832 C 1977.15 -1.1944 1.94446 0
M  V30 21833 C 1978.13 -1.40868 0.812103 0
M  V30 21834 O 1979.31 -1.5526 1.06895 0
M  V30 21835 C 1976.44 -2.55091 2.22814 0
M  V30 21836 C 1975.49 -2.50178 3.45417 0
M  V30 21837 S 1976.32 -1.95558 4.98515 0
M  V30 21838 C 1977.48 -3.32912 5.30019 0
M  V30 21839 H 1977.71 -0.875271 2.84124 0
M  V30 21840 H 1975.24 -0.33971 1.50616 0
M  V30 21841 H 1977.2 -3.3315 2.39837 0
M  V30 21842 H 1975.86 -2.84188 1.33777 0
M  V30 21843 H 1975.05 -3.50068 3.62586 0
M  V30 21844 H 1974.66 -1.80235 3.27706 0
M  V30 21845 H 1976.95 -4.29074 5.24311 0
M  V30 21846 H 1977.89 -3.20584 6.31373 0
M  V30 21847 H 1978.3 -3.30669 4.57513 0
M  V30 21848 N 1977.7 -1.52352 -0.403298 0
M  V30 21849 C 1978.63 -1.72347 -1.51093 0
M  V30 21850 C 1979.64 -0.603886 -1.51186 0
M  V30 21851 O 1980.83 -0.879203 -1.55346 0
M  V30 21852 C 1977.93 -1.75407 -2.89975 0
M  V30 21853 C 1977.1 -3.04495 -3.14009 0
M  V30 21854 C 1976.16 -2.9929 -4.32795 0
M  V30 21855 O 1975.19 -3.73185 -4.29792 0
M  V30 21856 N 1976.39 -2.17484 -5.3822 0
M  V30 21857 H 1979.16 -2.67908 -1.34333 0
M  V30 21858 H 1976.72 -1.50662 -0.592661 0
M  V30 21859 H 1978.71 -1.6945 -3.67517 0
M  V30 21860 H 1977.28 -0.87295 -3.00164 0
M  V30 21861 H 1976.5 -3.24056 -2.24458 0
M  V30 21862 H 1977.79 -3.89879 -3.26913 0
M  V30 21863 H 1977.19 -1.56888 -5.4351 0
M  V30 21864 H 1975.74 -2.17378 -6.14484 0
M  V30 21865 N 1979.18 0.660885 -1.43074 0
M  V30 21866 C 1980.11 1.78579 -1.50438 0
M  V30 21867 C 1981.09 1.66253 -0.359703 0
M  V30 21868 O 1982.27 1.85465 -0.575893 0
M  V30 21869 C 1979.4 3.16963 -1.41956 0
M  V30 21870 C 1978.36 3.44043 -2.54594 0
M  V30 21871 C 1977.68 4.82147 -2.31166 0
M  V30 21872 C 1978.98 3.3955 -3.96867 0
M  V30 21873 H 1980.68 1.72673 -2.4459 0
M  V30 21874 H 1978.22 0.829317 -1.17721 0
M  V30 21875 H 1980.17 3.95406 -1.45713 0
M  V30 21876 H 1978.9 3.23581 -0.443048 0
M  V30 21877 H 1977.56 2.67969 -2.50177 0
M  V30 21878 H 1977.21 4.85432 -1.31776 0
M  V30 21879 H 1976.91 5.01228 -3.06667 0
M  V30 21880 H 1978.43 5.62857 -2.36695 0
M  V30 21881 H 1979.84 4.0794 -4.02813 0
M  V30 21882 H 1978.24 3.70166 -4.72332 0
M  V30 21883 H 1979.31 2.37868 -4.22548 0
M  V30 21884 N 1980.65 1.29477 0.898527 0
M  V30 21885 C 1981.9 1.16888 1.64378 0
M  V30 21886 C 1982.22 -0.278503 1.93607 0
M  V30 21887 O 1983.42 -0.525728 2.66361 0
M  V30 21888 C 1981.88 2.0444 2.96196 0
M  V30 21889 C 1981.49 3.54008 2.74558 0
M  V30 21890 C 1983.23 2.00578 3.74124 0
M  V30 21891 C 1981.14 4.33661 4.0211 0
M  V30 21892 H 1980.07 0.433875 0.616659 0
M  V30 21893 H 1982.72 1.54125 0.995881 0
M  V30 21894 H 1981.1 1.60073 3.62205 0
M  V30 21895 H 1982.27 4.06435 2.17135 0
M  V30 21896 H 1980.59 3.59553 2.10025 0
M  V30 21897 H 1983.19 2.57348 4.68696 0
M  V30 21898 H 1983.53 0.98604 4.04454 0
M  V30 21899 H 1984.06 2.42995 3.14957 0
M  V30 21900 H 1980.8 5.36276 3.76946 0
M  V30 21901 H 1980.32 3.86003 4.59088 0
M  V30 21902 H 1982 4.44385 4.70246 0
M  V30 21903 N 1982.13 -1.10905 1.11972 0
M  V30 21904 C 1983.36 -1.87095 0.894991 0
M  V30 21905 C 1983.78 -1.79875 -0.550144 0
M  V30 21906 O 1983.14 -1.16517 -1.38901 0
M  V30 21907 C 1983.19 -3.33634 1.36825 0
M  V30 21908 O 1982.29 -4.08802 0.543553 0
M  V30 21909 H 1981.63 -0.580734 0.321938 0
M  V30 21910 H 1984.16 -1.40152 1.49059 0
M  V30 21911 H 1984.17 -3.84482 1.36519 0
M  V30 21912 H 1982.85 -3.38205 2.42054 0
M  V30 21913 H 1981.43 -3.67824 0.613185 0
M  V30 21914 N 1983.61 -0.910886 -1.2861 0
M  V30 21915 C 1984.52 -0.402088 -2.31129 0
M  V30 21916 C 1985.54 0.508811 -1.66394 0
M  V30 21917 O 1986.71 0.395691 -1.97475 0
M  V30 21918 C 1983.78 0.352182 -3.44907 0
M  V30 21919 C 1982.84 -0.59159 -4.25204 0
M  V30 21920 C 1982.07 0.126778 -5.33549 0
M  V30 21921 O 1982.29 1.34897 -5.54219 0
M  V30 21922 O 1981.23 -0.536442 -5.99505 0
M  V30 21923 H 1985.05 -1.25289 -2.76652 0
M  V30 21924 H 1982.64 -0.675604 -1.33251 0
M  V30 21925 H 1984.52 0.778285 -4.14151 0
M  V30 21926 H 1983.2 1.17886 -3.01471 0
M  V30 21927 H 1982.1 -1.06703 -3.5856 0
M  V30 21928 H 1983.44 -1.38501 -4.72312 0
M  V30 21929 N 1985.09 1.42434 -0.674558 0
M  V30 21930 C 1986.04 2.308 0.00392457 0
M  V30 21931 C 1987.01 1.45949 0.792972 0
M  V30 21932 O 1988.19 1.74781 0.765269 0
M  V30 21933 C 1985.33 3.31784 0.949392 0
M  V30 21934 C 1984.44 4.31725 0.154193 0
M  V30 21935 C 1983.58 5.19783 1.09539 0
M  V30 21936 C 1982.62 6.11404 0.291864 0
M  V30 21937 N 1981.75 6.92015 1.18576 0
M  V30 21938 H 1986.59 2.88266 -0.755438 0
M  V30 21939 H 1984.13 1.41992 -0.384274 0
M  V30 21940 H 1986.09 3.88861 1.51138 0
M  V30 21941 H 1984.72 2.75918 1.67539 0
M  V30 21942 H 1983.77 3.76768 -0.524416 0
M  V30 21943 H 1985.08 4.96584 -0.469669 0
M  V30 21944 H 1984.24 5.81592 1.72732 0
M  V30 21945 H 1982.98 4.551 1.75314 0
M  V30 21946 H 1981.98 5.48664 -0.353276 0
M  V30 21947 H 1983.21 6.78136 -0.361786 0
M  V30 21948 H 1981.15 6.29961 1.82991 0
M  V30 21949 H 1981.07 7.53478 0.616968 0
M  V30 21950 H 1982.34 7.5831 1.80516 0
M  V30 21951 N 1986.57 0.417871 1.51959 0
M  V30 21952 C 1987.98 -0.0497386 1.86634 0
M  V30 21953 C 1988.33 -1.43671 1.33616 0
M  V30 21954 O 1987.45 -2.05472 0.67898 0
M  V30 21955 C 1988.05 -0.0970329 3.38661 0
M  V30 21956 C 1986.61 -0.509 3.72943 0
M  V30 21957 C 1985.75 0.310908 2.75552 0
M  V30 21958 H 1988.71 0.634566 1.45461 0
M  V30 21959 H 1988.73 -0.910534 3.69445 0
M  V30 21960 H 1988.24 0.912553 3.77219 0
M  V30 21961 H 1986.34 -1.52491 3.39967 0
M  V30 21962 H 1986.45 -0.247317 4.78461 0
M  V30 21963 H 1984.82 -0.228018 2.53677 0
M  V30 21964 H 1985.6 1.31901 3.1695 0
M  V30 21965 N 1988.04 -1.56898 0.148573 0
M  V30 21966 C 1988.95 -2.2041 -0.80353 0
M  V30 21967 C 1989.97 -1.18886 -1.27052 0
M  V30 21968 O 1991.15 -1.51468 -1.32738 0
M  V30 21969 C 1988.21 -2.81447 -2.02456 0
M  V30 21970 C 1987.27 -3.98102 -1.60665 0
M  V30 21971 C 1986.51 -4.56219 -2.76948 0
M  V30 21972 O 1986.73 -4.13215 -3.93204 0
M  V30 21973 O 1985.66 -5.46455 -2.52329 0
M  V30 21974 H 1989.49 -3.02284 -0.292881 0
M  V30 21975 H 1987.07 -1.49193 -0.0785299 0
M  V30 21976 H 1988.96 -3.20235 -2.73911 0
M  V30 21977 H 1987.63 -2.02585 -2.5247 0
M  V30 21978 H 1986.54 -3.64027 -0.862287 0
M  V30 21979 H 1987.87 -4.78489 -1.15365 0
M  V30 21980 N 1989.52 0.125209 -1.57102 0
M  V30 21981 C 1990.75 0.848436 -1.88704 0
M  V30 21982 C 1991.17 1.73729 -0.739158 0
M  V30 21983 O 1990.52 1.80177 0.290278 0
M  V30 21984 C 1990.57 1.68704 -3.1972 0
M  V30 21985 O 1990.29 0.833978 -4.30089 0
M  V30 21986 C 1991.8 2.51596 -3.64985 0
M  V30 21987 H 1989.02 0.244227 -0.624975 0
M  V30 21988 H 1991.56 0.111462 -2.04196 0
M  V30 21989 H 1989.71 2.37684 -3.05917 0
M  V30 21990 H 1990.13 1.4118 -5.05142 0
M  V30 21991 H 1991.6 3.05978 -4.59436 0
M  V30 21992 H 1992.08 3.28664 -2.91336 0
M  V30 21993 H 1992.69 1.8787 -3.81556 0
M  V30 21994 N 1991 1.52564 0.395213 0
M  V30 21995 C 1991.91 1.79813 1.5068 0
M  V30 21996 C 1992.93 0.684507 1.5997 0
M  V30 21997 O 1994.1 0.971428 1.76423 0
M  V30 21998 C 1991.17 1.95567 2.86277 0
M  V30 21999 C 1990.23 3.19481 2.86759 0
M  V30 22000 C 1989.46 3.34474 4.15888 0
M  V30 22001 O 1989.68 2.54414 5.10519 0
M  V30 22002 O 1988.62 4.27698 4.23507 0
M  V30 22003 H 1992.44 2.74191 1.30586 0
M  V30 22004 H 1990.03 1.37579 0.582445 0
M  V30 22005 H 1991.91 2.07672 3.66675 0
M  V30 22006 H 1990.59 1.04378 3.0641 0
M  V30 22007 H 1989.49 3.12823 2.05164 0
M  V30 22008 H 1990.83 4.10496 2.71577 0
M  V30 22009 N 1992.48 -0.653289 1.43422 0
M  V30 22010 C 1993.44 -1.74802 1.48246 0
M  V30 22011 C 1994.44 -1.56552 0.367179 0
M  V30 22012 O 1995.63 -1.62451 0.628923 0
M  V30 22013 C 1992.76 -3.13673 1.33499 0
M  V30 22014 H 1993.96 -1.71906 2.4574 0
M  V30 22015 H 1991.51 -0.864936 1.30187 0
M  V30 22016 H 1992.24 -3.22181 0.370118 0
M  V30 22017 H 1992.03 -3.28325 2.14348 0
M  V30 22018 H 1993.52 -3.93502 1.39806 0
M  V30 22019 N 1993.96 -1.29952 -0.891648 0
M  V30 22020 C 1995.2 -1.18565 -1.6453 0
M  V30 22021 C 1995.54 0.260539 -1.92444 0
M  V30 22022 O 1994.81 1.18723 -1.54062 0
M  V30 22023 C 1995.09 -2.00774 -2.98934 0
M  V30 22024 C 1994.95 -3.53577 -2.78035 0
M  V30 22025 C 1996.27 -1.84038 -3.99772 0
M  V30 22026 H 1993.38 -0.432073 -0.597061 0
M  V30 22027 H 1996.03 -1.59512 -1.03227 0
M  V30 22028 H 1994.18 -1.65981 -3.51258 0
M  V30 22029 H 1995.85 -3.98394 -2.3255 0
M  V30 22030 H 1994.09 -3.78095 -2.12665 0
M  V30 22031 H 1994.76 -4.06381 -3.73575 0
M  V30 22032 H 1997.24 -2.14444 -3.56585 0
M  V30 22033 H 1996.11 -2.43896 -4.91737 0
M  V30 22034 H 1996.38 -0.797726 -4.34843 0
M  V30 22035 N 1995.44 1.1031 -1.12559 0
M  V30 22036 C 1996.68 1.82567 -0.883005 0
M  V30 22037 C 1997.01 1.85031 0.589667 0
M  V30 22038 O 1996.29 1.3119 1.43595 0
M  V30 22039 C 1996.57 3.29171 -1.46009 0
M  V30 22040 C 1996.43 3.35032 -3.00122 0
M  V30 22041 C 1997.74 4.25591 -1.12073 0
M  V30 22042 H 1994.86 0.662829 -0.322221 0
M  V30 22043 H 1997.51 1.29276 -1.3924 0
M  V30 22044 H 1995.66 3.74684 -1.02685 0
M  V30 22045 H 1997.33 2.9799 -3.52135 0
M  V30 22046 H 1995.57 2.74892 -3.35584 0
M  V30 22047 H 1996.24 4.3827 -3.35595 0
M  V30 22048 H 1998.72 3.88318 -1.49494 0
M  V30 22049 H 1997.59 5.26528 -1.55112 0
M  V30 22050 H 1997.85 4.42088 -0.0331138 0
M  V30 22051 N 1996.91 0.917694 1.28125 0
M  V30 22052 C 1997.86 0.407628 2.27172 0
M  V30 22053 C 1998.83 -0.520056 1.57749 0
M  V30 22054 O 2000.02 -0.441394 1.85624 0
M  V30 22055 C 1997.16 -0.342648 3.43395 0
M  V30 22056 C 1996.27 0.617993 4.27557 0
M  V30 22057 C 1995.4 -0.151124 5.30985 0
M  V30 22058 C 1994.44 0.802876 6.06812 0
M  V30 22059 N 1993.58 0.0670251 7.02068 0
M  V30 22060 H 1998.42 1.25728 2.70179 0
M  V30 22061 H 1995.96 0.631273 1.32866 0
M  V30 22062 H 1997.91 -0.793873 4.09577 0
M  V30 22063 H 1996.54 -1.15661 3.01367 0
M  V30 22064 H 1995.6 1.18775 3.61382 0
M  V30 22065 H 1996.91 1.3475 4.80254 0
M  V30 22066 H 1996.06 -0.662729 6.03069 0
M  V30 22067 H 1994.8 -0.913657 4.79065 0
M  V30 22068 H 1993.81 1.32582 5.33575 0
M  V30 22069 H 1995.03 1.56503 6.6082 0
M  V30 22070 H 1992.98 -0.677445 6.52493 0
M  V30 22071 H 1992.89 0.736283 7.52406 0
M  V30 22072 H 1994.16 -0.424255 7.78345 0
M  V30 22073 N 1998.39 -1.42074 0.682102 0
M  V30 22074 C 1999.3 -2.34598 0.00845226 0
M  V30 22075 C 2000.32 -1.55494 -0.780873 0
M  V30 22076 O 2001.49 -1.88032 -0.721524 0
M  V30 22077 C 1998.56 -3.34103 -0.926085 0
M  V30 22078 C 1997.62 -4.29102 -0.130475 0
M  V30 22079 C 1996.85 -5.23853 -1.0205 0
M  V30 22080 O 1997.08 -5.23716 -2.26004 0
M  V30 22081 O 1996.01 -6.00004 -0.47739 0
M  V30 22082 H 1999.84 -2.93756 0.770779 0
M  V30 22083 H 1997.42 -1.42701 0.442368 0
M  V30 22084 H 1999.3 -3.95212 -1.46236 0
M  V30 22085 H 1997.98 -2.77408 -1.66814 0
M  V30 22086 H 1996.88 -3.71383 0.450082 0
M  V30 22087 H 1998.22 -4.88858 0.57262 0
M  V30 22088 N 1999.87 -0.425924 -1.51735 0
M  V30 22089 C 2000.82 0.391248 -2.2746 0
M  V30 22090 C 2001.79 1.02669 -1.30569 0
M  V30 22091 O 2002.97 1.04777 -1.59457 0
M  V30 22092 C 2000.11 1.4928 -3.11142 0
M  V30 22093 C 1999.22 0.876622 -4.23012 0
M  V30 22094 C 1998.36 1.95227 -4.94024 0
M  V30 22095 C 1997.4 1.31392 -5.97832 0
M  V30 22096 N 1996.54 2.33043 -6.62296 0
M  V30 22097 H 2001.38 -0.26089 -2.96856 0
M  V30 22098 H 1998.91 -0.1405 -1.46427 0
M  V30 22099 H 2000.87 2.14262 -3.57977 0
M  V30 22100 H 1999.5 2.11473 -2.43884 0
M  V30 22101 H 1998.55 0.115399 -3.80225 0
M  V30 22102 H 1999.86 0.370471 -4.97422 0
M  V30 22103 H 1999.02 2.67897 -5.44349 0
M  V30 22104 H 1997.76 2.49212 -4.19219 0
M  V30 22105 H 1996.76 0.572626 -5.4681 0
M  V30 22106 H 1997.99 0.781544 -6.74588 0
M  V30 22107 H 1995.93 2.86129 -5.9031 0
M  V30 22108 H 1995.85 1.87287 -7.32434 0
M  V30 22109 H 1997.12 3.05231 -7.17255 0
M  V30 22110 N 2001.35 1.56817 -0.156891 0
M  V30 22111 C 2002.28 2.20266 0.774915 0
M  V30 22112 C 2003.26 1.15387 1.24979 0
M  V30 22113 O 2004.44 1.43766 1.30557 0
M  V30 22114 C 2001.57 2.83207 2.01025 0
M  V30 22115 C 2000.53 3.94 1.67177 0
M  V30 22116 C 1999.85 4.43921 2.98057 0
M  V30 22117 C 2001.15 5.14297 0.91083 0
M  V30 22118 H 2002.85 2.98387 0.246082 0
M  V30 22119 H 2000.39 1.43525 0.116921 0
M  V30 22120 H 2002.35 3.26264 2.66701 0
M  V30 22121 H 2001.07 2.02433 2.56298 0
M  V30 22122 H 1999.73 3.51576 1.03876 0
M  V30 22123 H 1999.38 3.59957 3.5134 0
M  V30 22124 H 1999.08 5.18657 2.76169 0
M  V30 22125 H 2000.6 4.89656 3.64787 0
M  V30 22126 H 2002.02 5.54137 1.46988 0
M  V30 22127 H 2000.41 5.94857 0.791526 0
M  V30 22128 H 2001.48 4.84806 -0.0955943 0
M  V30 22129 N 2002.83 -0.116876 1.57166 0
M  V30 22130 C 2004.05 -0.838417 1.89151 0
M  V30 22131 C 2004.47 -1.73335 0.748361 0
M  V30 22132 O 2003.83 -1.80328 -0.280719 0
M  V30 22133 C 2003.88 -1.67006 3.20611 0
M  V30 22134 O 2003.6 -0.811158 4.30525 0
M  V30 22135 C 2005.1 -2.49657 3.66314 0
M  V30 22136 H 2002.32 -0.240909 0.626262 0
M  V30 22137 H 2004.86 -0.100631 2.04252 0
M  V30 22138 H 2003.02 -2.36058 3.07173 0
M  V30 22139 H 2003.43 -1.38499 5.05884 0
M  V30 22140 H 2004.91 -3.03537 4.61052 0
M  V30 22141 H 2005.38 -3.27114 2.93075 0
M  V30 22142 H 2005.99 -1.85844 3.82547 0
M  V30 22143 N 2004.3 -1.52772 -0.387116 0
M  V30 22144 C 2005.55 -1.67576 -1.12973 0
M  V30 22145 C 2005.87 -0.419122 -1.90443 0
M  V30 22146 O 2005.14 0.566514 -1.8753 0
M  V30 22147 H 2003.72 -0.617716 -0.420043 0
M  V30 22148 H 2006.38 -1.89892 -0.43896 0
M  V30 22149 H 2005.48 -2.52704 -1.83158 0
M  V30 22150 N 2005.78 0.645673 -1.43767 0
M  V30 22151 C 2006.71 1.76974 -1.52324 0
M  V30 22152 C 2007.69 1.65862 -0.377316 0
M  V30 22153 O 2008.88 1.84843 -0.595532 0
M  V30 22154 C 2006.01 3.1544 -1.4531 0
M  V30 22155 C 2004.96 3.41324 -2.58229 0
M  V30 22156 C 2004.29 4.79669 -2.36267 0
M  V30 22157 C 2005.59 3.35321 -4.00446 0
M  V30 22158 H 2007.28 1.70069 -2.46408 0
M  V30 22159 H 2004.83 0.816784 -1.18594 0
M  V30 22160 H 2006.78 3.93838 -1.49899 0
M  V30 22161 H 2005.5 3.23093 -0.477344 0
M  V30 22162 H 2004.16 2.653 -2.53005 0
M  V30 22163 H 2003.81 4.84007 -1.36918 0
M  V30 22164 H 2003.51 4.97947 -3.11966 0
M  V30 22165 H 2005.04 5.60315 -2.42652 0
M  V30 22166 H 2006.45 4.03644 -4.07117 0
M  V30 22167 H 2004.85 3.65135 -4.76231 0
M  V30 22168 H 2005.92 2.33373 -4.25047 0
M  V30 22169 N 2007.26 1.30423 0.884744 0
M  V30 22170 C 2008.21 1.13434 1.97779 0
M  V30 22171 C 2009.19 0.0494483 1.60824 0
M  V30 22172 O 2010.39 0.272793 1.74885 0
M  V30 22173 C 2007.51 0.828489 3.33153 0
M  V30 22174 C 2006.6 1.95365 3.76422 0
M  V30 22175 N 2006.99 3.19903 3.91785 0
M  V30 22176 C 2005.29 1.85007 4.05818 0
M  V30 22177 C 2005.99 3.93408 4.28492 0
M  V30 22178 N 2004.97 3.2146 4.38366 0
M  V30 22179 H 2008.77 2.07889 2.07748 0
M  V30 22180 H 2006.28 1.21765 1.07457 0
M  V30 22181 H 2008.28 0.687799 4.11187 0
M  V30 22182 H 2006.94 -0.107985 3.2452 0
M  V30 22183 H 2007.95 3.55189 3.7691 0
M  V30 22184 H 2004.63 0.987286 4.05659 0
M  V30 22185 H 2006.02 5.00656 4.48099 0
M  V30 22186 N 2008.74 -1.09711 1.13142 0
M  V30 22187 C 2009.68 -2.16265 0.806118 0
M  V30 22188 C 2010.65 -1.64493 -0.230476 0
M  V30 22189 O 2011.84 -1.9052 -0.103375 0
M  V30 22190 C 2008.98 -3.44002 0.275075 0
M  V30 22191 C 2008.09 -4.09688 1.37038 0
M  V30 22192 C 2007.23 -5.25172 0.797983 0
M  V30 22193 C 2006.27 -5.82775 1.87189 0
M  V30 22194 N 2005.4 -6.89625 1.31766 0
M  V30 22195 H 2010.24 -2.43434 1.71883 0
M  V30 22196 H 2007.78 -1.19482 0.858044 0
M  V30 22197 H 2009.74 -4.17169 -0.0509244 0
M  V30 22198 H 2008.37 -3.1716 -0.600779 0
M  V30 22199 H 2007.42 -3.34415 1.81302 0
M  V30 22200 H 2008.73 -4.48535 2.18215 0
M  V30 22201 H 2007.89 -6.05223 0.423093 0
M  V30 22202 H 2006.63 -4.87679 -0.0448997 0
M  V30 22203 H 2005.63 -5.01388 2.25588 0
M  V30 22204 H 2006.86 -6.2233 2.71812 0
M  V30 22205 H 2004.8 -6.54117 0.496729 0
M  V30 22206 H 2004.72 -7.27224 2.06594 0
M  V30 22207 H 2005.99 -7.73438 0.970242 0
M  V30 22208 N 2010.22 -0.924476 -1.27637 0
M  V30 22209 C 2011.15 -0.365478 -2.25254 0
M  V30 22210 C 2012.13 0.536345 -1.535 0
M  V30 22211 O 2013.31 0.47758 -1.8235 0
M  V30 22212 C 2010.44 0.47649 -3.35332 0
M  V30 22213 C 2009.48 -0.36145 -4.24966 0
M  V30 22214 S 2010.32 -1.77496 -5.05228 0
M  V30 22215 C 2011.47 -0.940592 -6.18792 0
M  V30 22216 H 2011.71 -1.19283 -2.72321 0
M  V30 22217 H 2009.24 -0.726442 -1.36243 0
M  V30 22218 H 2011.2 0.95642 -3.99203 0
M  V30 22219 H 2009.86 1.27834 -2.8691 0
M  V30 22220 H 2009.05 0.282848 -5.03206 0
M  V30 22221 H 2008.65 -0.775432 -3.65873 0
M  V30 22222 H 2010.95 -0.175113 -6.77274 0
M  V30 22223 H 2011.89 -1.69589 -6.87492 0
M  V30 22224 H 2012.3 -0.484027 -5.62421 0
M  V30 22225 N 2011.69 1.41711 -0.689627 0
M  V30 22226 C 2012.94 2.02128 -0.227142 0
M  V30 22227 C 2013.3 1.5362 1.15839 0
M  V30 22228 O 2012.59 0.734997 1.76942 0
M  V30 22229 C 2012.78 3.56737 -0.217544 0
M  V30 22230 C 2012.61 4.20251 -1.6006 0
M  V30 22231 C 2011.38 4.54797 -2.202 0
M  V30 22232 C 2013.58 4.46854 -2.5461 0
M  V30 22233 N 2011.56 5.03566 -3.51133 0
M  V30 22234 C 2012.93 4.97334 -3.70214 0
M  V30 22235 C 2014.99 4.28858 -2.52952 0
M  V30 22236 C 2013.69 5.31711 -4.84434 0
M  V30 22237 C 2015.72 4.6432 -3.6628 0
M  V30 22238 C 2015.08 5.14966 -4.80613 0
M  V30 22239 H 2011.18 0.771391 -0.128373 0
M  V30 22240 H 2013.76 1.72345 -0.905823 0
M  V30 22241 H 2011.93 3.86006 0.430602 0
M  V30 22242 H 2013.66 4.03869 0.25921 0
M  V30 22243 H 2010.42 4.41051 -1.72544 0
M  V30 22244 H 2010.84 5.32364 -4.18232 0
M  V30 22245 H 2015.49 3.88944 -1.65777 0
M  V30 22246 H 2013.2 5.70551 -5.72274 0
M  V30 22247 H 2016.79 4.5206 -3.66242 0
M  V30 22248 H 2015.67 5.41893 -5.66853 0
M  V30 22249 N 2013.17 0.433965 1.51507 0
M  V30 22250 C 2014.08 -0.385423 2.31412 0
M  V30 22251 C 2015.1 -1.03078 1.40182 0
M  V30 22252 O 2016.27 -1.02688 1.73254 0
M  V30 22253 C 2013.34 -1.47371 3.13819 0
M  V30 22254 C 2012.4 -0.848838 4.20824 0
M  V30 22255 C 2011.63 -1.88527 4.99293 0
M  V30 22256 O 2011.86 -3.107 4.78353 0
M  V30 22257 O 2010.79 -1.47768 5.83479 0
M  V30 22258 H 2014.62 0.266798 3.02526 0
M  V30 22259 H 2012.2 0.19658 1.48101 0
M  V30 22260 H 2014.08 -2.10495 3.65061 0
M  V30 22261 H 2012.76 -2.11008 2.45474 0
M  V30 22262 H 2011.67 -0.179639 3.73668 0
M  V30 22263 H 2013 -0.256013 4.91534 0
M  V30 22264 N 2014.65 -1.56732 0.165206 0
M  V30 22265 C 2015.9 -1.96988 -0.482024 0
M  V30 22266 C 2016.23 -1.05093 -1.63307 0
M  V30 22267 O 2015.5 -0.0968503 -1.94259 0
M  V30 22268 C 2015.79 -3.46766 -0.970842 0
M  V30 22269 C 2015.64 -4.4944 0.179956 0
M  V30 22270 C 2016.96 -3.99487 -1.84657 0
M  V30 22271 H 2014.08 -0.716228 -0.173741 0
M  V30 22272 H 2016.72 -1.88347 0.250108 0
M  V30 22273 H 2014.87 -3.54261 -1.59472 0
M  V30 22274 H 2016.54 -4.5401 0.81687 0
M  V30 22275 H 2014.79 -4.25661 0.836383 0
M  V30 22276 H 2015.46 -5.51623 -0.20409 0
M  V30 22277 H 2017.93 -3.94585 -1.32068 0
M  V30 22278 H 2016.81 -5.04715 -2.15763 0
M  V30 22279 H 2017.07 -3.42935 -2.79013 0
M  V30 22280 N 2016.13 0.10854 -1.57226 0
M  V30 22281 C 2017.06 1.13362 -2.04135 0
M  V30 22282 C 2018.04 1.42573 -0.927733 0
M  V30 22283 O 2019.22 1.52835 -1.19813 0
M  V30 22284 C 2016.35 2.45708 -2.45449 0
M  V30 22285 C 2015.31 2.30935 -3.60351 0
M  V30 22286 C 2014.63 3.68337 -3.87597 0
M  V30 22287 C 2015.93 1.76112 -4.91713 0
M  V30 22288 H 2017.63 0.74341 -2.90024 0
M  V30 22289 H 2015.17 0.356157 -1.39526 0
M  V30 22290 H 2017.13 3.17679 -2.76872 0
M  V30 22291 H 2015.85 2.86639 -1.56544 0
M  V30 22292 H 2014.51 1.61411 -3.29153 0
M  V30 22293 H 2014.16 4.06772 -2.95881 0
M  V30 22294 H 2013.86 3.59303 -4.64946 0
M  V30 22295 H 2015.38 4.41797 -4.21483 0
M  V30 22296 H 2016.8 2.3791 -5.21605 0
M  V30 22297 H 2015.19 1.77872 -5.73133 0
M  V30 22298 H 2016.26 0.71947 -4.79533 0
M  V30 22299 N 2017.61 1.52975 0.379009 0
M  V30 22300 C 2018.52 1.81401 1.48764 0
M  V30 22301 C 2019.53 0.701435 1.59235 0
M  V30 22302 O 2020.71 0.990085 1.75383 0
M  V30 22303 C 2017.77 1.98593 2.84186 0
M  V30 22304 C 2016.83 3.22504 2.83354 0
M  V30 22305 C 2016.07 3.38866 4.12317 0
M  V30 22306 O 2016.29 2.59814 5.07792 0
M  V30 22307 O 2015.22 4.32165 4.18947 0
M  V30 22308 H 2019.05 2.75561 1.27671 0
M  V30 22309 H 2016.64 1.38189 0.56782 0
M  V30 22310 H 2018.52 2.11549 3.64451 0
M  V30 22311 H 2017.19 1.07622 3.05285 0
M  V30 22312 H 2016.1 3.14982 2.01835 0
M  V30 22313 H 2017.43 4.13353 2.67208 0
M  V30 22314 N 2019.08 -0.63804 1.44107 0
M  V30 22315 C 2020.31 -1.43004 1.50215 0
M  V30 22316 C 2020.73 -1.87678 0.125903 0
M  V30 22317 O 2020.09 -1.58316 -0.883508 0
M  V30 22318 C 2020.14 -2.63112 2.46585 0
M  V30 22319 O 2019.24 -3.62706 1.9626 0
M  V30 22320 H 2018.59 -0.428173 0.507508 0
M  V30 22321 H 2021.12 -0.779402 1.89173 0
M  V30 22322 H 2021.13 -3.10742 2.64393 0
M  V30 22323 H 2019.8 -2.29941 3.46554 0
M  V30 22324 H 2018.38 -3.21932 1.88186 0
M  V30 22325 N 2020.56 -1.3089 -0.877815 0
M  V30 22326 C 2021.79 -1.23068 -1.66319 0
M  V30 22327 C 2022.21 0.205309 -1.8768 0
M  V30 22328 O 2021.56 1.13467 -1.42939 0
M  V30 22329 C 2021.61 -1.96305 -3.03557 0
M  V30 22330 O 2021.33 -3.34298 -2.83154 0
M  V30 22331 C 2022.84 -1.95228 -3.97996 0
M  V30 22332 H 2020.06 -0.425583 -0.518768 0
M  V30 22333 H 2022.6 -1.72636 -1.09623 0
M  V30 22334 H 2020.75 -1.50518 -3.56964 0
M  V30 22335 H 2021.17 -3.71486 -3.70268 0
M  V30 22336 H 2022.64 -2.50997 -4.91635 0
M  V30 22337 H 2023.12 -0.932904 -4.29178 0
M  V30 22338 H 2023.73 -2.40858 -3.50525 0
M  V30 22339 N 2022.04 1.0911 -1.13723 0
M  V30 22340 C 2023.27 1.85108 -0.924265 0
M  V30 22341 C 2023.68 1.81295 0.527025 0
M  V30 22342 O 2023.04 1.21144 1.36493 0
M  V30 22343 C 2023.09 3.3295 -1.40807 0
M  V30 22344 O 2022.81 3.36738 -2.80249 0
M  V30 22345 C 2024.31 4.25778 -1.23401 0
M  V30 22346 H 2021.53 0.584594 -0.329379 0
M  V30 22347 H 2024.08 1.37847 -1.51058 0
M  V30 22348 H 2022.23 3.77627 -0.864679 0
M  V30 22349 H 2022.65 4.28973 -3.01799 0
M  V30 22350 H 2024.12 5.27655 -1.62123 0
M  V30 22351 H 2024.6 4.38847 -0.176058 0
M  V30 22352 H 2025.2 3.8692 -1.76559 0
M  V30 22353 N 2023.52 0.931232 1.27145 0
M  V30 22354 C 2024.45 0.39037 2.25851 0
M  V30 22355 C 2025.46 -0.480869 1.55536 0
M  V30 22356 O 2026.65 -0.292921 1.7608 0
M  V30 22357 C 2023.75 -0.458971 3.35778 0
M  V30 22358 C 2022.93 0.393796 4.35624 0
M  V30 22359 C 2021.98 -0.393477 5.24727 0
M  V30 22360 O 2021.01 0.20005 5.68848 0
M  V30 22361 N 2022.21 -1.69245 5.55281 0
M  V30 22362 H 2024.98 1.23887 2.72896 0
M  V30 22363 H 2022.54 0.799038 1.40808 0
M  V30 22364 H 2024.53 -0.992799 3.92334 0
M  V30 22365 H 2023.1 -1.20824 2.88306 0
M  V30 22366 H 2022.32 1.1089 3.78282 0
M  V30 22367 H 2023.61 0.976663 4.99338 0
M  V30 22368 H 2023.01 -2.19693 5.21298 0
M  V30 22369 H 2021.56 -2.17273 6.14521 0
M  V30 22370 N 2025 -1.41343 0.697132 0
M  V30 22371 C 2026.23 -2.05528 0.237841 0
M  V30 22372 C 2026.64 -1.52468 -1.11351 0
M  V30 22373 O 2026 -0.673549 -1.69616 0
M  V30 22374 C 2026.05 -3.61007 0.188651 0
M  V30 22375 O 2025.77 -4.12106 1.48662 0
M  V30 22376 C 2027.27 -4.42341 -0.291439 0
M  V30 22377 H 2024.49 -0.661864 0.110352 0
M  V30 22378 H 2027.03 -1.81086 0.950155 0
M  V30 22379 H 2025.19 -3.84483 -0.474496 0
M  V30 22380 H 2025.6 -5.06162 1.37477 0
M  V30 22381 H 2027.08 -5.51316 -0.274731 0
M  V30 22382 H 2027.55 -4.1856 -1.33057 0
M  V30 22383 H 2028.16 -4.23933 0.340765 0
M  V30 22384 N 2026.48 -0.441993 -1.51275 0
M  V30 22385 C 2027.42 0.367101 -2.27862 0
M  V30 22386 C 2028.39 1.01278 -1.31651 0
M  V30 22387 O 2029.58 1.0308 -1.60559 0
M  V30 22388 C 2026.72 1.45971 -3.12708 0
M  V30 22389 C 2025.83 0.831707 -4.23918 0
M  V30 22390 C 2024.97 1.89976 -4.96067 0
M  V30 22391 C 2024 1.25043 -5.99192 0
M  V30 22392 N 2023.14 2.26005 -6.6473 0
M  V30 22393 H 2027.98 -0.292361 -2.96562 0
M  V30 22394 H 2025.52 -0.156023 -1.4627 0
M  V30 22395 H 2027.48 2.10453 -3.6023 0
M  V30 22396 H 2026.11 2.08874 -2.46113 0
M  V30 22397 H 2025.16 0.0750644 -3.80326 0
M  V30 22398 H 2026.47 0.317691 -4.97787 0
M  V30 22399 H 2025.62 2.62108 -5.4716 0
M  V30 22400 H 2024.36 2.44751 -4.21839 0
M  V30 22401 H 2023.37 0.514597 -5.47386 0
M  V30 22402 H 2024.59 0.709951 -6.75379 0
M  V30 22403 H 2022.54 2.79852 -5.93312 0
M  V30 22404 H 2022.46 1.79508 -7.34379 0
M  V30 22405 H 2023.72 2.97607 -7.20452 0
M  V30 22406 N 2027.95 1.56642 -0.173515 0
M  V30 22407 C 2028.92 2.16857 0.742008 0
M  V30 22408 C 2029.92 1.11721 1.1565 0
M  V30 22409 O 2031.11 1.37223 1.0731 0
M  V30 22410 C 2028.24 2.7532 2.01026 0
M  V30 22411 H 2029.43 2.99108 0.217769 0
M  V30 22412 H 2026.98 1.56115 0.0760536 0
M  V30 22413 H 2027.72 1.96808 2.57754 0
M  V30 22414 H 2027.5 3.52264 1.722 0
M  V30 22415 H 2028.99 3.21626 2.66358 0
M  V30 22416 N 2029.43 -0.1002 1.57281 0
M  V30 22417 C 2030.36 -1.14803 1.98376 0
M  V30 22418 C 2031.38 -1.36605 0.885602 0
M  V30 22419 O 2032.57 -1.35347 1.16376 0
M  V30 22420 C 2029.67 -2.50456 2.2831 0
M  V30 22421 C 2028.84 -2.49 3.59608 0
M  V30 22422 C 2027.9 -3.66541 3.77537 0
M  V30 22423 O 2026.92 -3.49266 4.49447 0
M  V30 22424 N 2028.13 -4.85829 3.17727 0
M  V30 22425 H 2030.89 -0.798301 2.88872 0
M  V30 22426 H 2028.45 -0.289246 1.59295 0
M  V30 22427 H 2030.44 -3.27681 2.37502 0
M  V30 22428 H 2029.01 -2.77538 1.43846 0
M  V30 22429 H 2028.23 -1.57357 3.61431 0
M  V30 22430 H 2029.52 -2.45101 4.45873 0
M  V30 22431 H 2028.92 -5.02769 2.59307 0
M  V30 22432 H 2027.48 -5.60665 3.32412 0
M  V30 22433 N 2030.91 -1.53174 -0.370891 0
M  V30 22434 C 2032.33 -1.42828 -0.712207 0
M  V30 22435 C 2032.53 -0.563111 -1.93472 0
M  V30 22436 O 2031.58 -0.0435062 -2.52463 0
M  V30 22437 C 2032.89 -2.85945 -0.930375 0
M  V30 22438 C 2034.44 -2.95542 -1.03072 0
M  V30 22439 C 2034.92 -4.39709 -1.28139 0
M  V30 22440 N 2036.41 -4.43115 -1.34921 0
M  V30 22441 C 2037.14 -5.51766 -1.56017 0
M  V30 22442 N 2036.64 -6.70473 -1.74464 0
M  V30 22443 N 2038.43 -5.39336 -1.58344 0
M  V30 22444 H 2030.58 -2.07934 0.433281 0
M  V30 22445 H 2032.85 -0.938799 0.131756 0
M  V30 22446 H 2032.55 -3.51546 -0.103966 0
M  V30 22447 H 2032.43 -3.29279 -1.83997 0
M  V30 22448 H 2034.81 -2.30098 -1.84768 0
M  V30 22449 H 2034.89 -2.5561 -0.0986256 0
M  V30 22450 H 2034.54 -5.05726 -0.469468 0
M  V30 22451 H 2034.47 -4.7721 -2.22662 0
M  V30 22452 H 2036.96 -3.57563 -1.223 0
M  V30 22453 H 2037.27 -7.49049 -1.90119 0
M  V30 22454 H 2035.62 -6.73469 -1.71653 0
M  V30 22455 H 2038.81 -4.45563 -1.43496 0
M  V30 22456 H 2038.98 -6.24078 -1.74443 0
M  V30 22457 N 2032.39 0.630389 -1.44443 0
M  V30 22458 C 2033.32 1.75348 -1.54192 0
M  V30 22459 C 2034.3 1.65453 -0.394887 0
M  V30 22460 O 2035.48 1.84201 -0.615103 0
M  V30 22461 C 2032.61 3.13881 -1.48647 0
M  V30 22462 C 2031.57 3.38566 -2.61835 0
M  V30 22463 C 2030.89 4.77136 -2.41341 0
M  V30 22464 C 2032.19 3.31055 -4.0398 0
M  V30 22465 H 2033.89 1.67446 -2.48198 0
M  V30 22466 H 2031.43 0.804159 -1.19454 0
M  V30 22467 H 2033.39 3.92226 -1.54068 0
M  V30 22468 H 2032.11 3.22568 -0.511585 0
M  V30 22469 H 2030.77 2.62602 -2.55805 0
M  V30 22470 H 2030.42 4.82527 -1.42043 0
M  V30 22471 H 2030.12 4.9461 -3.1723 0
M  V30 22472 H 2031.64 5.57709 -2.48581 0
M  V30 22473 H 2033.06 3.99304 -4.11375 0
M  V30 22474 H 2031.45 3.60064 -4.80077 0
M  V30 22475 H 2032.52 2.28852 -4.27498 0
M  V30 22476 N 2033.87 1.31354 0.870861 0
M  V30 22477 C 2035.11 1.20988 1.62383 0
M  V30 22478 C 2035.44 -0.232177 1.93109 0
M  V30 22479 O 2034.7 -1.1807 1.56071 0
M  V30 22480 C 2034.99 1.99835 2.96312 0
M  V30 22481 C 2034.66 3.49342 2.85081 0
M  V30 22482 C 2033.32 3.90108 2.81725 0
M  V30 22483 C 2035.67 4.44485 2.72181 0
M  V30 22484 C 2033 5.24286 2.63327 0
M  V30 22485 C 2035.35 5.78787 2.5532 0
M  V30 22486 C 2034.02 6.18775 2.50347 0
M  V30 22487 H 2033.29 0.442726 0.594201 0
M  V30 22488 H 2035.94 1.62609 1.01146 0
M  V30 22489 H 2034.24 1.50892 3.61578 0
M  V30 22490 H 2035.94 1.89196 3.53562 0
M  V30 22491 H 2032.53 3.16954 2.8851 0
M  V30 22492 H 2036.71 4.13921 2.7383 0
M  V30 22493 H 2031.97 5.54344 2.57901 0
M  V30 22494 H 2036.14 6.52137 2.44315 0
M  V30 22495 H 2033.77 7.22689 2.3585 0
M  V30 22496 N 2035.34 -1.08505 1.143 0
M  V30 22497 C 2036.62 -1.77515 0.82144 0
M  V30 22498 C 2037 -1.99668 -0.685253 0
M  V30 22499 O 2036.35 -1.60569 -1.62573 0
M  V30 22500 C 2036.56 -3.09174 1.61903 0
M  V30 22501 C 2037.91 -3.83722 1.81775 0
M  V30 22502 O 2038.93 -3.18952 1.58581 0
M  V30 22503 O 2037.79 -5.00023 2.20543 0
M  V30 22504 H 2034.88 -0.770315 0.300906 0
M  V30 22505 H 2037.43 -1.14976 1.24814 0
M  V30 22506 H 2036.2 -2.88593 2.64253 0
M  V30 22507 H 2035.82 -3.7944 1.1879 0
M  V30 22508 N 2036.82 -0.937962 -1.26649 0
M  V30 22509 C 2037.78 -0.449635 -2.24746 0
M  V30 22510 C 2038.78 0.437489 -1.54734 0
M  V30 22511 O 2039.97 0.237121 -1.72579 0
M  V30 22512 C 2037.11 0.35235 -3.39074 0
M  V30 22513 H 2038.3 -1.31648 -2.6946 0
M  V30 22514 H 2035.85 -0.71962 -1.38749 0
M  V30 22515 H 2036.59 1.23758 -2.99757 0
M  V30 22516 H 2036.37 -0.283853 -3.91071 0
M  V30 22517 H 2037.86 0.684038 -4.1196 0
M  V30 22518 N 2038.3 1.40971 -0.704618 0
M  V30 22519 C 2039.25 2.32576 -0.0337552 0
M  V30 22520 C 2040.24 1.51452 0.758852 0
M  V30 22521 O 2041.45 1.67327 0.663455 0
M  V30 22522 H 2037.82 0.751959 0.00788634 0
M  V30 22523 H 2039.79 2.86819 -0.823248 0
M  V30 22524 C 2038.54 3.36326 0.882061 0
M  V30 22525 H 2037.87 3.98807 0.281575 0
M  V30 22526 H 2039.31 4.02942 1.31962 0
M  V30 22527 C 2037.76 2.70931 2.00245 0
M  V30 22528 O 2038.29 2.56412 3.09218 0
M  V30 22529 N 2036.5 2.29485 1.78284 0
M  V30 22530 H 2036.05 2.41494 0.89657 0
M  V30 22531 H 2036.01 1.86067 2.5343 0
M  V30 22532 N 2039.78 0.45001 1.51039 0
M  V30 22533 C 2040.73 -0.355012 2.28053 0
M  V30 22534 C 2041.7 -1.00578 1.32186 0
M  V30 22535 O 2042.88 -1.02227 1.61103 0
M  V30 22536 C 2040.02 -1.44311 3.13478 0
M  V30 22537 C 2039.13 -0.809213 4.24353 0
M  V30 22538 C 2038.27 -1.87342 4.97068 0
M  V30 22539 C 2037.31 -1.21864 5.99846 0
M  V30 22540 N 2036.44 -2.22477 6.65919 0
M  V30 22541 H 2041.28 0.308084 2.96403 0
M  V30 22542 H 2038.82 0.163778 1.46185 0
M  V30 22543 H 2040.78 -2.08539 3.61341 0
M  V30 22544 H 2039.41 -2.07566 2.47217 0
M  V30 22545 H 2038.46 -0.0548937 3.8036 0
M  V30 22546 H 2039.77 -0.291288 4.97949 0
M  V30 22547 H 2038.93 -2.59203 5.48542 0
M  V30 22548 H 2037.67 -2.42511 4.23131 0
M  V30 22549 H 2036.67 -0.48556 5.47652 0
M  V30 22550 H 2037.9 -0.674124 6.75746 0
M  V30 22551 H 2035.84 -2.76702 5.94788 0
M  V30 22552 H 2035.76 -1.75611 7.35321 0
M  V30 22553 H 2037.03 -2.93782 7.2202 0
M  V30 22554 N 2041.26 -1.56548 0.18182 0
M  V30 22555 C 2042.22 -2.17247 -0.730497 0
M  V30 22556 C 2043.22 -1.12333 -1.15056 0
M  V30 22557 O 2044.41 -1.3779 -1.06581 0
M  V30 22558 C 2041.54 -2.76383 -1.99563 0
M  V30 22559 H 2042.73 -2.9922 -0.201904 0
M  V30 22560 H 2040.29 -1.56153 -0.0677734 0
M  V30 22561 H 2041.02 -1.98173 -2.56706 0
M  V30 22562 H 2040.81 -3.53172 -1.70329 0
M  V30 22563 H 2042.3 -3.23034 -2.64649 0
M  V30 22564 N 2042.73 0.0918577 -1.57332 0
M  V30 22565 C 2043.64 1.1295 -2.0562 0
M  V30 22566 C 2044.66 1.4366 -0.981728 0
M  V30 22567 O 2045.84 1.54237 -1.29511 0
M  V30 22568 C 2042.9 2.42918 -2.4737 0
M  V30 22569 C 2041.96 2.19361 -3.69024 0
M  V30 22570 C 2041.2 3.43132 -4.08774 0
M  V30 22571 O 2041.42 4.51492 -3.48584 0
M  V30 22572 O 2040.35 3.32529 -5.01705 0
M  V30 22573 H 2044.18 0.74936 -2.9431 0
M  V30 22574 H 2041.76 0.304595 -1.46262 0
M  V30 22575 H 2043.65 3.19442 -2.74835 0
M  V30 22576 H 2042.32 2.80352 -1.61816 0
M  V30 22577 H 2041.23 1.40607 -3.46671 0
M  V30 22578 H 2042.56 1.86818 -4.55368 0
M  V30 22579 N 2044.21 1.53368 0.362763 0
M  V30 22580 C 2045.14 1.82984 1.45048 0
M  V30 22581 C 2046.12 0.683544 1.55762 0
M  V30 22582 O 2047.31 0.933658 1.70283 0
M  V30 22583 C 2044.44 2.02227 2.8235 0
M  V30 22584 C 2043.39 3.18002 2.86459 0
M  V30 22585 C 2042.72 3.22543 4.26463 0
M  V30 22586 C 2044.02 4.56531 2.53726 0
M  V30 22587 H 2045.71 2.74075 1.20513 0
M  V30 22588 H 2043.26 1.31877 0.578302 0
M  V30 22589 H 2045.21 2.21529 3.58473 0
M  V30 22590 H 2043.94 1.07849 3.08279 0
M  V30 22591 H 2042.59 2.98525 2.12787 0
M  V30 22592 H 2042.24 2.25797 4.49472 0
M  V30 22593 H 2041.94 4.00331 4.30127 0
M  V30 22594 H 2043.47 3.44032 5.04455 0
M  V30 22595 H 2044.88 4.75975 3.19563 0
M  V30 22596 H 2043.28 5.36581 2.68703 0
M  V30 22597 H 2044.35 4.61451 1.48967 0
M  V30 22598 N 2045.69 -0.62272 1.44776 0
M  V30 22599 C 2046.94 -1.3821 1.48 0
M  V30 22600 C 2047.27 -1.94155 0.115835 0
M  V30 22601 O 2046.52 -1.74621 -0.883522 0
M  V30 22602 C 2046.82 -2.55936 2.49463 0
M  V30 22603 C 2046.49 -2.1823 3.94571 0
M  V30 22604 C 2045.15 -2.0766 4.34086 0
M  V30 22605 C 2047.5 -1.88574 4.8589 0
M  V30 22606 C 2044.83 -1.65634 5.62834 0
M  V30 22607 C 2047.18 -1.48038 6.15035 0
M  V30 22608 C 2045.84 -1.36016 6.53495 0
M  V30 22609 H 2045.11 -0.505748 0.541572 0
M  V30 22610 H 2047.76 -0.705341 1.78037 0
M  V30 22611 H 2046.07 -3.28883 2.1294 0
M  V30 22612 H 2047.76 -3.14165 2.49201 0
M  V30 22613 H 2044.35 -2.27378 3.63314 0
M  V30 22614 H 2048.54 -1.95645 4.5611 0
M  V30 22615 H 2043.79 -1.54936 5.91443 0
M  V30 22616 H 2047.97 -1.24132 6.85248 0
M  V30 22617 H 2045.59 -1.03224 7.53159 0
M  V30 22618 N 2047.17 -1.31814 -0.863883 0
M  V30 22619 C 2048.4 -1.24825 -1.65004 0
M  V30 22620 C 2048.81 0.185391 -1.87888 0
M  V30 22621 O 2048.17 1.11945 -1.44134 0
M  V30 22622 C 2048.22 -1.99514 -3.01457 0
M  V30 22623 O 2047.94 -3.37283 -2.79593 0
M  V30 22624 C 2049.44 -1.99438 -3.95903 0
M  V30 22625 H 2046.66 -0.431061 -0.514225 0
M  V30 22626 H 2049.21 -1.73789 -1.07786 0
M  V30 22627 H 2047.36 -1.54296 -3.55347 0
M  V30 22628 H 2047.77 -3.75392 -3.66307 0
M  V30 22629 H 2049.25 -2.56197 -4.88945 0
M  V30 22630 H 2049.73 -0.978372 -4.28164 0
M  V30 22631 H 2050.33 -2.44562 -3.4795 0
M  V30 22632 N 2048.65 1.07897 -1.14873 0
M  V30 22633 C 2049.58 2.14852 -0.798188 0
M  V30 22634 C 2050.59 1.61719 0.187287 0
M  V30 22635 O 2051.78 1.78465 -0.0351681 0
M  V30 22636 C 2048.88 3.38498 -0.16499 0
M  V30 22637 C 2048.05 4.21 -1.1865 0
M  V30 22638 C 2047.11 5.23037 -0.576101 0
M  V30 22639 O 2046.14 5.55518 -1.24051 0
M  V30 22640 N 2047.34 5.76908 0.644745 0
M  V30 22641 H 2050.11 2.45528 -1.71861 0
M  V30 22642 H 2047.67 1.23755 -1.04386 0
M  V30 22643 H 2049.66 4.0389 0.255991 0
M  V30 22644 H 2048.23 3.05582 0.658666 0
M  V30 22645 H 2047.45 3.51509 -1.78423 0
M  V30 22646 H 2048.74 4.72937 -1.87639 0
M  V30 22647 H 2048.13 5.5276 1.20302 0
M  V30 22648 H 2046.69 6.43956 1.00816 0
M  V30 22649 N 2050.12 0.944665 1.2615 0
M  V30 22650 C 2051.35 0.610451 1.98213 0
M  V30 22651 C 2051.77 -0.808401 1.69843 0
M  V30 22652 O 2051.13 -1.5451 0.948491 0
M  V30 22653 C 2051.18 0.863318 3.50113 0
M  V30 22654 O 2050.28 -0.062849 4.12352 0
M  V30 22655 H 2049.63 0.233139 0.621725 0
M  V30 22656 H 2052.16 1.26855 1.60527 0
M  V30 22657 H 2052.17 0.785602 4.00365 0
M  V30 22658 H 2050.84 1.89748 3.70092 0
M  V30 22659 H 2049.42 0.066222 3.72841 0
M  V30 22660 N 2051.6 -1.40596 0.712085 0
M  V30 22661 C 2052.84 -2.0281 0.254462 0
M  V30 22662 C 2053.21 -1.55234 -1.12989 0
M  V30 22663 O 2054.41 -2.09487 -1.6843 0
M  V30 22664 C 2052.68 -3.55895 0.327689 0
M  V30 22665 S 2054.24 -4.38767 -0.0534624 0
M  V30 22666 H 2051.06 -0.703761 0.101197 0
M  V30 22667 H 2053.66 -1.71772 0.933528 0
M  V30 22668 H 2052.36 -3.88014 1.33692 0
M  V30 22669 H 2051.89 -3.91656 -0.369973 0
M  V30 22670 H 2053.91 -4.79499 -1.27652 0
M  V30 22671 N 2053.08 -0.458013 -1.50798 0
M  V30 22672 C 2054.04 0.331466 -2.26791 0
M  V30 22673 C 2055.04 0.931853 -1.31046 0
M  V30 22674 O 2056.23 0.803071 -1.54585 0
M  V30 22675 C 2053.37 1.4709 -3.07534 0
M  V30 22676 H 2054.56 -0.334805 -2.98025 0
M  V30 22677 H 2052.11 -0.211715 -1.54859 0
M  V30 22678 H 2052.85 2.17261 -2.40765 0
M  V30 22679 H 2052.63 1.04634 -3.77881 0
M  V30 22680 H 2054.12 2.02815 -3.65042 0
M  V30 22681 N 2054.56 1.56449 -0.190119 0
M  V30 22682 C 2055.84 1.89172 0.497312 0
M  V30 22683 C 2056.22 1.1029 1.79998 0
M  V30 22684 O 2055.56 0.202471 2.27601 0
M  V30 22685 C 2055.77 3.41472 0.720941 0
M  V30 22686 C 2057.12 4.11602 1.04254 0
M  V30 22687 O 2058.15 3.46895 0.808835 0
M  V30 22688 O 2057.01 5.25955 1.48438 0
M  V30 22689 H 2054.1 0.785518 0.258632 0
M  V30 22690 H 2056.65 1.68135 -0.229961 0
M  V30 22691 H 2055.42 3.90793 -0.199197 0
M  V30 22692 H 2055.04 3.68185 1.50085 0
M  V30 22693 N 2056.04 -0.0835127 1.57379 0
M  V30 22694 C 2056.97 -1.101 2.05913 0
M  V30 22695 C 2057.95 -1.41079 0.950298 0
M  V30 22696 O 2059.13 -1.50909 1.2223 0
M  V30 22697 C 2056.26 -2.41772 2.49327 0
M  V30 22698 C 2055.22 -2.25173 3.63979 0
M  V30 22699 C 2054.54 -3.62124 3.93408 0
M  V30 22700 C 2055.84 -1.68267 4.94453 0
M  V30 22701 H 2057.54 -0.697176 2.9117 0
M  V30 22702 H 2055.08 -0.333914 1.40075 0
M  V30 22703 H 2057.04 -3.13234 2.81891 0
M  V30 22704 H 2055.76 -2.84112 1.61084 0
M  V30 22705 H 2054.42 -1.56154 3.3168 0
M  V30 22706 H 2054.07 -4.02013 3.02315 0
M  V30 22707 H 2053.77 -3.51861 4.70603 0
M  V30 22708 H 2055.29 -4.35036 4.28458 0
M  V30 22709 H 2056.71 -2.29582 5.25324 0
M  V30 22710 H 2055.1 -1.68731 5.7589 0
M  V30 22711 H 2056.17 -0.64309 4.80617 0
M  V30 22712 N 2057.52 -1.53558 -0.354624 0
M  V30 22713 C 2058.79 -1.60886 -1.11243 0
M  V30 22714 C 2059.17 -0.423192 -2.06815 0
M  V30 22715 O 2058.52 0.585579 -2.20869 0
M  V30 22716 C 2058.73 -2.96439 -1.84188 0
M  V30 22717 C 2060.08 -3.51404 -2.38329 0
M  V30 22718 O 2061.1 -2.9854 -1.94299 0
M  V30 22719 O 2059.96 -4.43843 -3.1885 0
M  V30 22720 H 2057.06 -0.650291 -0.510932 0
M  V30 22721 H 2059.6 -1.65902 -0.357007 0
M  V30 22722 H 2058.37 -3.74173 -1.145 0
M  V30 22723 H 2058 -2.94963 -2.66613 0
M  V30 22724 N 2058.99 0.615033 -1.45104 0
M  V30 22725 C 2059.94 1.72617 -1.53206 0
M  V30 22726 C 2060.91 1.6173 -0.378499 0
M  V30 22727 O 2062.1 1.81418 -0.590937 0
M  V30 22728 C 2059.24 3.1091 -1.49763 0
M  V30 22729 C 2058.35 3.32657 -2.75615 0
M  V30 22730 C 2057.48 4.61014 -2.63894 0
M  V30 22731 C 2056.52 4.75993 -3.84834 0
M  V30 22732 N 2055.66 5.95642 -3.71692 0
M  V30 22733 H 2060.5 1.65028 -2.48133 0
M  V30 22734 H 2058.04 0.804792 -1.23132 0
M  V30 22735 H 2059.99 3.90911 -1.45755 0
M  V30 22736 H 2058.62 3.17475 -0.583921 0
M  V30 22737 H 2057.68 2.46484 -2.89741 0
M  V30 22738 H 2058.99 3.39601 -3.65339 0
M  V30 22739 H 2058.14 5.49198 -2.5781 0
M  V30 22740 H 2056.88 4.56455 -1.71756 0
M  V30 22741 H 2055.89 3.86234 -3.91284 0
M  V30 22742 H 2057.11 4.82354 -4.78028 0
M  V30 22743 H 2055.06 5.92143 -2.82318 0
M  V30 22744 H 2054.97 6.03713 -4.55046 0
M  V30 22745 H 2056.24 6.86345 -3.69528 0
M  V30 22746 N 2060.47 1.3227 0.85688 0
M  V30 22747 C 2061.72 1.23895 1.61312 0
M  V30 22748 C 2062.07 -0.197917 1.91379 0
M  V30 22749 O 2061.37 -1.13506 1.5436 0
M  V30 22750 C 2061.56 2.02967 2.94175 0
M  V30 22751 C 2061.39 3.54196 2.77083 0
M  V30 22752 C 2060.16 4.23536 2.75582 0
M  V30 22753 C 2062.36 4.48891 2.51 0
M  V30 22754 N 2060.34 5.60834 2.49677 0
M  V30 22755 C 2061.71 5.7395 2.34481 0
M  V30 22756 C 2063.76 4.38173 2.36451 0
M  V30 22757 C 2062.47 6.89502 2.0489 0
M  V30 22758 C 2064.49 5.53521 2.0825 0
M  V30 22759 C 2063.86 6.77578 1.92529 0
M  V30 22760 H 2059.95 0.508517 0.594083 0
M  V30 22761 H 2062.54 1.6661 1.00744 0
M  V30 22762 H 2060.71 1.62601 3.52726 0
M  V30 22763 H 2062.44 1.86505 3.59163 0
M  V30 22764 H 2059.2 3.75632 2.8844 0
M  V30 22765 H 2059.62 6.33161 2.39659 0
M  V30 22766 H 2064.26 3.42913 2.47326 0
M  V30 22767 H 2061.98 7.84775 1.92752 0
M  V30 22768 H 2065.57 5.47154 1.97773 0
M  V30 22769 H 2064.45 7.65325 1.71018 0
M  V30 22770 N 2061.95 -1.07287 1.15444 0
M  V30 22771 C 2062.88 -2.16494 0.87478 0
M  V30 22772 C 2063.86 -1.69199 -0.174882 0
M  V30 22773 O 2065.05 -1.94178 -0.0291162 0
M  V30 22774 C 2062.18 -3.45387 0.364018 0
M  V30 22775 C 2061.13 -4.06137 1.35043 0
M  V30 22776 C 2060.46 -5.30118 0.69849 0
M  V30 22777 C 2061.76 -4.46089 2.71665 0
M  V30 22778 H 2063.45 -2.40146 1.78802 0
M  V30 22779 H 2061 -1.15415 0.861124 0
M  V30 22780 H 2062.95 -4.21111 0.15591 0
M  V30 22781 H 2061.67 -3.21324 -0.58469 0
M  V30 22782 H 2060.33 -3.32458 1.54491 0
M  V30 22783 H 2059.98 -5.02346 -0.256386 0
M  V30 22784 H 2059.68 -5.71721 1.35679 0
M  V30 22785 H 2061.2 -6.08548 0.500171 0
M  V30 22786 H 2062.62 -5.12939 2.56059 0
M  V30 22787 H 2061.01 -4.98645 3.33876 0
M  V30 22788 H 2062.08 -3.57427 3.2768 0
M  V30 22789 N 2063.43 -0.951342 -1.25647 0
M  V30 22790 C 2064.38 -0.439691 -2.2372 0
M  V30 22791 C 2065.36 0.469243 -1.53906 0
M  V30 22792 O 2066.55 0.302832 -1.7439 0
M  V30 22793 C 2063.68 0.284397 -3.4212 0
M  V30 22794 C 2062.77 -0.642416 -4.19206 0
M  V30 22795 N 2063.16 -1.77263 -4.73721 0
M  V30 22796 C 2061.46 -0.449973 -4.43724 0
M  V30 22797 C 2062.16 -2.35101 -5.32074 0
M  V30 22798 N 2061.13 -1.6379 -5.18337 0
M  V30 22799 H 2064.94 -1.30229 -2.63472 0
M  V30 22800 H 2062.45 -0.808431 -1.40848 0
M  V30 22801 H 2064.45 0.668054 -4.11513 0
M  V30 22802 H 2063.11 1.14364 -3.03893 0
M  V30 22803 H 2064.12 -2.15456 -4.70955 0
M  V30 22804 H 2060.8 0.366665 -4.15887 0
M  V30 22805 H 2062.19 -3.30386 -5.8506 0
M  V30 22806 N 2064.91 1.40216 -0.719531 0
M  V30 22807 C 2066.15 2.00418 -0.260225 0
M  V30 22808 C 2066.47 1.57349 1.15179 0
M  V30 22809 O 2065.74 0.814718 1.78155 0
M  V30 22810 H 2064.32 0.741161 -0.0932204 0
M  V30 22811 H 2066.99 1.71495 -0.926041 0
M  V30 22812 H 2066.08 3.10689 -0.29642 0
M  V30 22813 N 2066.38 0.466004 1.50553 0
M  V30 22814 C 2067.31 -0.320802 2.31286 0
M  V30 22815 C 2068.29 -0.995008 1.37962 0
M  V30 22816 O 2069.48 -0.993158 1.66883 0
M  V30 22817 C 2066.61 -1.40607 3.17564 0
M  V30 22818 C 2065.56 -0.853763 4.19398 0
M  V30 22819 C 2064.89 -2.03694 4.94381 0
M  V30 22820 C 2066.19 0.131478 5.22134 0
M  V30 22821 H 2067.88 0.352995 2.97312 0
M  V30 22822 H 2065.43 0.171207 1.42979 0
M  V30 22823 H 2067.38 -1.96395 3.72836 0
M  V30 22824 H 2066.11 -2.10857 2.49413 0
M  V30 22825 H 2064.77 -0.317899 3.65219 0
M  V30 22826 H 2064.41 -2.7263 4.22708 0
M  V30 22827 H 2064.11 -1.67364 5.63261 0
M  V30 22828 H 2065.64 -2.59982 5.52487 0
M  V30 22829 H 2067.05 -0.337046 5.72308 0
M  V30 22830 H 2065.45 0.408804 5.98706 0
M  V30 22831 H 2066.52 1.05903 4.73194 0
M  V30 22832 N 2067.86 -1.56346 0.198413 0
M  V30 22833 C 2068.77 -2.22855 -0.733001 0
M  V30 22834 C 2069.79 -1.22868 -1.23205 0
M  V30 22835 O 2070.96 -1.55615 -1.27852 0
M  V30 22836 C 2068.03 -2.87746 -1.93399 0
M  V30 22837 C 2067.09 -4.03012 -1.47919 0
M  V30 22838 C 2066.32 -4.64799 -2.62293 0
M  V30 22839 O 2066.55 -4.25516 -3.79859 0
M  V30 22840 O 2065.48 -5.54206 -2.34817 0
M  V30 22841 H 2069.31 -3.03063 -0.196563 0
M  V30 22842 H 2066.89 -1.49368 -0.0310254 0
M  V30 22843 H 2068.77 -3.28788 -2.63584 0
M  V30 22844 H 2067.45 -2.10514 -2.45897 0
M  V30 22845 H 2066.35 -3.66586 -0.746038 0
M  V30 22846 H 2067.69 -4.81917 -1.00084 0
M  V30 22847 N 2069.34 0.0751653 -1.57421 0
M  V30 22848 C 2070.57 0.791793 -1.91691 0
M  V30 22849 C 2070.99 1.70496 -0.794522 0
M  V30 22850 O 2070.35 1.79528 0.25284 0
M  V30 22851 C 2070.4 1.5643 -3.24903 0
M  V30 22852 O 2069.5 2.67473 -3.13898 0
M  V30 22853 H 2068.84 0.21624 -0.627803 0
M  V30 22854 H 2071.37 0.0444189 -2.04552 0
M  V30 22855 H 2071.38 1.94427 -3.58695 0
M  V30 22856 H 2070.06 0.894266 -4.06172 0
M  V30 22857 H 2068.63 2.32357 -2.91658 0
M  V30 22858 N 2070.82 1.53744 0.346476 0
M  V30 22859 C 2071.75 1.77836 1.44592 0
M  V30 22860 C 2072.76 0.659581 1.4884 0
M  V30 22861 O 2073.95 0.936252 1.51976 0
M  V30 22862 C 2071.05 1.86049 2.83265 0
M  V30 22863 C 2070.23 3.1594 3.02491 0
M  V30 22864 C 2069.28 3.15147 4.21389 0
M  V30 22865 O 2068.31 3.88879 4.15646 0
M  V30 22866 N 2069.51 2.37309 5.29778 0
M  V30 22867 H 2072.28 2.72709 1.24297 0
M  V30 22868 H 2069.84 1.52758 0.536336 0
M  V30 22869 H 2071.83 1.82973 3.60975 0
M  V30 22870 H 2070.4 0.983753 2.96717 0
M  V30 22871 H 2069.62 3.32163 2.12277 0
M  V30 22872 H 2070.91 4.01743 3.12217 0
M  V30 22873 H 2070.31 1.76952 5.37312 0
M  V30 22874 H 2068.86 2.40034 6.05992 0
M  V30 22875 N 2072.3 -0.607329 1.45428 0
M  V30 22876 C 2073.55 -1.36242 1.48731 0
M  V30 22877 C 2073.86 -1.95145 0.13329 0
M  V30 22878 O 2075.06 -2.71464 0.0439733 0
M  V30 22879 C 2073.52 -2.46792 2.61957 0
M  V30 22880 C 2073.13 -1.94299 4.03673 0
M  V30 22881 C 2074.87 -3.238 2.74507 0
M  V30 22882 C 2072.78 -3.02333 5.0828 0
M  V30 22883 H 2071.71 -0.512076 0.553438 0
M  V30 22884 H 2074.36 -0.650885 1.71568 0
M  V30 22885 H 2072.74 -3.20632 2.32404 0
M  V30 22886 H 2073.92 -1.27167 4.42905 0
M  V30 22887 H 2072.23 -1.30036 3.95575 0
M  V30 22888 H 2074.83 -4.0438 3.4983 0
M  V30 22889 H 2075.17 -3.7482 1.8115 0
M  V30 22890 H 2075.7 -2.5706 3.03587 0
M  V30 22891 H 2072.44 -2.56229 6.03346 0
M  V30 22892 H 2071.96 -3.68031 4.73617 0
M  V30 22893 H 2073.64 -3.6671 5.33041 0
M  V30 22894 N 2073.77 -1.32722 -0.849853 0
M  V30 22895 C 2074.71 -1.1789 -1.96557 0
M  V30 22896 C 2075.72 -0.112655 -1.6241 0
M  V30 22897 O 2076.91 -0.362063 -1.74789 0
M  V30 22898 C 2074.01 -0.783347 -3.29722 0
M  V30 22899 C 2073.18 -1.9389 -3.92078 0
M  V30 22900 C 2072.24 -1.52611 -5.03583 0
M  V30 22901 O 2071.27 -2.23885 -5.2332 0
M  V30 22902 N 2072.47 -0.424856 -5.78943 0
M  V30 22903 H 2075.23 -2.13998 -2.09821 0
M  V30 22904 H 2072.79 -1.25323 -1.02498 0
M  V30 22905 H 2074.79 -0.489511 -4.01729 0
M  V30 22906 H 2073.36 0.0867245 -3.1248 0
M  V30 22907 H 2072.58 -2.39897 -3.12799 0
M  V30 22908 H 2073.86 -2.71238 -4.30473 0
M  V30 22909 H 2073.26 0.168251 -5.6545 0
M  V30 22910 H 2071.82 -0.190647 -6.51521 0
M  V30 22911 N 2075.25 1.06673 -1.16011 0
M  V30 22912 C 2076.48 1.83645 -0.963814 0
M  V30 22913 C 2076.9 1.81793 0.483005 0
M  V30 22914 O 2076.26 1.21592 1.34481 0
M  V30 22915 C 2076.31 3.28326 -1.49113 0
M  V30 22916 O 2075.41 4.06503 -0.694902 0
M  V30 22917 H 2074.75 0.568386 -0.343269 0
M  V30 22918 H 2077.28 1.34523 -1.54158 0
M  V30 22919 H 2077.29 3.7915 -1.50695 0
M  V30 22920 H 2075.97 3.28988 -2.5444 0
M  V30 22921 H 2074.55 3.65295 -0.749278 0
M  V30 22922 N 2076.73 0.957992 1.25141 0
M  V30 22923 C 2078.01 0.531835 1.88231 0
M  V30 22924 C 2078.39 -0.990946 1.86396 0
M  V30 22925 O 2077.74 -1.85817 1.32983 0
M  V30 22926 C 2077.95 1.11229 3.30801 0
M  V30 22927 C 2079.29 1.19121 4.07548 0
M  V30 22928 O 2080.32 1.06409 3.39935 0
M  V30 22929 O 2079.18 1.39103 5.285 0
M  V30 22930 H 2076.27 0.175926 0.808071 0
M  V30 22931 H 2078.82 1.05164 1.33187 0
M  V30 22932 H 2077.59 2.15542 3.26584 0
M  V30 22933 H 2077.21 0.575942 3.93406 0
M  V30 22934 N 2078.21 -1.39832 0.726957 0
M  V30 22935 C 2079.49 -1.94595 0.198042 0
M  V30 22936 C 2079.87 -1.66433 -1.29858 0
M  V30 22937 O 2079.21 -0.98817 -2.06028 0
M  V30 22938 C 2079.42 -3.45059 0.522997 0
M  V30 22939 C 2080.77 -4.22014 0.467902 0
M  V30 22940 O 2081.8 -3.53221 0.459717 0
M  V30 22941 O 2080.65 -5.44599 0.455375 0
M  V30 22942 H 2077.75 -0.826324 0.0334203 0
M  V30 22943 H 2080.29 -1.49377 0.805266 0
M  V30 22944 H 2079.07 -3.58959 1.55769 0
M  V30 22945 H 2078.69 -3.97438 -0.113609 0
M  V30 22946 N 2079.69 -0.473982 -1.50304 0
M  V30 22947 C 2080.92 0.0775007 -2.06455 0
M  V30 22948 C 2081.32 1.33801 -1.33768 0
M  V30 22949 O 2080.67 1.79261 -0.401381 0
M  V30 22950 C 2080.73 0.428656 -3.56935 0
M  V30 22951 C 2080.39 -0.730244 -4.51128 0
M  V30 22952 C 2081.39 -1.6131 -4.94242 0
M  V30 22953 C 2079.08 -0.92139 -4.93777 0
M  V30 22954 C 2081.07 -2.67149 -5.78714 0
M  V30 22955 C 2078.76 -1.98299 -5.78032 0
M  V30 22956 C 2079.75 -2.85641 -6.20402 0
M  V30 22957 O 2079.44 -3.89973 -7.02977 0
M  V30 22958 H 2079.17 -0.00505561 -0.675981 0
M  V30 22959 H 2081.73 -0.662628 -1.94418 0
M  V30 22960 H 2079.96 1.22201 -3.66884 0
M  V30 22961 H 2081.65 0.915562 -3.95439 0
M  V30 22962 H 2082.41 -1.47713 -4.61959 0
M  V30 22963 H 2078.29 -0.251023 -4.60316 0
M  V30 22964 H 2081.84 -3.35352 -6.11706 0
M  V30 22965 H 2077.73 -2.11903 -6.09727 0
M  V30 22966 H 2078.5 -3.86996 -7.21232 0
M  V30 22967 N 2081.16 1.56239 -0.206702 0
M  V30 22968 C 2082.41 1.97513 0.428144 0
M  V30 22969 C 2082.73 1.09514 1.61343 0
M  V30 22970 O 2082 0.168913 1.9517 0
M  V30 22971 H 2080.58 0.729406 0.161169 0
M  V30 22972 H 2083.25 1.92637 -0.296139 0
M  V30 22973 H 2082.34 3.02592 0.764479 0
M  V30 22974 N 2082.64 -0.0668159 1.57458 0
M  V30 22975 C 2083.59 -1.07888 2.04031 0
M  V30 22976 C 2084.56 -1.38168 0.921889 0
M  V30 22977 O 2085.74 -1.49151 1.1899 0
M  V30 22978 C 2082.88 -2.38598 2.49329 0
M  V30 22979 C 2082 -2.14805 3.7481 0
M  V30 22980 C 2081.13 -3.39114 4.0887 0
M  V30 22981 C 2080.17 -3.10708 5.27377 0
M  V30 22982 N 2079.31 -4.27361 5.57052 0
M  V30 22983 H 2084.15 -0.674755 2.9026 0
M  V30 22984 H 2081.69 -0.321602 1.43541 0
M  V30 22985 H 2083.64 -3.14919 2.73646 0
M  V30 22986 H 2082.27 -2.76804 1.6607 0
M  V30 22987 H 2081.33 -1.29154 3.57804 0
M  V30 22988 H 2082.64 -1.89826 4.61267 0
M  V30 22989 H 2081.79 -4.23827 4.34114 0
M  V30 22990 H 2080.53 -3.67174 3.2099 0
M  V30 22991 H 2079.54 -2.24392 5.01925 0
M  V30 22992 H 2080.76 -2.83966 6.16879 0
M  V30 22993 H 2078.71 -4.55443 4.72131 0
M  V30 22994 H 2078.62 -4.05673 6.37938 0
M  V30 22995 H 2079.89 -5.13057 5.8685 0
M  V30 22996 N 2084.12 -1.53926 -0.338317 0
M  V30 22997 C 2085.4 -1.62057 -1.09531 0
M  V30 22998 C 2085.78 -0.445104 -2.06354 0
M  V30 22999 O 2085.13 0.56212 -2.21478 0
M  V30 23000 C 2085.34 -2.98376 -1.81033 0
M  V30 23001 C 2086.68 -3.53912 -2.34589 0
M  V30 23002 O 2087.71 -3.00584 -1.91122 0
M  V30 23003 O 2086.57 -4.472 -3.14125 0
M  V30 23004 H 2083.66 -0.655673 -0.504006 0
M  V30 23005 H 2086.21 -1.66272 -0.339391 0
M  V30 23006 H 2084.98 -3.75366 -1.10525 0
M  V30 23007 H 2084.6 -2.97774 -2.6347 0
M  V30 23008 N 2085.6 0.599608 -1.45748 0
M  V30 23009 C 2086.53 1.72038 -1.57877 0
M  V30 23010 C 2087.51 1.64578 -0.429893 0
M  V30 23011 O 2088.7 1.82855 -0.654037 0
M  V30 23012 C 2085.83 3.10657 -1.55272 0
M  V30 23013 C 2084.78 3.32936 -2.68957 0
M  V30 23014 C 2084.11 4.71909 -2.51408 0
M  V30 23015 C 2085.41 3.22412 -4.10911 0
M  V30 23016 H 2087.1 1.62144 -2.51694 0
M  V30 23017 H 2084.65 0.778641 -1.21133 0
M  V30 23018 H 2086.6 3.8887 -1.62353 0
M  V30 23019 H 2085.32 3.21411 -0.579891 0
M  V30 23020 H 2083.98 2.57117 -2.61317 0
M  V30 23021 H 2083.63 4.79406 -1.52247 0
M  V30 23022 H 2083.33 4.8777 -3.2765 0
M  V30 23023 H 2084.85 5.52311 -2.60355 0
M  V30 23024 H 2086.27 3.90488 -4.19752 0
M  V30 23025 H 2084.66 3.498 -4.87607 0
M  V30 23026 H 2085.73 2.19732 -4.32256 0
M  V30 23027 N 2087.08 1.33171 0.842803 0
M  V30 23028 C 2088.31 1.27434 1.62997 0
M  V30 23029 C 2088.72 -0.155477 1.88159 0
M  V30 23030 O 2088.08 -1.09638 1.45897 0
M  V30 23031 C 2088.13 2.04284 2.98245 0
M  V30 23032 O 2087.85 3.41688 2.74191 0
M  V30 23033 C 2089.35 2.05711 3.9268 0
M  V30 23034 H 2086.57 0.439188 0.507302 0
M  V30 23035 H 2089.11 1.75481 1.05007 0
M  V30 23036 H 2087.27 1.5993 3.52847 0
M  V30 23037 H 2087.68 3.81172 3.60288 0
M  V30 23038 H 2089.16 2.63943 4.84807 0
M  V30 23039 H 2089.63 1.04636 4.26553 0
M  V30 23040 H 2090.24 2.50067 3.44015 0
M  V30 23041 N 2088.56 -1.06056 1.16576 0
M  V30 23042 C 2089.78 -1.83131 0.973539 0
M  V30 23043 C 2090.21 -1.82047 -0.473358 0
M  V30 23044 O 2089.56 -1.22303 -1.33834 0
M  V30 23045 C 2089.61 -3.2753 1.50852 0
M  V30 23046 O 2088.72 -4.06129 0.716451 0
M  V30 23047 H 2088.06 -0.566557 0.346279 0
M  V30 23048 H 2090.59 -1.33704 1.54869 0
M  V30 23049 H 2090.6 -3.78346 1.52704 0
M  V30 23050 H 2089.27 -3.27634 2.56181 0
M  V30 23051 H 2087.85 -3.64892 0.768639 0
M  V30 23052 N 2090.03 -0.964615 -1.24631 0
M  V30 23053 C 2091.28 -0.625742 -1.92905 0
M  V30 23054 C 2091.61 0.836529 -1.75259 0
M  V30 23055 O 2090.89 1.60146 -1.10379 0
M  V30 23056 C 2091.17 -0.997473 -3.46009 0
M  V30 23057 C 2091.02 -2.51621 -3.72836 0
M  V30 23058 C 2092.34 -0.529778 -4.369 0
M  V30 23059 H 2089.46 -0.228804 -0.700584 0
M  V30 23060 H 2092.1 -1.20306 -1.47059 0
M  V30 23061 H 2090.25 -0.506207 -3.85188 0
M  V30 23062 H 2091.93 -3.082 -3.43235 0
M  V30 23063 H 2090.17 -2.94954 -3.18095 0
M  V30 23064 H 2090.84 -2.72681 -4.79947 0
M  V30 23065 H 2093.32 -0.951326 -4.05079 0
M  V30 23066 H 2092.19 -0.818472 -5.42764 0
M  V30 23067 H 2092.45 0.570178 -4.38408 0
M  V30 23068 N 2091.51 1.39445 -0.734362 0
M  V30 23069 C 2092.46 2.32452 -0.0830804 0
M  V30 23070 C 2093.45 1.53028 0.726556 0
M  V30 23071 O 2094.66 1.68697 0.627813 0
M  V30 23072 H 2091.03 0.751957 -0.00806559 0
M  V30 23073 H 2093.01 2.85008 -0.883901 0
M  V30 23074 C 2091.75 3.38121 0.810522 0
M  V30 23075 H 2091.08 3.99315 0.196919 0
M  V30 23076 H 2092.52 4.0565 1.23385 0
M  V30 23077 C 2090.98 2.75118 1.94453 0
M  V30 23078 O 2091.51 2.62913 3.0371 0
M  V30 23079 N 2089.71 2.33215 1.73376 0
M  V30 23080 H 2089.26 2.43341 0.845144 0
M  V30 23081 H 2089.22 1.914 2.49426 0
M  V30 23082 N 2092.99 0.481946 1.5005 0
M  V30 23083 C 2094.24 -0.0710199 2.01575 0
M  V30 23084 C 2094.55 -1.39798 1.36806 0
M  V30 23085 O 2095.76 -2.03653 1.79549 0
M  V30 23086 C 2094.21 -0.177064 3.59464 0
M  V30 23087 C 2093.82 1.14212 4.33197 0
M  V30 23088 C 2095.57 -0.681409 4.18995 0
M  V30 23089 C 2093.47 0.999274 5.82897 0
M  V30 23090 H 2092.4 -0.0303162 0.75339 0
M  V30 23091 H 2095.05 0.618487 1.72763 0
M  V30 23092 H 2093.44 -0.930598 3.8491 0
M  V30 23093 H 2094.61 1.90745 4.19467 0
M  V30 23094 H 2092.92 1.57841 3.85325 0
M  V30 23095 H 2095.52 -0.805484 5.28598 0
M  V30 23096 H 2095.86 -1.6755 3.81094 0
M  V30 23097 H 2096.4 0.015045 3.97797 0
M  V30 23098 H 2093.14 1.96706 6.2529 0
M  V30 23099 H 2092.66 0.274505 5.99172 0
M  V30 23100 H 2094.34 0.670265 6.43519 0
M  V30 23101 N 2094.47 -1.56127 0.214985 0
M  V30 23102 C 2095.4 -2.22991 -0.69263 0
M  V30 23103 C 2096.38 -1.19946 -1.20611 0
M  V30 23104 O 2097.56 -1.48512 -1.25131 0
M  V30 23105 C 2094.69 -2.90473 -1.90376 0
M  V30 23106 C 2093.65 -3.99933 -1.52439 0
M  V30 23107 C 2092.97 -4.54678 -2.81375 0
M  V30 23108 C 2094.27 -5.17323 -0.719325 0
M  V30 23109 H 2095.97 -2.99095 -0.135168 0
M  V30 23110 H 2093.51 -1.4386 -0.0635721 0
M  V30 23111 H 2095.47 -3.35938 -2.54408 0
M  V30 23112 H 2094.19 -2.11806 -2.48608 0
M  V30 23113 H 2092.85 -3.55189 -0.907557 0
M  V30 23114 H 2092.5 -3.72749 -3.37739 0
M  V30 23115 H 2092.2 -5.28549 -2.56729 0
M  V30 23116 H 2093.72 -5.02857 -3.46362 0
M  V30 23117 H 2095.14 -5.5921 -1.2632 0
M  V30 23118 H 2093.53 -5.97385 -0.570203 0
M  V30 23119 H 2094.6 -4.84117 0.275461 0
M  V30 23120 N 2095.95 0.0584645 -1.57492 0
M  V30 23121 C 2096.88 1.0681 -2.07639 0
M  V30 23122 C 2097.86 1.3955 -0.972622 0
M  V30 23123 O 2099.04 1.48946 -1.24615 0
M  V30 23124 C 2096.17 2.37774 -2.53142 0
M  V30 23125 C 2095.13 2.19354 -3.67516 0
M  V30 23126 C 2094.45 3.5582 -3.9912 0
M  V30 23127 C 2095.75 1.60379 -4.97067 0
M  V30 23128 H 2097.45 0.650765 -2.92242 0
M  V30 23129 H 2094.99 0.311587 -1.40589 0
M  V30 23130 H 2096.94 3.08709 -2.86839 0
M  V30 23131 H 2095.67 2.81513 -1.65583 0
M  V30 23132 H 2094.33 1.50858 -3.34122 0
M  V30 23133 H 2093.98 3.97153 -3.08672 0
M  V30 23134 H 2093.68 3.4433 -4.76142 0
M  V30 23135 H 2095.2 4.28164 -4.35325 0
M  V30 23136 H 2096.61 2.21195 -5.2891 0
M  V30 23137 H 2095.01 1.59548 -5.78502 0
M  V30 23138 H 2096.08 0.566547 -4.81579 0
M  V30 23139 N 2097.42 1.54103 0.330149 0
M  V30 23140 C 2098.37 1.83029 1.40603 0
M  V30 23141 C 2099.34 0.676907 1.51681 0
M  V30 23142 O 2100.53 0.922683 1.67007 0
M  V30 23143 C 2097.67 2.05745 2.77061 0
M  V30 23144 C 2096.78 3.3344 2.74667 0
M  V30 23145 C 2095.91 3.46152 4.02929 0
M  V30 23146 C 2094.95 4.67746 3.94817 0
M  V30 23147 N 2094.09 4.7742 5.14796 0
M  V30 23148 H 2098.93 2.74817 1.15236 0
M  V30 23149 H 2096.47 1.36107 0.557963 0
M  V30 23150 H 2098.42 2.16907 3.56381 0
M  V30 23151 H 2097.05 1.17255 3.00751 0
M  V30 23152 H 2096.11 3.3105 1.87376 0
M  V30 23153 H 2097.42 4.22863 2.64554 0
M  V30 23154 H 2096.57 3.5682 4.90678 0
M  V30 23155 H 2095.31 2.5481 4.15841 0
M  V30 23156 H 2094.32 4.57142 3.05453 0
M  V30 23157 H 2095.54 5.60467 3.83476 0
M  V30 23158 H 2093.49 3.88991 5.28225 0
M  V30 23159 H 2093.4 5.60799 5.06991 0
M  V30 23160 H 2094.67 4.92412 6.04277 0
M  V30 23161 N 2098.9 -0.59187 1.46064 0
M  V30 23162 C 2099.85 -1.70158 1.55933 0
M  V30 23163 C 2100.82 -1.61107 0.404181 0
M  V30 23164 O 2102 -1.80455 0.619725 0
M  V30 23165 C 2099.14 -3.08488 1.5469 0
M  V30 23166 C 2098.26 -3.2823 2.80872 0
M  V30 23167 C 2097.39 -4.56757 2.71195 0
M  V30 23168 C 2096.43 -4.6981 3.92358 0
M  V30 23169 N 2095.57 -5.89653 3.81121 0
M  V30 23170 H 2100.41 -1.61059 2.50727 0
M  V30 23171 H 2097.95 -0.785101 1.24397 0
M  V30 23172 H 2099.9 -3.88542 1.51956 0
M  V30 23173 H 2098.53 -3.16506 0.634355 0
M  V30 23174 H 2097.59 -2.41843 2.93626 0
M  V30 23175 H 2098.9 -3.33745 3.70696 0
M  V30 23176 H 2098.05 -5.45027 2.66515 0
M  V30 23177 H 2096.79 -4.53665 1.78996 0
M  V30 23178 H 2095.8 -3.7996 3.9738 0
M  V30 23179 H 2097.02 -4.74688 4.85642 0
M  V30 23180 H 2094.97 -5.87576 2.91702 0
M  V30 23181 H 2094.88 -5.96397 4.64593 0
M  V30 23182 H 2096.15 -6.80379 3.80401 0
M  V30 23183 N 2100.38 -1.33616 -0.835729 0
M  V30 23184 C 2101.31 -1.19968 -1.95296 0
M  V30 23185 C 2102.33 -0.129874 -1.62281 0
M  V30 23186 O 2103.51 -0.380581 -1.74396 0
M  V30 23187 C 2100.61 -0.818275 -3.28873 0
M  V30 23188 C 2099.79 -1.98038 -3.9 0
M  V30 23189 C 2098.85 -1.57944 -5.01936 0
M  V30 23190 O 2097.87 -2.29423 -5.20916 0
M  V30 23191 N 2099.07 -0.486237 -5.7846 0
M  V30 23192 H 2101.84 -2.16212 -2.0754 0
M  V30 23193 H 2099.4 -1.26403 -1.01163 0
M  V30 23194 H 2101.39 -0.532092 -4.01187 0
M  V30 23195 H 2099.96 0.053577 -3.12554 0
M  V30 23196 H 2099.18 -2.43201 -3.10237 0
M  V30 23197 H 2100.47 -2.75789 -4.27572 0
M  V30 23198 H 2099.87 0.108268 -5.65596 0
M  V30 23199 H 2098.43 -0.259739 -6.51282 0
M  V30 23200 N 2101.86 1.05436 -1.17136 0
M  V30 23201 C 2102.79 2.13111 -0.843582 0
M  V30 23202 C 2103.8 1.6208 0.152942 0
M  V30 23203 O 2104.99 1.78351 -0.0730153 0
M  V30 23204 C 2102.09 3.38072 -0.236753 0
M  V30 23205 C 2101.27 4.18389 -1.27553 0
M  V30 23206 C 2100.32 5.21697 -0.686916 0
M  V30 23207 O 2099.35 5.52761 -1.35807 0
M  V30 23208 N 2100.55 5.78146 0.522229 0
M  V30 23209 H 2103.32 2.41827 -1.7703 0
M  V30 23210 H 2100.88 1.21513 -1.06987 0
M  V30 23211 H 2102.87 4.04342 0.170262 0
M  V30 23212 H 2101.44 3.0691 0.593699 0
M  V30 23213 H 2100.66 3.47645 -1.85839 0
M  V30 23214 H 2101.95 4.6885 -1.97628 0
M  V30 23215 H 2101.35 5.55188 1.0855 0
M  V30 23216 H 2099.9 6.4595 0.871341 0
M  V30 23217 N 2103.34 0.971211 1.24118 0
M  V30 23218 C 2104.27 0.448828 2.23743 0
M  V30 23219 C 2105.25 -0.479005 1.55384 0
M  V30 23220 O 2106.43 -0.409573 1.83997 0
M  V30 23221 C 2103.56 -0.351705 3.36869 0
M  V30 23222 C 2102.6 0.518924 4.23331 0
M  V30 23223 S 2103.44 1.96125 4.98292 0
M  V30 23224 C 2104.59 1.1696 6.14875 0
M  V30 23225 H 2104.83 1.29308 2.67706 0
M  V30 23226 H 2102.36 0.776507 1.33453 0
M  V30 23227 H 2104.32 -0.8076 4.02477 0
M  V30 23228 H 2102.98 -1.17097 2.91457 0
M  V30 23229 H 2102.17 -0.095892 5.03909 0
M  V30 23230 H 2101.77 0.910689 3.62743 0
M  V30 23231 H 2104.07 0.426358 6.76157 0
M  V30 23232 H 2105.01 1.94988 6.80724 0
M  V30 23233 H 2105.42 0.692432 5.60237 0
M  V30 23234 N 2104.81 -1.39054 0.741747 0
M  V30 23235 C 2105.74 -2.33184 0.121433 0
M  V30 23236 C 2106.73 -1.54261 -0.716774 0
M  V30 23237 O 2107.91 -1.82627 -0.660379 0
M  V30 23238 C 2105.04 -3.38393 -0.78152 0
M  V30 23239 C 2103.99 -4.27974 -0.046955 0
M  V30 23240 C 2103.32 -5.23938 -1.06737 0
M  V30 23241 C 2104.62 -5.10272 1.11446 0
M  V30 23242 H 2106.31 -2.85308 0.907724 0
M  V30 23243 H 2103.86 -1.37179 0.437953 0
M  V30 23244 H 2105.81 -4.032 -1.22506 0
M  V30 23245 H 2104.54 -2.84724 -1.6 0
M  V30 23246 H 2103.2 -3.64656 0.377036 0
M  V30 23247 H 2102.84 -4.66562 -1.8796 0
M  V30 23248 H 2102.54 -5.84725 -0.580605 0
M  V30 23249 H 2104.07 -5.91622 -1.51048 0
M  V30 23250 H 2105.48 -5.68386 0.749042 0
M  V30 23251 H 2103.88 -5.80234 1.53131 0
M  V30 23252 H 2104.95 -4.44706 1.93299 0
M  V30 23253 N 2106.29 -0.489897 -1.49792 0
M  V30 23254 C 2107.2 0.29927 -2.32683 0
M  V30 23255 C 2108.22 0.978042 -1.43911 0
M  V30 23256 O 2109.39 0.961875 -1.76946 0
M  V30 23257 C 2106.46 1.35623 -3.19073 0
M  V30 23258 C 2105.52 0.692067 -4.23685 0
M  V30 23259 C 2104.75 1.69866 -5.05946 0
M  V30 23260 O 2104.98 2.92732 -4.89555 0
M  V30 23261 O 2103.91 1.2601 -5.88562 0
M  V30 23262 H 2107.74 -0.378894 -3.01327 0
M  V30 23263 H 2105.32 -0.251411 -1.47269 0
M  V30 23264 H 2107.2 1.96801 -3.72622 0
M  V30 23265 H 2105.88 2.01752 -2.53136 0
M  V30 23266 H 2104.79 0.040831 -3.74078 0
M  V30 23267 H 2106.12 0.0734074 -4.92145 0
M  V30 23268 N 2107.77 1.56011 -0.223262 0
M  V30 23269 C 2108.72 2.21735 0.702604 0
M  V30 23270 C 2109.71 1.19729 1.19839 0
M  V30 23271 O 2110.92 1.37804 1.15802 0
M  V30 23272 H 2107.29 0.71097 0.245002 0
M  V30 23273 H 2109.26 2.98139 0.124869 0
M  V30 23274 C 2108.01 2.91245 1.89925 0
M  V30 23275 H 2107.34 3.69496 1.52686 0
M  V30 23276 H 2108.78 3.4063 2.52482 0
M  V30 23277 C 2107.24 1.9381 2.75571 0
M  V30 23278 O 2107.77 1.45612 3.74379 0
M  V30 23279 N 2105.97 1.61422 2.41643 0
M  V30 23280 H 2105.52 2.00811 1.61347 0
M  V30 23281 H 2105.48 0.964905 2.99227 0
M  V30 23282 N 2109.25 -0.0501116 1.5752 0
M  V30 23283 C 2110.18 -1.08434 2.01928 0
M  V30 23284 C 2111.19 -1.33718 0.928613 0
M  V30 23285 O 2112.38 -1.31576 1.20623 0
M  V30 23286 C 2109.48 -2.43065 2.36162 0
M  V30 23287 C 2108.66 -2.37433 3.67347 0
M  V30 23288 C 2107.71 -3.54345 3.89007 0
M  V30 23289 O 2106.74 -3.3479 4.60331 0
M  V30 23290 N 2107.94 -4.75475 3.33022 0
M  V30 23291 H 2110.71 -0.705995 2.91266 0
M  V30 23292 H 2108.27 -0.238421 1.60135 0
M  V30 23293 H 2110.26 -3.19959 2.47807 0
M  V30 23294 H 2108.83 -2.72821 1.52603 0
M  V30 23295 H 2108.05 -1.45778 3.66254 0
M  V30 23296 H 2109.34 -2.30792 4.53445 0
M  V30 23297 H 2108.74 -4.94264 2.75171 0
M  V30 23298 H 2107.29 -5.49806 3.50081 0
M  V30 23299 N 2110.73 -1.54276 -0.321972 0
M  V30 23300 C 2111.66 -1.7862 -1.42021 0
M  V30 23301 C 2112.64 -0.636264 -1.49634 0
M  V30 23302 O 2113.82 -0.873881 -1.6702 0
M  V30 23303 C 2110.95 -1.90419 -2.80104 0
M  V30 23304 C 2109.99 -3.1272 -2.90015 0
M  V30 23305 S 2110.83 -4.71288 -2.5426 0
M  V30 23306 C 2111.98 -4.85995 -3.94411 0
M  V30 23307 H 2112.22 -2.71492 -1.21158 0
M  V30 23308 H 2109.75 -1.45419 -0.518899 0
M  V30 23309 H 2111.71 -1.97902 -3.59646 0
M  V30 23310 H 2110.37 -0.985223 -2.98249 0
M  V30 23311 H 2109.56 -3.17715 -3.91246 0
M  V30 23312 H 2109.16 -3.03574 -2.18446 0
M  V30 23313 H 2111.46 -4.6873 -4.89182 0
M  V30 23314 H 2112.4 -5.88095 -3.94398 0
M  V30 23315 H 2112.81 -4.14288 -3.83439 0
M  V30 23316 N 2112.2 0.584116 -1.46376 0
M  V30 23317 C 2113.11 1.72116 -1.59415 0
M  V30 23318 C 2114.13 1.67314 -0.477692 0
M  V30 23319 O 2115.31 1.87248 -0.74162 0
M  V30 23320 C 2112.37 3.08617 -1.57975 0
M  V30 23321 C 2111.43 3.24694 -2.80842 0
M  V30 23322 C 2110.67 4.54683 -2.79462 0
M  V30 23323 O 2110.89 5.38484 -1.88126 0
M  V30 23324 O 2109.82 4.73977 -3.70985 0
M  V30 23325 H 2113.65 1.64062 -2.55572 0
M  V30 23326 H 2111.23 0.750995 -1.29153 0
M  V30 23327 H 2113.12 3.899 -1.59863 0
M  V30 23328 H 2111.79 3.17111 -0.649775 0
M  V30 23329 H 2110.7 2.4291 -2.84509 0
M  V30 23330 H 2112.03 3.2109 -3.73044 0
M  V30 23331 N 2113.68 1.34058 0.828631 0
M  V30 23332 C 2114.93 1.2628 1.58686 0
M  V30 23333 C 2115.26 -0.168425 1.93468 0
M  V30 23334 O 2114.54 -1.11237 1.59551 0
M  V30 23335 C 2114.82 2.14808 2.89015 0
M  V30 23336 C 2114.67 3.66439 2.60849 0
M  V30 23337 C 2115.99 2.02902 3.90536 0
M  V30 23338 H 2113.11 0.460068 0.575766 0
M  V30 23339 H 2115.75 1.64256 0.954988 0
M  V30 23340 H 2113.9 1.82551 3.42939 0
M  V30 23341 H 2115.58 4.09036 2.13278 0
M  V30 23342 H 2113.82 3.87811 1.94384 0
M  V30 23343 H 2114.49 4.23742 3.53761 0
M  V30 23344 H 2116.97 2.31212 3.45948 0
M  V30 23345 H 2115.84 2.6708 4.79541 0
M  V30 23346 H 2116.1 1.00429 4.30542 0
M  V30 23347 N 2115.16 -1.04814 1.17694 0
M  V30 23348 C 2116.58 -1.3006 0.925018 0
M  V30 23349 C 2116.78 -1.97207 -0.4137 0
M  V30 23350 O 2115.83 -2.24802 -1.14979 0
M  V30 23351 C 2117.15 -2.16666 2.0851 0
M  V30 23352 C 2118.69 -2.30036 2.12256 0
M  V30 23353 C 2119.17 -3.20004 3.27661 0
M  V30 23354 N 2120.66 -3.2759 3.27473 0
M  V30 23355 C 2121.4 -3.97339 4.13412 0
M  V30 23356 N 2120.89 -4.69483 5.09468 0
M  V30 23357 N 2122.68 -3.93542 4.01349 0
M  V30 23358 H 2114.84 -0.596316 2.03857 0
M  V30 23359 H 2117.1 -0.325581 0.890338 0
M  V30 23360 H 2116.8 -1.74624 3.05286 0
M  V30 23361 H 2116.68 -3.17317 2.03936 0
M  V30 23362 H 2119.07 -2.71318 1.16063 0
M  V30 23363 H 2119.15 -1.29001 2.2089 0
M  V30 23364 H 2118.79 -2.79435 4.24121 0
M  V30 23365 H 2118.72 -4.21053 3.16263 0
M  V30 23366 H 2121.21 -2.76191 2.57928 0
M  V30 23367 H 2121.52 -5.20277 5.7143 0
M  V30 23368 H 2119.87 -4.68413 5.13434 0
M  V30 23369 H 2123.06 -3.36308 3.25599 0
M  V30 23370 H 2123.23 -4.4763 4.68542 0
M  V30 23371 N 2116.64 -0.977779 -1.23601 0
M  V30 23372 C 2117.59 -0.51555 -2.24968 0
M  V30 23373 C 2118.56 0.4442 -1.6005 0
M  V30 23374 O 2119.74 0.352328 -1.87519 0
M  V30 23375 C 2116.88 0.17842 -3.44638 0
M  V30 23376 C 2115.99 -0.821283 -4.24121 0
M  V30 23377 C 2115.13 -0.102387 -5.31101 0
M  V30 23378 C 2114.17 -1.09148 -6.0229 0
M  V30 23379 N 2113.31 -0.401914 -7.00949 0
M  V30 23380 H 2118.15 -1.38475 -2.63872 0
M  V30 23381 H 2115.68 -0.693946 -1.29703 0
M  V30 23382 H 2117.64 0.597555 -4.12898 0
M  V30 23383 H 2116.27 1.01151 -3.06543 0
M  V30 23384 H 2115.32 -1.35882 -3.55303 0
M  V30 23385 H 2116.63 -1.5751 -4.73278 0
M  V30 23386 H 2115.79 0.374242 -6.05545 0
M  V30 23387 H 2114.53 0.684048 -4.82879 0
M  V30 23388 H 2113.53 -1.57889 -5.26641 0
M  V30 23389 H 2114.76 -1.87853 -6.52601 0
M  V30 23390 H 2112.7 0.365361 -6.54982 0
M  V30 23391 H 2112.62 -1.09443 -7.48036 0
M  V30 23392 H 2113.89 0.0524137 -7.79482 0
M  V30 23393 N 2118.12 1.38658 -0.749111 0
M  V30 23394 C 2119.06 2.30496 -0.118423 0
M  V30 23395 C 2120.03 1.49947 0.714492 0
M  V30 23396 O 2121.22 1.78591 0.671546 0
M  V30 23397 C 2118.36 3.3635 0.772186 0
M  V30 23398 C 2117.47 4.31935 -0.0748716 0
M  V30 23399 C 2116.61 5.24859 0.818323 0
M  V30 23400 C 2115.65 6.12091 -0.0326386 0
M  V30 23401 N 2114.78 6.97327 0.817267 0
M  V30 23402 H 2119.62 2.83856 -0.90718 0
M  V30 23403 H 2117.16 1.39755 -0.459001 0
M  V30 23404 H 2119.12 3.96326 1.30313 0
M  V30 23405 H 2117.75 2.84411 1.52677 0
M  V30 23406 H 2116.8 3.73458 -0.723395 0
M  V30 23407 H 2118.11 4.93396 -0.732237 0
M  V30 23408 H 2117.27 5.8993 1.4166 0
M  V30 23409 H 2116.01 4.63754 1.50943 0
M  V30 23410 H 2115.01 5.4602 -0.643614 0
M  V30 23411 H 2116.24 6.75264 -0.720742 0
M  V30 23412 H 2114.18 6.38775 1.49341 0
M  V30 23413 H 2114.1 7.55689 0.216698 0
M  V30 23414 H 2115.37 7.66813 1.40066 0
M  V30 23415 N 2119.6 0.497834 1.49531 0
M  V30 23416 C 2120.51 -0.286926 2.32839 0
M  V30 23417 C 2121.52 -0.970397 1.44427 0
M  V30 23418 O 2122.7 -0.952478 1.77454 0
M  V30 23419 C 2119.76 -1.33928 3.19788 0
M  V30 23420 C 2118.82 -0.669588 4.24046 0
M  V30 23421 C 2118.06 -1.67181 5.0684 0
M  V30 23422 O 2118.28 -2.90132 4.91101 0
M  V30 23423 O 2117.21 -1.22887 5.89222 0
M  V30 23424 H 2121.04 0.394869 3.01122 0
M  V30 23425 H 2118.62 0.259218 1.47134 0
M  V30 23426 H 2120.51 -1.94822 3.73661 0
M  V30 23427 H 2119.18 -2.00407 2.54202 0
M  V30 23428 H 2118.09 -0.0209922 3.74094 0
M  V30 23429 H 2119.42 -0.0473067 4.92177 0
M  V30 23430 N 2121.07 -1.5589 0.231532 0
M  V30 23431 C 2122.32 -1.97737 -0.397859 0
M  V30 23432 C 2122.64 -1.12252 -1.60184 0
M  V30 23433 O 2123.84 -1.44042 -2.30139 0
M  V30 23434 C 2122.3 -3.518 -0.759238 0
M  V30 23435 C 2121.91 -4.46003 0.422484 0
M  V30 23436 C 2123.65 -4.02338 -1.35368 0
M  V30 23437 C 2121.56 -5.91388 0.0381149 0
M  V30 23438 H 2120.49 -0.738433 -0.152423 0
M  V30 23439 H 2123.14 -1.80521 0.329322 0
M  V30 23440 H 2121.52 -3.64654 -1.54412 0
M  V30 23441 H 2122.69 -4.44902 1.19996 0
M  V30 23442 H 2121.01 -4.05863 0.930821 0
M  V30 23443 H 2123.61 -5.08464 -1.65433 0
M  V30 23444 H 2123.95 -3.48776 -2.2729 0
M  V30 23445 H 2124.48 -3.92747 -0.632021 0
M  V30 23446 H 2121.22 -6.48954 0.924083 0
M  V30 23447 H 2120.74 -5.9566 -0.703473 0
M  V30 23448 H 2122.42 -6.45853 -0.385094 0
M  V30 23449 N 2122.55 0.0417572 -1.57545 0
M  V30 23450 C 2123.46 1.06351 -2.09109 0
M  V30 23451 C 2124.48 1.40464 -1.02694 0
M  V30 23452 O 2125.65 1.50038 -1.34352 0
M  V30 23453 C 2122.72 2.34925 -2.54973 0
M  V30 23454 C 2121.78 2.0751 -3.75816 0
M  V30 23455 C 2121.01 3.29954 -4.19483 0
M  V30 23456 O 2121.24 4.40174 -3.62772 0
M  V30 23457 O 2120.17 3.16399 -5.12031 0
M  V30 23458 H 2124 0.655348 -2.96545 0
M  V30 23459 H 2121.58 0.257909 -1.47157 0
M  V30 23460 H 2123.46 3.10537 -2.84859 0
M  V30 23461 H 2122.14 2.75062 -1.70653 0
M  V30 23462 H 2121.04 1.29507 -3.50968 0
M  V30 23463 H 2122.38 1.72237 -4.61081 0
M  V30 23464 N 2124.03 1.54445 0.313786 0
M  V30 23465 C 2124.94 1.87547 1.40937 0
M  V30 23466 C 2125.96 0.768341 1.56117 0
M  V30 23467 O 2127.13 1.06358 1.71026 0
M  V30 23468 C 2124.2 2.10467 2.75508 0
M  V30 23469 C 2123.26 3.34232 2.69421 0
M  V30 23470 C 2122.49 3.56049 3.97574 0
M  V30 23471 O 2122.71 2.81118 4.96316 0
M  V30 23472 O 2121.65 4.49546 4.0024 0
M  V30 23473 H 2125.47 2.80728 1.15868 0
M  V30 23474 H 2123.06 1.40473 0.508698 0
M  V30 23475 H 2124.94 2.26817 3.55151 0
M  V30 23476 H 2123.62 1.20474 3.00446 0
M  V30 23477 H 2122.52 3.23259 1.88294 0
M  V30 23478 H 2123.86 4.24314 2.49436 0
M  V30 23479 N 2125.51 -0.576345 1.46683 0
M  V30 23480 C 2126.44 -1.69505 1.60594 0
M  V30 23481 C 2127.42 -1.63873 0.456022 0
M  V30 23482 O 2128.6 -1.81791 0.683045 0
M  V30 23483 C 2125.73 -3.08148 1.60194 0
M  V30 23484 C 2124.69 -3.28615 2.7422 0
M  V30 23485 C 2124.01 -4.6785 2.58884 0
M  V30 23486 C 2125.31 -3.15834 4.15989 0
M  V30 23487 H 2127.01 -1.58119 2.54241 0
M  V30 23488 H 2124.55 -0.759271 1.22356 0
M  V30 23489 H 2126.51 -3.86237 1.68519 0
M  V30 23490 H 2125.23 -3.20447 0.630952 0
M  V30 23491 H 2123.89 -2.52927 2.65375 0
M  V30 23492 H 2123.54 -4.76923 1.59854 0
M  V30 23493 H 2123.24 -4.82495 3.35368 0
M  V30 23494 H 2124.76 -5.48099 2.69109 0
M  V30 23495 H 2126.18 -3.83761 4.25911 0
M  V30 23496 H 2124.57 -3.41998 4.9311 0
M  V30 23497 H 2125.64 -2.12828 4.35698 0
M  V30 23498 N 2126.99 -1.34495 -0.82151 0
M  V30 23499 C 2127.92 -1.22033 -1.94012 0
M  V30 23500 C 2128.93 -0.147079 -1.62134 0
M  V30 23501 O 2130.12 -0.399057 -1.73982 0
M  V30 23502 C 2127.22 -0.85311 -3.27987 0
M  V30 23503 C 2126.39 -2.02163 -3.87877 0
M  V30 23504 C 2125.45 -1.63259 -5.00233 0
M  V30 23505 O 2124.48 -2.34935 -5.18454 0
M  V30 23506 N 2125.68 -0.547563 -5.77912 0
M  V30 23507 H 2128.44 -2.18401 -2.05235 0
M  V30 23508 H 2126.01 -1.27469 -0.998165 0
M  V30 23509 H 2128 -0.574614 -4.006 0
M  V30 23510 H 2126.57 0.0204234 -3.12593 0
M  V30 23511 H 2125.79 -2.46478 -3.0764 0
M  V30 23512 H 2127.08 -2.80308 -4.24623 0
M  V30 23513 H 2126.47 0.0482732 -5.65679 0
M  V30 23514 H 2125.03 -0.328801 -6.5097 0
M  V30 23515 N 2128.46 1.04188 -1.18248 0
M  V30 23516 C 2129.69 1.81559 -1.00255 0
M  V30 23517 C 2130.11 1.82777 0.444336 0
M  V30 23518 O 2129.47 1.24417 1.31872 0
M  V30 23519 C 2129.52 3.25089 -1.56044 0
M  V30 23520 O 2128.62 4.04938 -0.780971 0
M  V30 23521 H 2127.97 0.560976 -0.355248 0
M  V30 23522 H 2130.5 1.31223 -1.56977 0
M  V30 23523 H 2130.51 3.75869 -1.58703 0
M  V30 23524 H 2129.18 3.23517 -2.61361 0
M  V30 23525 H 2127.76 3.63623 -0.826593 0
M  V30 23526 N 2129.94 0.98432 1.23081 0
M  V30 23527 C 2130.87 0.48581 2.23992 0
M  V30 23528 C 2131.89 -0.414468 1.57436 0
M  V30 23529 O 2133.08 -0.217976 1.77164 0
M  V30 23530 C 2130.18 -0.316143 3.37422 0
M  V30 23531 C 2129.35 0.578204 4.33561 0
M  V30 23532 C 2128.41 -0.170568 5.25923 0
M  V30 23533 O 2127.43 0.441138 5.67488 0
M  V30 23534 N 2128.64 -1.45541 5.61959 0
M  V30 23535 H 2131.4 1.3535 2.67396 0
M  V30 23536 H 2128.96 0.858041 1.37293 0
M  V30 23537 H 2130.95 -0.825504 3.96191 0
M  V30 23538 H 2129.52 -1.08487 2.93171 0
M  V30 23539 H 2128.74 1.26835 3.73238 0
M  V30 23540 H 2130.03 1.18757 4.94747 0
M  V30 23541 H 2129.43 -1.97385 5.30147 0
M  V30 23542 H 2127.99 -1.91013 6.23183 0
M  V30 23543 N 2131.42 -1.38259 0.756453 0
M  V30 23544 C 2132.38 -2.28779 0.138891 0
M  V30 23545 C 2133.38 -1.47321 -0.644449 0
M  V30 23546 O 2134.57 -1.67732 -0.470292 0
M  V30 23547 C 2131.71 -3.311 -0.811535 0
M  V30 23548 H 2132.9 -2.84898 0.936651 0
M  V30 23549 H 2130.45 -1.47267 0.52365 0
M  V30 23550 H 2131.19 -2.80076 -1.63487 0
M  V30 23551 H 2130.97 -3.91288 -0.252199 0
M  V30 23552 H 2132.46 -3.9878 -1.23953 0
M  V30 23553 N 2132.9 -0.505757 -1.49264 0
M  V30 23554 C 2133.83 0.30691 -2.27136 0
M  V30 23555 C 2134.84 0.926357 -1.33875 0
M  V30 23556 O 2136.03 0.808892 -1.5912 0
M  V30 23557 C 2133.13 1.44752 -3.06431 0
M  V30 23558 C 2132.31 0.934498 -4.27301 0
M  V30 23559 C 2131.36 1.95329 -4.88603 0
M  V30 23560 O 2130.39 1.51993 -5.48532 0
M  V30 23561 N 2131.59 3.28401 -4.78678 0
M  V30 23562 H 2134.36 -0.360836 -2.9752 0
M  V30 23563 H 2131.92 -0.338592 -1.5832 0
M  V30 23564 H 2133.91 2.12672 -3.44315 0
M  V30 23565 H 2132.48 2.01934 -2.38624 0
M  V30 23566 H 2131.7 0.0800492 -3.94119 0
M  V30 23567 H 2132.99 0.570223 -5.05595 0
M  V30 23568 H 2132.39 3.66295 -4.31097 0
M  V30 23569 H 2130.94 3.92022 -5.20732 0
M  V30 23570 N 2134.38 1.55765 -0.239796 0
M  V30 23571 C 2135.34 2.19809 0.649364 0
M  V30 23572 C 2136.34 1.16526 1.10808 0
M  V30 23573 O 2137.53 1.41651 1.01394 0
M  V30 23574 C 2134.66 2.83599 1.89168 0
M  V30 23575 H 2135.85 2.99763 0.0907114 0
M  V30 23576 H 2133.41 1.56297 0.00977153 0
M  V30 23577 H 2134.14 2.07564 2.49174 0
M  V30 23578 H 2133.93 3.5925 1.57104 0
M  V30 23579 H 2135.42 3.32634 2.52477 0
M  V30 23580 N 2135.85 -0.0334016 1.57565 0
M  V30 23581 C 2136.78 -1.03494 2.09312 0
M  V30 23582 C 2137.77 -1.37985 0.9947 0
M  V30 23583 O 2138.95 -1.46944 1.26969 0
M  V30 23584 C 2136.08 -2.33717 2.56892 0
M  V30 23585 C 2135.03 -2.1348 3.70959 0
M  V30 23586 C 2134.36 -3.49425 4.0473 0
M  V30 23587 C 2135.66 -1.52451 4.99556 0
M  V30 23588 H 2137.35 -0.60419 2.9324 0
M  V30 23589 H 2134.9 -0.289182 1.41066 0
M  V30 23590 H 2136.85 -3.04107 2.91714 0
M  V30 23591 H 2135.58 -2.78843 1.70041 0
M  V30 23592 H 2134.24 -1.45523 3.3648 0
M  V30 23593 H 2133.88 -3.92192 3.14952 0
M  V30 23594 H 2133.58 -3.36711 4.81559 0
M  V30 23595 H 2135.11 -4.21184 4.42082 0
M  V30 23596 H 2136.52 -2.12753 5.32362 0
M  V30 23597 H 2134.92 -1.50324 5.80967 0
M  V30 23598 H 2135.99 -0.48986 4.82419 0
M  V30 23599 N 2137.33 -1.54609 -0.305591 0
M  V30 23600 C 2138.56 -1.77981 -1.06479 0
M  V30 23601 C 2138.98 -0.535455 -1.80318 0
M  V30 23602 O 2138.34 0.513813 -1.73867 0
M  V30 23603 C 2138.39 -2.984 -2.0246 0
M  V30 23604 O 2137.49 -2.71203 -3.10681 0
M  V30 23605 H 2136.83 -0.589228 -0.306114 0
M  V30 23606 H 2139.36 -2.0168 -0.344411 0
M  V30 23607 H 2139.37 -3.26244 -2.45008 0
M  V30 23608 H 2138.05 -3.8863 -1.48121 0
M  V30 23609 H 2136.63 -2.54362 -2.7268 0
M  V30 23610 N 2138.81 0.568558 -1.46987 0
M  V30 23611 C 2139.74 1.69147 -1.54668 0
M  V30 23612 C 2140.76 1.56914 -0.433789 0
M  V30 23613 O 2141.94 1.6408 -0.702853 0
M  V30 23614 C 2139.04 3.07522 -1.4242 0
M  V30 23615 C 2138.22 3.45619 -2.68078 0
M  V30 23616 C 2137.28 4.63111 -2.49829 0
M  V30 23617 O 2136.3 4.68261 -3.23605 0
M  V30 23618 N 2137.5 5.5889 -1.56914 0
M  V30 23619 H 2140.27 1.63008 -2.51492 0
M  V30 23620 H 2137.83 0.75491 -1.43223 0
M  V30 23621 H 2139.82 3.83937 -1.27963 0
M  V30 23622 H 2138.39 3.07949 -0.537222 0
M  V30 23623 H 2137.61 2.58767 -2.97378 0
M  V30 23624 H 2138.9 3.67844 -3.51523 0
M  V30 23625 H 2138.3 5.57477 -0.961042 0
M  V30 23626 H 2136.86 6.34678 -1.48414 0
M  V30 23627 N 2140.29 1.34929 0.814366 0
M  V30 23628 C 2141.2 1.29305 1.95748 0
M  V30 23629 C 2142.21 0.199261 1.72855 0
M  V30 23630 O 2143.39 0.427261 1.96816 0
M  V30 23631 C 2140.46 1.05688 3.30198 0
M  V30 23632 C 2139.52 2.24305 3.6604 0
M  V30 23633 C 2138.75 2.01805 4.94075 0
M  V30 23634 O 2138.97 0.980584 5.61908 0
M  V30 23635 O 2137.91 2.88973 5.27995 0
M  V30 23636 H 2141.73 2.25492 2.03438 0
M  V30 23637 H 2139.32 1.15222 0.951017 0
M  V30 23638 H 2141.2 0.943332 4.10706 0
M  V30 23639 H 2139.87 0.125466 3.23457 0
M  V30 23640 H 2138.78 2.41222 2.85942 0
M  V30 23641 H 2140.11 3.15866 3.77478 0
M  V30 23642 N 2141.77 -1.0356 1.18799 0
M  V30 23643 C 2143.01 -1.76497 0.984535 0
M  V30 23644 C 2143.34 -1.88833 -0.486544 0
M  V30 23645 O 2142.61 -1.41702 -1.35268 0
M  V30 23646 H 2141.19 -0.653818 0.36129 0
M  V30 23647 H 2143.85 -1.24956 1.49573 0
M  V30 23648 H 2142.94 -2.77573 1.42687 0
M  V30 23649 N 2143.25 -0.990834 -1.22557 0
M  V30 23650 C 2144.19 -0.539382 -2.24409 0
M  V30 23651 C 2145.16 0.427199 -1.60512 0
M  V30 23652 O 2146.35 0.332419 -1.87882 0
M  V30 23653 C 2143.49 0.141857 -3.44808 0
M  V30 23654 C 2142.6 -0.86622 -4.23226 0
M  V30 23655 C 2141.74 -0.158712 -5.30963 0
M  V30 23656 C 2140.77 -1.1553 -6.01098 0
M  V30 23657 N 2139.91 -0.476237 -7.00483 0
M  V30 23658 H 2144.75 -1.41266 -2.62389 0
M  V30 23659 H 2142.29 -0.707664 -1.28959 0
M  V30 23660 H 2144.25 0.553728 -4.13509 0
M  V30 23661 H 2142.88 0.978941 -3.07598 0
M  V30 23662 H 2141.93 -1.39642 -3.53842 0
M  V30 23663 H 2143.24 -1.62521 -4.71581 0
M  V30 23664 H 2142.39 0.309995 -6.05908 0
M  V30 23665 H 2141.13 0.632794 -4.83577 0
M  V30 23666 H 2140.14 -1.63465 -5.24937 0
M  V30 23667 H 2141.36 -1.94764 -6.50572 0
M  V30 23668 H 2139.31 0.295871 -6.55332 0
M  V30 23669 H 2139.23 -1.1737 -7.46833 0
M  V30 23670 H 2140.49 -0.0302638 -7.79494 0
M  V30 23671 N 2144.72 1.37856 -0.763775 0
M  V30 23672 C 2145.95 2.04686 -0.334395 0
M  V30 23673 C 2146.37 1.57229 1.0325 0
M  V30 23674 O 2145.73 0.728884 1.66003 0
M  V30 23675 C 2145.78 3.58616 -0.377715 0
M  V30 23676 O 2144.88 4.07641 0.624687 0
M  V30 23677 H 2144.22 0.647714 -0.146161 0
M  V30 23678 H 2146.75 1.76329 -1.03774 0
M  V30 23679 H 2146.76 4.07339 -0.232185 0
M  V30 23680 H 2145.44 3.92514 -1.37496 0
M  V30 23681 H 2144.02 3.7026 0.442931 0
M  V30 23682 N 2146.2 0.513665 1.48994 0
M  V30 23683 C 2147.43 -0.0227686 2.06887 0
M  V30 23684 C 2147.84 -1.29658 1.37238 0
M  V30 23685 O 2147.2 -1.76745 0.454679 0
M  V30 23686 C 2147.25 -0.267284 3.60511 0
M  V30 23687 O 2146.97 0.956043 4.27541 0
M  V30 23688 C 2148.47 -0.845937 4.35154 0
M  V30 23689 H 2145.69 0.0261591 0.67049 0
M  V30 23690 H 2148.24 0.714646 1.91607 0
M  V30 23691 H 2146.39 -0.954707 3.75452 0
M  V30 23692 H 2146.81 0.726684 5.19442 0
M  V30 23693 H 2148.28 -0.966539 5.43472 0
M  V30 23694 H 2148.76 -1.84687 3.98481 0
M  V30 23695 H 2149.36 -0.19559 4.2485 0
M  V30 23696 N 2147.68 -1.55636 0.248053 0
M  V30 23697 C 2148.96 -1.90888 -0.426759 0
M  V30 23698 C 2149.34 -1.16894 -1.75781 0
M  V30 23699 O 2148.68 -0.286804 -2.26693 0
M  V30 23700 C 2148.89 -3.43913 -0.593709 0
M  V30 23701 C 2150.24 -4.15188 -0.889059 0
M  V30 23702 O 2151.27 -3.49658 -0.67953 0
M  V30 23703 O 2150.13 -5.31102 -1.28815 0
M  V30 23704 H 2147.22 -0.794576 -0.2293 0
M  V30 23705 H 2149.77 -1.67165 0.292205 0
M  V30 23706 H 2148.54 -3.89784 0.3441 0
M  V30 23707 H 2148.16 -3.73502 -1.36317 0
M  V30 23708 N 2149.16 0.0250451 -1.5758 0
M  V30 23709 C 2150.07 1.04128 -2.10225 0
M  V30 23710 C 2151.08 1.39367 -1.04178 0
M  V30 23711 O 2152.26 1.48605 -1.35936 0
M  V30 23712 C 2149.32 2.32208 -2.5745 0
M  V30 23713 C 2148.39 2.03512 -3.77996 0
M  V30 23714 C 2147.62 3.25486 -4.22959 0
M  V30 23715 O 2147.84 4.36301 -3.6742 0
M  V30 23716 O 2146.78 3.1095 -5.15358 0
M  V30 23717 H 2150.6 0.623859 -2.97223 0
M  V30 23718 H 2148.19 0.242286 -1.47422 0
M  V30 23719 H 2150.07 3.07498 -2.88137 0
M  V30 23720 H 2148.74 2.73237 -1.73561 0
M  V30 23721 H 2147.65 1.25777 -3.52322 0
M  V30 23722 H 2148.98 1.67337 -4.62882 0
M  V30 23723 N 2150.64 1.54769 0.297388 0
M  V30 23724 C 2151.88 1.74479 1.03367 0
M  V30 23725 C 2152.21 0.531007 1.86799 0
M  V30 23726 O 2151.49 -0.471847 1.8869 0
M  V30 23727 C 2151.77 3.03588 1.93665 0
M  V30 23728 C 2151.63 4.35274 1.13389 0
M  V30 23729 C 2152.94 3.28586 2.92779 0
M  V30 23730 H 2150.06 0.63483 0.37438 0
M  V30 23731 H 2152.71 1.87487 0.308023 0
M  V30 23732 H 2150.86 2.9263 2.55538 0
M  V30 23733 H 2152.53 4.58155 0.537739 0
M  V30 23734 H 2150.77 4.31596 0.436685 0
M  V30 23735 H 2151.44 5.21886 1.7983 0
M  V30 23736 H 2153.92 3.39177 2.41035 0
M  V30 23737 H 2152.79 4.20233 3.53122 0
M  V30 23738 H 2153.05 2.47054 3.66629 0
M  V30 23739 N 2152.11 -0.560755 1.47286 0
M  V30 23740 C 2153.39 -1.32148 1.4421 0
M  V30 23741 C 2153.77 -2.10654 0.137154 0
M  V30 23742 O 2153.12 -2.10818 -0.88136 0
M  V30 23743 C 2153.33 -2.22899 2.68546 0
M  V30 23744 C 2154.68 -2.84031 3.15613 0
M  V30 23745 O 2155.7 -2.33202 2.69249 0
M  V30 23746 O 2154.56 -3.76408 3.96206 0
M  V30 23747 H 2151.65 -0.594853 0.574525 0
M  V30 23748 H 2154.2 -0.579952 1.59482 0
M  V30 23749 H 2152.97 -1.64465 3.55059 0
M  V30 23750 H 2152.59 -3.04353 2.55842 0
M  V30 23751 N 2153.59 -1.35359 -0.807199 0
M  V30 23752 C 2154.82 -1.31869 -1.60079 0
M  V30 23753 C 2155.24 0.101387 -1.87827 0
M  V30 23754 O 2154.6 1.06801 -1.46503 0
M  V30 23755 C 2154.65 -2.13049 -2.90934 0
M  V30 23756 O 2153.75 -1.51079 -3.8373 0
M  V30 23757 H 2153.09 -0.452158 -0.486261 0
M  V30 23758 H 2155.62 -1.78391 -1.00189 0
M  V30 23759 H 2155.63 -2.24982 -3.40363 0
M  V30 23760 H 2154.31 -3.16289 -2.70063 0
M  V30 23761 H 2152.88 -1.47982 -3.4228 0
M  V30 23762 N 2155.07 1.02928 -1.19346 0
M  V30 23763 C 2156.02 2.11197 -0.930836 0
M  V30 23764 C 2156.99 1.65557 0.13418 0
M  V30 23765 O 2158.17 1.90798 -0.00787889 0
M  V30 23766 C 2155.31 3.41813 -0.47517 0
M  V30 23767 C 2154.42 4.01002 -1.60691 0
M  V30 23768 C 2153.56 5.19626 -1.10282 0
M  V30 23769 C 2152.6 5.7087 -2.20848 0
M  V30 23770 N 2151.74 6.80769 -1.71749 0
M  V30 23771 H 2156.58 2.32999 -1.85784 0
M  V30 23772 H 2154.11 1.14276 -0.926246 0
M  V30 23773 H 2156.07 4.16756 -0.192384 0
M  V30 23774 H 2154.7 3.20123 0.414844 0
M  V30 23775 H 2153.75 3.23276 -2.00491 0
M  V30 23776 H 2155.06 4.3505 -2.43994 0
M  V30 23777 H 2154.22 6.01727 -0.775236 0
M  V30 23778 H 2152.96 4.87112 -0.239508 0
M  V30 23779 H 2151.96 4.87383 -2.54437 0
M  V30 23780 H 2153.19 6.05424 -3.07633 0
M  V30 23781 H 2151.13 6.50108 -0.877253 0
M  V30 23782 H 2151.05 7.13942 -2.48642 0
M  V30 23783 H 2152.32 7.66466 -1.41953 0
M  V30 23784 N 2156.55 0.997319 1.2203 0
M  V30 23785 C 2157.96 0.708807 1.42997 0
M  V30 23786 C 2158.16 -0.718903 1.88239 0
M  V30 23787 O 2157.22 -1.48925 2.03906 0
M  V30 23788 C 2158.53 1.71814 2.4678 0
M  V30 23789 C 2160.08 1.73408 2.60573 0
M  V30 23790 C 2160.56 2.73216 3.67582 0
M  V30 23791 N 2162.05 2.71837 3.75045 0
M  V30 23792 C 2162.78 3.45728 4.57449 0
M  V30 23793 N 2162.28 4.29233 5.43811 0
M  V30 23794 N 2164.07 3.34413 4.51801 0
M  V30 23795 H 2156.22 1.91932 0.909709 0
M  V30 23796 H 2158.48 0.828004 0.461642 0
M  V30 23797 H 2158.19 2.74 2.20492 0
M  V30 23798 H 2158.06 1.51457 3.45457 0
M  V30 23799 H 2160.45 0.719178 2.86202 0
M  V30 23800 H 2160.53 1.97835 1.62157 0
M  V30 23801 H 2160.18 3.74859 3.427 0
M  V30 23802 H 2160.11 2.46058 4.65578 0
M  V30 23803 H 2162.6 2.11248 3.13341 0
M  V30 23804 H 2162.91 4.82429 6.03723 0
M  V30 23805 H 2161.26 4.33319 5.43378 0
M  V30 23806 H 2164.45 2.68614 3.83359 0
M  V30 23807 H 2164.62 3.92257 5.15789 0
M  V30 23808 N 2158.03 -1.37449 0.771075 0
M  V30 23809 C 2158.96 -2.32874 0.170867 0
M  V30 23810 C 2159.94 -1.55746 -0.683892 0
M  V30 23811 O 2161.12 -1.83987 -0.621492 0
M  V30 23812 C 2158.25 -3.39974 -0.709566 0
M  V30 23813 C 2157.21 -4.27978 0.0438353 0
M  V30 23814 C 2156.53 -5.26084 -0.955998 0
M  V30 23815 C 2157.83 -5.07793 1.22245 0
M  V30 23816 H 2159.53 -2.83319 0.968038 0
M  V30 23817 H 2157.07 -1.36219 0.466952 0
M  V30 23818 H 2159.03 -4.05708 -1.13926 0
M  V30 23819 H 2157.75 -2.88053 -1.53925 0
M  V30 23820 H 2156.41 -3.63774 0.454301 0
M  V30 23821 H 2156.06 -4.70444 -1.78021 0
M  V30 23822 H 2155.76 -5.85824 -0.456445 0
M  V30 23823 H 2157.28 -5.94693 -1.38465 0
M  V30 23824 H 2158.69 -5.66669 0.869436 0
M  V30 23825 H 2157.09 -5.76855 1.65404 0
M  V30 23826 H 2158.16 -4.40506 2.02688 0
M  V30 23827 N 2159.5 -0.52156 -1.4872 0
M  V30 23828 C 2160.73 0.0117966 -2.06897 0
M  V30 23829 C 2161.15 1.28928 -1.37924 0
M  V30 23830 O 2160.5 1.76502 -0.464046 0
M  V30 23831 C 2160.56 0.248161 -3.60647 0
M  V30 23832 O 2160.28 -0.978703 -4.27028 0
M  V30 23833 C 2161.78 0.822848 -4.35596 0
M  V30 23834 H 2159 -0.0297145 -0.670342 0
M  V30 23835 H 2161.54 -0.724798 -1.91225 0
M  V30 23836 H 2159.7 0.934783 -3.75953 0
M  V30 23837 H 2160.11 -0.754221 -5.19049 0
M  V30 23838 H 2161.58 0.937703 -5.43977 0
M  V30 23839 H 2162.06 1.82571 -3.99455 0
M  V30 23840 H 2162.67 0.173056 -4.24948 0
M  V30 23841 N 2160.98 1.55502 -0.256304 0
M  V30 23842 C 2162.23 1.99463 0.366354 0
M  V30 23843 C 2162.56 1.14436 1.56902 0
M  V30 23844 O 2161.84 0.209944 1.93364 0
M  V30 23845 C 2162.12 3.51836 0.767016 0
M  V30 23846 C 2161.97 4.47626 -0.441687 0
M  V30 23847 C 2163.29 4.09574 1.61051 0
M  V30 23848 H 2160.41 0.72514 0.131688 0
M  V30 23849 H 2163.05 1.86568 -0.359494 0
M  V30 23850 H 2161.2 3.62956 1.38546 0
M  V30 23851 H 2162.87 4.48475 -1.08018 0
M  V30 23852 H 2161.12 4.2006 -1.08313 0
M  V30 23853 H 2161.79 5.51874 -0.117869 0
M  V30 23854 H 2164.26 4.01614 1.08838 0
M  V30 23855 H 2163.14 5.16436 1.85969 0
M  V30 23856 H 2163.4 3.58619 2.58544 0
M  V30 23857 N 2162.46 -0.0166879 1.57591 0
M  V30 23858 C 2163.39 -1.04126 2.04182 0
M  V30 23859 C 2164.41 -1.31719 0.956768 0
M  V30 23860 O 2165.59 -1.28988 1.23387 0
M  V30 23861 C 2162.69 -2.38001 2.41265 0
M  V30 23862 C 2161.87 -2.29588 3.72301 0
M  V30 23863 C 2160.93 -3.46013 3.96436 0
M  V30 23864 O 2159.95 -3.2495 4.67328 0
M  V30 23865 N 2161.15 -4.68304 3.43033 0
M  V30 23866 H 2163.92 -0.644054 2.92698 0
M  V30 23867 H 2161.48 -0.204401 1.60605 0
M  V30 23868 H 2163.47 -3.14631 2.54538 0
M  V30 23869 H 2162.04 -2.69522 1.58355 0
M  V30 23870 H 2161.26 -1.37977 3.69264 0
M  V30 23871 H 2162.55 -2.21122 4.58238 0
M  V30 23872 H 2161.95 -4.88316 2.85593 0
M  V30 23873 H 2160.51 -5.42256 3.61665 0
M  V30 23874 N 2163.94 -1.54924 -0.289176 0
M  V30 23875 C 2165.17 -1.78772 -1.04154 0
M  V30 23876 C 2165.58 -0.553005 -1.8052 0
M  V30 23877 O 2164.94 0.47752 -1.76142 0
M  V30 23878 C 2164.99 -3.00278 -2.01284 0
M  V30 23879 O 2164.71 -4.18979 -1.28015 0
M  V30 23880 C 2166.21 -3.36605 -2.88464 0
M  V30 23881 H 2163.43 -0.595936 -0.308384 0
M  V30 23882 H 2165.98 -2.01903 -0.324862 0
M  V30 23883 H 2164.13 -2.79321 -2.68438 0
M  V30 23884 H 2164.54 -4.87563 -1.93345 0
M  V30 23885 H 2166.02 -4.24837 -3.52446 0
M  V30 23886 H 2166.5 -2.55285 -3.57388 0
M  V30 23887 H 2167.1 -3.59764 -2.26825 0
M  V30 23888 N 2165.42 0.552936 -1.47582 0
M  V30 23889 C 2166.36 1.65963 -1.60389 0
M  V30 23890 C 2167.33 1.59979 -0.446754 0
M  V30 23891 O 2168.52 1.78749 -0.667351 0
M  V30 23892 C 2165.66 3.04278 -1.62815 0
M  V30 23893 C 2164.77 3.20668 -2.89476 0
M  V30 23894 C 2163.91 4.49406 -2.8321 0
M  V30 23895 C 2162.95 4.59243 -4.04676 0
M  V30 23896 N 2162.08 5.79341 -3.96621 0
M  V30 23897 H 2166.92 1.54355 -2.54909 0
M  V30 23898 H 2164.46 0.751844 -1.26435 0
M  V30 23899 H 2166.42 3.84377 -1.62204 0
M  V30 23900 H 2165.05 3.14712 -0.718048 0
M  V30 23901 H 2164.1 2.33973 -2.99935 0
M  V30 23902 H 2165.41 3.238 -3.79414 0
M  V30 23903 H 2164.57 5.3777 -2.80872 0
M  V30 23904 H 2163.3 4.4876 -1.90961 0
M  V30 23905 H 2162.31 3.69291 -4.07314 0
M  V30 23906 H 2163.53 4.61645 -4.98057 0
M  V30 23907 H 2161.48 5.79636 -3.07178 0
M  V30 23908 H 2161.4 5.8387 -4.80242 0
M  V30 23909 H 2162.67 6.70054 -3.98306 0
M  V30 23910 N 2166.89 1.35785 0.800009 0
M  V30 23911 C 2168.14 1.29425 1.55741 0
M  V30 23912 C 2168.47 -0.129487 1.94068 0
M  V30 23913 O 2167.72 -1.09631 1.6211 0
M  V30 23914 C 2168.02 2.15261 2.85302 0
M  V30 23915 C 2167.69 3.63962 2.66162 0
M  V30 23916 C 2166.35 4.04493 2.60651 0
M  V30 23917 C 2168.7 4.58288 2.48238 0
M  V30 23918 C 2166.03 5.37507 2.35166 0
M  V30 23919 C 2168.38 5.91507 2.24281 0
M  V30 23920 C 2167.05 6.31175 2.17195 0
M  V30 23921 H 2166.32 0.473601 0.569898 0
M  V30 23922 H 2168.96 1.67742 0.923842 0
M  V30 23923 H 2167.27 1.69846 3.53071 0
M  V30 23924 H 2168.97 2.07672 3.43036 0
M  V30 23925 H 2165.56 3.31802 2.71303 0
M  V30 23926 H 2169.74 4.27854 2.51504 0
M  V30 23927 H 2165 5.67235 2.28154 0
M  V30 23928 H 2169.17 6.64171 2.09403 0
M  V30 23929 H 2166.8 7.34175 1.9721 0
M  V30 23930 N 2168.37 -1.02294 1.19891 0
M  V30 23931 C 2169.31 -2.10325 0.885357 0
M  V30 23932 C 2170.28 -1.61811 -0.160011 0
M  V30 23933 O 2171.47 -1.88468 -0.0349974 0
M  V30 23934 C 2168.59 -3.37126 0.326111 0
M  V30 23935 C 2167.64 -4.04521 1.35147 0
M  V30 23936 S 2168.47 -4.49261 2.91418 0
M  V30 23937 C 2169.63 -5.79273 2.37052 0
M  V30 23938 H 2169.86 -2.36598 1.80024 0
M  V30 23939 H 2167.4 -1.15319 1.02669 0
M  V30 23940 H 2169.35 -4.10499 0.00998612 0
M  V30 23941 H 2168.01 -3.08937 -0.567175 0
M  V30 23942 H 2167.21 -4.95727 0.909412 0
M  V30 23943 H 2166.81 -3.37345 1.61475 0
M  V30 23944 H 2169.1 -6.54127 1.76419 0
M  V30 23945 H 2170.04 -6.28267 3.26629 0
M  V30 23946 H 2170.45 -5.35231 1.79411 0
M  V30 23947 N 2169.85 -1.00378 -1.21499 0
M  V30 23948 C 2170.76 -0.572425 -2.27509 0
M  V30 23949 C 2171.78 0.383982 -1.6971 0
M  V30 23950 O 2172.95 0.248119 -1.99866 0
M  V30 23951 C 2170.02 0.0953686 -3.46569 0
M  V30 23952 C 2169.08 -0.905366 -4.19645 0
M  V30 23953 C 2168.31 -0.269345 -5.3302 0
M  V30 23954 O 2168.53 0.934144 -5.62699 0
M  V30 23955 O 2167.47 -0.979662 -5.93874 0
M  V30 23956 H 2171.29 -1.45465 -2.66596 0
M  V30 23957 H 2168.88 -0.772585 -1.27873 0
M  V30 23958 H 2170.76 0.468934 -4.18783 0
M  V30 23959 H 2169.44 0.951993 -3.09385 0
M  V30 23960 H 2168.34 -1.33007 -3.49657 0
M  V30 23961 H 2169.68 -1.73154 -4.60737 0
M  V30 23962 N 2171.33 1.37038 -0.778354 0
M  V30 23963 C 2172.26 2.3278 -0.183215 0
M  V30 23964 C 2173.24 1.56107 0.675623 0
M  V30 23965 O 2174.42 1.84314 0.611726 0
M  V30 23966 C 2171.55 3.40346 0.691526 0
M  V30 23967 C 2170.51 4.27948 -0.0665313 0
M  V30 23968 C 2169.83 5.26584 0.928085 0
M  V30 23969 C 2171.13 5.07137 -1.24936 0
M  V30 23970 H 2172.83 2.82801 -0.983049 0
M  V30 23971 H 2170.37 1.35969 -0.474169 0
M  V30 23972 H 2172.33 4.06306 1.11773 0
M  V30 23973 H 2171.05 2.88866 1.52395 0
M  V30 23974 H 2169.71 3.63528 -0.473586 0
M  V30 23975 H 2169.36 4.71381 1.75524 0
M  V30 23976 H 2169.06 5.86058 0.425371 0
M  V30 23977 H 2170.58 5.95419 1.35309 0
M  V30 23978 H 2172 5.662 -0.899476 0
M  V30 23979 H 2170.39 5.7597 -1.68461 0
M  V30 23980 H 2171.46 4.39425 -2.05021 0
M  V30 23981 N 2172.81 0.529439 1.48441 0
M  V30 23982 C 2173.74 -0.222417 2.32438 0
M  V30 23983 C 2174.72 -0.935598 1.42058 0
M  V30 23984 O 2175.9 -0.921483 1.70945 0
M  V30 23985 C 2173.03 -1.27012 3.23242 0
M  V30 23986 C 2171.99 -0.675114 4.22642 0
M  V30 23987 C 2171.31 -1.82543 5.02576 0
M  V30 23988 C 2172.61 0.352815 5.21107 0
M  V30 23989 H 2174.31 0.478777 2.95547 0
M  V30 23990 H 2171.85 0.231695 1.42124 0
M  V30 23991 H 2173.81 -1.80405 3.80831 0
M  V30 23992 H 2172.53 -2.00089 2.58132 0
M  V30 23993 H 2171.19 -0.162711 3.66239 0
M  V30 23994 H 2170.84 -2.54456 4.33891 0
M  V30 23995 H 2170.54 -1.43323 5.69853 0
M  V30 23996 H 2172.06 -2.36315 5.63017 0
M  V30 23997 H 2173.48 -0.0940075 5.73223 0
M  V30 23998 H 2171.87 0.662368 5.96433 0
M  V30 23999 H 2172.94 1.25877 4.68277 0
M  V30 24000 N 2174.29 -1.55364 0.264547 0
M  V30 24001 C 2175.2 -2.25763 -0.637821 0
M  V30 24002 C 2176.21 -1.27983 -1.17883 0
M  V30 24003 O 2177.39 -1.60897 -1.21136 0
M  V30 24004 C 2174.45 -2.95689 -1.81021 0
M  V30 24005 C 2173.51 -4.08923 -1.30693 0
M  V30 24006 C 2172.75 -4.75505 -2.42344 0
M  V30 24007 O 2172.97 -4.41244 -3.61469 0
M  V30 24008 O 2171.9 -5.63667 -2.111 0
M  V30 24009 H 2175.73 -3.03624 -0.0678471 0
M  V30 24010 H 2173.31 -1.49365 0.0323545 0
M  V30 24011 H 2175.2 -3.39671 -2.49402 0
M  V30 24012 H 2173.87 -2.20754 -2.36747 0
M  V30 24013 H 2172.78 -3.6942 -0.589885 0
M  V30 24014 H 2174.11 -4.85728 -0.795542 0
M  V30 24015 N 2175.76 0.00833021 -1.57598 0
M  V30 24016 C 2177.17 0.552246 -1.78346 0
M  V30 24017 C 2177.53 1.74433 -0.898189 0
M  V30 24018 O 2176.65 2.16176 -0.098451 0
M  V30 24019 C 2177.25 1.00862 -3.23438 0
M  V30 24020 C 2175.8 1.4979 -3.45311 0
M  V30 24021 C 2174.95 0.445309 -2.73701 0
M  V30 24022 H 2177.9 -0.217862 -1.57197 0
M  V30 24023 H 2177.92 1.87504 -3.31093 0
M  V30 24024 H 2177.44 0.140794 -3.87845 0
M  V30 24025 H 2175.54 2.38689 -2.86109 0
M  V30 24026 H 2175.65 1.53111 -4.53976 0
M  V30 24027 H 2174.01 0.90507 -2.38077 0
M  V30 24028 H 2174.8 -0.413406 -3.40802 0
M  V30 24029 N 2177.24 1.55075 0.280956 0
M  V30 24030 C 2178.17 1.90416 1.35145 0
M  V30 24031 C 2179.15 0.765149 1.51919 0
M  V30 24032 O 2180.34 1.02261 1.65095 0
M  V30 24033 C 2177.47 2.16909 2.71233 0
M  V30 24034 C 2176.42 3.32739 2.692 0
M  V30 24035 C 2175.75 3.44695 4.08766 0
M  V30 24036 C 2177.05 4.69338 2.2917 0
M  V30 24037 H 2178.74 2.80078 1.05815 0
M  V30 24038 H 2176.29 1.34758 0.507584 0
M  V30 24039 H 2178.24 2.40219 3.46226 0
M  V30 24040 H 2176.96 1.24039 3.02129 0
M  V30 24041 H 2175.62 3.09385 1.96664 0
M  V30 24042 H 2175.27 2.49305 4.36871 0
M  V30 24043 H 2174.97 4.22568 4.08301 0
M  V30 24044 H 2176.5 3.70288 4.85509 0
M  V30 24045 H 2177.91 4.92246 2.93883 0
M  V30 24046 H 2176.31 5.5007 2.39882 0
M  V30 24047 H 2177.38 4.68698 1.24297 0
M  V30 24048 N 2178.72 -0.545102 1.47873 0
M  V30 24049 C 2179.67 -1.67209 1.61691 0
M  V30 24050 C 2180.66 -1.62345 0.483792 0
M  V30 24051 O 2181.87 -1.67384 0.662009 0
M  V30 24052 H 2178.24 -0.553487 0.509073 0
M  V30 24053 H 2180.21 -1.52694 2.56373 0
M  V30 24054 C 2178.96 -3.05531 1.65971 0
M  V30 24055 H 2178.29 -3.09961 2.52516 0
M  V30 24056 H 2179.73 -3.84043 1.79686 0
M  V30 24057 C 2178.18 -3.34572 0.39536 0
M  V30 24058 O 2178.71 -3.98597 -0.498334 0
M  V30 24059 N 2176.92 -2.89327 0.271672 0
M  V30 24060 H 2176.47 -2.37403 0.999874 0
M  V30 24061 H 2176.43 -3.09129 -0.573311 0
M  V30 24062 N 2180.2 -1.36208 -0.792797 0
M  V30 24063 C 2181.11 -1.32403 -1.93666 0
M  V30 24064 C 2182.12 -0.226736 -1.72516 0
M  V30 24065 O 2183.3 -0.458518 -1.96111 0
M  V30 24066 C 2180.36 -1.10928 -3.28475 0
M  V30 24067 C 2179.43 -2.301 -3.62426 0
M  V30 24068 C 2178.66 -2.0964 -4.90802 0
M  V30 24069 O 2178.88 -1.06985 -5.60277 0
M  V30 24070 O 2177.82 -2.97336 -5.23331 0
M  V30 24071 H 2181.64 -2.287 -1.99825 0
M  V30 24072 H 2179.23 -1.1672 -0.932566 0
M  V30 24073 H 2181.11 -1.00855 -4.09153 0
M  V30 24074 H 2179.78 -0.17691 -3.23216 0
M  V30 24075 H 2178.69 -2.45741 -2.82068 0
M  V30 24076 H 2180.02 -3.21832 -3.72405 0
M  V30 24077 N 2181.68 1.01656 -1.20431 0
M  V30 24078 C 2183.09 1.27562 -0.959176 0
M  V30 24079 C 2183.29 1.98235 0.361268 0
M  V30 24080 O 2182.35 2.27772 1.08979 0
M  V30 24081 C 2183.66 2.11061 -2.14181 0
M  V30 24082 C 2185.21 2.24327 -2.1828 0
M  V30 24083 C 2185.68 3.11204 -3.3603 0
M  V30 24084 N 2187.17 3.18793 -3.36044 0
M  V30 24085 C 2187.91 3.86239 -4.23801 0
M  V30 24086 N 2187.41 4.55811 -5.21736 0
M  V30 24087 N 2189.2 3.82763 -4.11642 0
M  V30 24088 H 2181.35 0.542057 -2.05367 0
M  V30 24089 H 2183.61 0.30186 -0.898657 0
M  V30 24090 H 2183.32 1.66468 -3.09808 0
M  V30 24091 H 2183.19 3.11798 -2.12278 0
M  V30 24092 H 2185.58 2.68145 -1.23216 0
M  V30 24093 H 2185.66 1.23099 -2.24232 0
M  V30 24094 H 2185.3 2.68092 -4.3138 0
M  V30 24095 H 2185.23 4.1252 -3.27315 0
M  V30 24096 H 2187.73 2.69255 -2.6516 0
M  V30 24097 H 2188.04 5.04944 -5.85023 0
M  V30 24098 H 2186.38 4.54635 -5.25673 0
M  V30 24099 H 2189.57 3.27557 -3.34401 0
M  V30 24100 H 2189.75 4.3505 -4.80245 0
M  V30 24101 N 2183.15 1.01021 1.20965 0
M  V30 24102 C 2184.1 0.575015 2.23522 0
M  V30 24103 C 2185.07 -0.401609 1.61172 0
M  V30 24104 O 2186.26 -0.302487 1.88387 0
M  V30 24105 C 2183.4 -0.0869827 3.4499 0
M  V30 24106 C 2182.51 0.933442 4.21795 0
M  V30 24107 C 2181.64 0.243164 5.30643 0
M  V30 24108 C 2180.68 1.25078 5.99184 0
M  V30 24109 N 2179.82 0.587617 6.99637 0
M  V30 24110 H 2184.66 1.45423 2.60108 0
M  V30 24111 H 2182.2 0.728091 1.27817 0
M  V30 24112 H 2184.15 -0.487872 4.14338 0
M  V30 24113 H 2182.78 -0.929881 3.09117 0
M  V30 24114 H 2181.84 1.45254 3.51576 0
M  V30 24115 H 2183.15 1.70003 4.68936 0
M  V30 24116 H 2182.3 -0.213561 6.06324 0
M  V30 24117 H 2181.04 -0.555781 4.84523 0
M  V30 24118 H 2180.05 1.71796 5.2227 0
M  V30 24119 H 2181.27 2.0509 6.47391 0
M  V30 24120 H 2179.22 -0.191575 6.5572 0
M  V30 24121 H 2179.13 1.29237 7.44872 0
M  V30 24122 H 2180.4 0.154271 7.79347 0
M  V30 24123 N 2184.63 -1.36623 0.78561 0
M  V30 24124 C 2185.58 -2.27475 0.154576 0
M  V30 24125 C 2186.57 -1.46775 -0.659246 0
M  V30 24126 O 2187.76 -1.69191 -0.519944 0
M  V30 24127 C 2184.89 -3.35819 -0.712793 0
M  V30 24128 C 2183.97 -4.23958 0.109612 0
M  V30 24129 N 2184.36 -4.92266 1.16221 0
M  V30 24130 C 2182.66 -4.45859 -0.112163 0
M  V30 24131 C 2183.36 -5.57436 1.66254 0
M  V30 24132 N 2182.34 -5.34832 0.972395 0
M  V30 24133 H 2186.14 -2.77769 0.960279 0
M  V30 24134 H 2183.65 -1.49904 0.624702 0
M  V30 24135 H 2185.65 -3.9983 -1.18075 0
M  V30 24136 H 2184.31 -2.87079 -1.51708 0
M  V30 24137 H 2185.32 -4.94331 1.54459 0
M  V30 24138 H 2182 -4.07963 -0.887264 0
M  V30 24139 H 2183.39 -6.21995 2.54111 0
M  V30 24140 N 2186.11 -0.537304 -1.48158 0
M  V30 24141 C 2187.06 0.234747 -2.31412 0
M  V30 24142 C 2188.05 0.928487 -1.41688 0
M  V30 24143 O 2189.26 0.852038 -1.58557 0
M  V30 24144 H 2185.63 0.0945724 -0.74603 0
M  V30 24145 H 2187.6 -0.486905 -2.94401 0
M  V30 24146 C 2186.35 1.26413 -3.23906 0
M  V30 24147 H 2185.68 0.739721 -3.92897 0
M  V30 24148 H 2187.12 1.7756 -3.8503 0
M  V30 24149 C 2185.57 2.3016 -2.46024 0
M  V30 24150 O 2186.1 3.36731 -2.19032 0
M  V30 24151 N 2184.31 2.03565 -2.07388 0
M  V30 24152 H 2183.86 1.16915 -2.2954 0
M  V30 24153 H 2183.82 2.73201 -1.55592 0
M  V30 24154 N 2187.59 1.55221 -0.272782 0
M  V30 24155 C 2188.52 2.25408 0.609392 0
M  V30 24156 C 2189.5 1.2434 1.16076 0
M  V30 24157 O 2190.68 1.53054 1.19533 0
M  V30 24158 C 2187.81 2.97338 1.79464 0
M  V30 24159 C 2186.77 4.05315 1.37491 0
M  V30 24160 C 2186.09 4.64808 2.64307 0
M  V30 24161 C 2187.39 5.19636 0.526828 0
M  V30 24162 H 2189.09 2.9939 0.0240678 0
M  V30 24163 H 2186.63 1.43996 0.0101357 0
M  V30 24164 H 2188.59 3.45149 2.41765 0
M  V30 24165 H 2187.31 2.20887 2.40576 0
M  V30 24166 H 2185.97 3.58312 0.775106 0
M  V30 24167 H 2185.62 3.85027 3.23672 0
M  V30 24168 H 2185.32 5.37713 2.36935 0
M  V30 24169 H 2186.84 5.15366 3.2746 0
M  V30 24170 H 2188.26 5.63513 1.05478 0
M  V30 24171 H 2186.65 5.9909 0.348095 0
M  V30 24172 H 2187.72 4.82761 -0.454948 0
M  V30 24173 N 2189.07 2.77022e-05 1.576 0
M  V30 24174 C 2190 -0.990304 2.1146 0
M  V30 24175 C 2190.98 -1.35844 1.02374 0
M  V30 24176 O 2192.16 -1.44218 1.30057 0
M  V30 24177 C 2189.29 -2.28215 2.61792 0
M  V30 24178 C 2188.25 -2.05563 3.75404 0
M  V30 24179 C 2187.57 -3.40761 4.12051 0
M  V30 24180 C 2188.87 -1.4182 5.02677 0
M  V30 24181 H 2190.57 -0.541853 2.94456 0
M  V30 24182 H 2188.11 -0.259194 1.41648 0
M  V30 24183 H 2190.07 -2.97851 2.98099 0
M  V30 24184 H 2188.79 -2.75174 1.75918 0
M  V30 24185 H 2187.45 -1.38353 3.39491 0
M  V30 24186 H 2187.1 -3.85423 3.232 0
M  V30 24187 H 2186.8 -3.26421 4.88593 0
M  V30 24188 H 2188.32 -4.11712 4.50916 0
M  V30 24189 H 2189.73 -2.01413 5.36755 0
M  V30 24190 H 2188.13 -1.37967 5.84025 0
M  V30 24191 H 2189.2 -0.387421 4.8335 0
M  V30 24192 N 2190.54 -1.55222 -0.272728 0
M  V30 24193 C 2191.51 -1.87346 -1.32038 0
M  V30 24194 C 2192.51 -0.748055 -1.4234 0
M  V30 24195 O 2193.7 -1.01623 -1.41487 0
M  V30 24196 C 2190.83 -2.07898 -2.70169 0
M  V30 24197 H 2192.02 -2.80999 -1.04784 0
M  V30 24198 H 2189.58 -1.47718 -0.510804 0
M  V30 24199 H 2190.31 -1.16628 -3.02603 0
M  V30 24200 H 2190.1 -2.89837 -2.64077 0
M  V30 24201 H 2191.59 -2.34024 -3.45865 0
M  V30 24202 N 2192.02 0.537252 -1.4816 0
M  V30 24203 C 2193.25 1.32317 -1.59709 0
M  V30 24204 C 2193.67 1.86365 -0.254891 0
M  V30 24205 O 2193.03 1.64026 0.772349 0
M  V30 24206 C 2193.08 2.45501 -2.64125 0
M  V30 24207 O 2192.18 3.48325 -2.2078 0
M  V30 24208 H 2191.52 0.392195 -0.535798 0
M  V30 24209 H 2194.05 0.647233 -1.94093 0
M  V30 24210 H 2194.06 2.9179 -2.85171 0
M  V30 24211 H 2192.74 2.05522 -3.61571 0
M  V30 24212 H 2191.32 3.08204 -2.09917 0
M  V30 24213 N 2193.5 1.36626 0.785562 0
M  V30 24214 C 2194.45 1.31267 1.89836 0
M  V30 24215 C 2195.42 0.180662 1.65115 0
M  V30 24216 O 2196.6 0.367802 1.87221 0
M  V30 24217 C 2193.74 1.11168 3.26704 0
M  V30 24218 C 2192.86 2.33478 3.63472 0
M  V30 24219 C 2191.99 2.06361 4.89478 0
M  V30 24220 C 2191.03 3.24611 5.18935 0
M  V30 24221 N 2190.17 2.97134 6.36126 0
M  V30 24222 H 2195.01 2.26416 1.93752 0
M  V30 24223 H 2192.54 1.12526 0.947434 0
M  V30 24224 H 2194.5 0.975408 4.05637 0
M  V30 24225 H 2193.13 0.196731 3.222 0
M  V30 24226 H 2192.18 2.57896 2.79632 0
M  V30 24227 H 2193.5 3.21711 3.81187 0
M  V30 24228 H 2192.65 1.89685 5.76285 0
M  V30 24229 H 2191.39 1.15446 4.73839 0
M  V30 24230 H 2190.39 3.41842 4.30609 0
M  V30 24231 H 2191.62 4.16358 5.36491 0
M  V30 24232 H 2189.56 2.08834 6.21872 0
M  V30 24233 H 2189.48 3.78906 6.54191 0
M  V30 24234 H 2190.75 2.84046 7.25905 0
M  V30 24235 N 2194.98 -1.01016 1.20969 0
M  V30 24236 C 2195.89 -2.13142 0.980194 0
M  V30 24237 C 2196.9 -1.73875 -0.0660359 0
M  V30 24238 O 2198.08 -2.01025 0.122857 0
M  V30 24239 C 2195.15 -3.42434 0.54222 0
M  V30 24240 C 2194.21 -3.95905 1.66006 0
M  V30 24241 C 2193.44 -5.19026 1.24289 0
M  V30 24242 O 2193.66 -5.70285 0.114296 0
M  V30 24243 O 2192.6 -5.65812 2.05281 0
M  V30 24244 H 2196.42 -2.35376 1.91917 0
M  V30 24245 H 2194.01 -1.11524 0.994118 0
M  V30 24246 H 2195.89 -4.20276 0.307514 0
M  V30 24247 H 2194.56 -3.216 -0.368093 0
M  V30 24248 H 2193.47 -3.19312 1.94912 0
M  V30 24249 H 2194.8 -4.21139 2.54761 0
M  V30 24250 N 2196.46 -1.01661 -1.20428 0
M  V30 24251 C 2197.71 -0.70127 -1.89117 0
M  V30 24252 C 2198.02 0.772326 -1.79707 0
M  V30 24253 O 2199.22 1.20022 -2.4353 0
M  V30 24254 C 2197.68 -1.20394 -3.39166 0
M  V30 24255 C 2197.29 -2.70444 -3.57161 0
M  V30 24256 C 2199.03 -0.964026 -4.13409 0
M  V30 24257 C 2196.94 -3.14191 -5.01037 0
M  V30 24258 H 2195.87 -0.258613 -0.708262 0
M  V30 24259 H 2198.52 -1.2293 -1.36237 0
M  V30 24260 H 2196.9 -0.603893 -3.91368 0
M  V30 24261 H 2198.08 -3.35998 -3.15345 0
M  V30 24262 H 2196.39 -2.92578 -2.96289 0
M  V30 24263 H 2198.99 -1.2663 -5.19489 0
M  V30 24264 H 2199.33 0.0995048 -4.16181 0
M  V30 24265 H 2199.86 -1.52745 -3.67306 0
M  V30 24266 H 2196.6 -4.19821 -5.03419 0
M  V30 24267 H 2196.12 -2.53358 -5.43663 0
M  V30 24268 H 2197.8 -3.0683 -5.69618 0
M  V30 24269 N 2197.93 1.36205 -0.792844 0
M  V30 24270 C 2198.88 2.2739 -0.166638 0
M  V30 24271 C 2199.87 1.47122 0.651453 0
M  V30 24272 O 2201.06 1.69464 0.510964 0
M  V30 24273 C 2198.19 3.36192 0.694974 0
M  V30 24274 C 2197.28 4.23894 -0.132094 0
M  V30 24275 N 2197.67 4.91643 -1.1883 0
M  V30 24276 C 2195.96 4.45912 0.0885169 0
M  V30 24277 C 2196.67 5.56546 -1.69208 0
M  V30 24278 N 2195.64 5.34309 -1.00074 0
M  V30 24279 H 2199.44 2.77256 -0.974996 0
M  V30 24280 H 2196.96 1.49571 -0.632643 0
M  V30 24281 H 2198.95 4.0045 1.15953 0
M  V30 24282 H 2197.61 2.8788 1.50184 0
M  V30 24283 H 2198.63 4.93505 -1.57078 0
M  V30 24284 H 2195.3 4.08428 0.865616 0
M  V30 24285 H 2196.69 6.20638 -2.57406 0
M  V30 24286 N 2199.41 0.545154 1.47871 0
M  V30 24287 C 2200.34 -0.246581 2.2787 0
M  V30 24288 C 2201.36 -0.890537 1.36284 0
M  V30 24289 O 2202.55 -0.76642 1.61209 0
M  V30 24290 C 2199.65 -1.36576 3.10161 0
M  V30 24291 C 2198.82 -0.820879 4.29628 0
M  V30 24292 C 2197.88 -1.82306 4.9361 0
M  V30 24293 O 2196.9 -1.37396 5.52369 0
M  V30 24294 N 2198.11 -3.15595 4.87217 0
M  V30 24295 H 2200.87 0.439591 2.96459 0
M  V30 24296 H 2198.43 0.380449 1.57366 0
M  V30 24297 H 2200.42 -2.03468 3.49833 0
M  V30 24298 H 2198.99 -1.95536 2.43894 0
M  V30 24299 H 2198.21 0.0244725 3.94192 0
M  V30 24300 H 2199.5 -0.435973 5.06929 0
M  V30 24301 H 2198.9 -3.54736 4.40657 0
M  V30 24302 H 2197.46 -3.78078 5.30943 0
M  V30 24303 N 2200.89 -1.55074 0.28101 0
M  V30 24304 C 2202.14 -1.99725 -0.33408 0
M  V30 24305 C 2202.47 -1.16943 -1.55418 0
M  V30 24306 O 2201.72 -0.228565 -1.94361 0
M  V30 24307 C 2202.02 -3.49343 -0.754595 0
M  V30 24308 C 2201.69 -4.49448 0.361524 0
M  V30 24309 C 2200.35 -4.76541 0.667977 0
M  V30 24310 C 2202.7 -5.09171 1.11331 0
M  V30 24311 C 2200.03 -5.60623 1.72969 0
M  V30 24312 C 2202.38 -5.94407 2.1648 0
M  V30 24313 C 2201.04 -6.19818 2.47753 0
M  V30 24314 H 2200.31 -0.730846 -0.122249 0
M  V30 24315 H 2202.96 -1.87362 0.39595 0
M  V30 24316 H 2201.27 -3.59213 -1.56439 0
M  V30 24317 H 2202.96 -3.81302 -1.24136 0
M  V30 24318 H 2199.55 -4.28452 0.112557 0
M  V30 24319 H 2203.74 -4.88258 0.889815 0
M  V30 24320 H 2198.99 -5.78556 1.97694 0
M  V30 24321 H 2203.17 -6.39715 2.75204 0
M  V30 24322 H 2200.79 -6.84763 3.30157 0
M  V30 24323 N 2202.37 -0.00838561 -1.57598 0
M  V30 24324 C 2203.32 0.998471 -2.10079 0
M  V30 24325 C 2204.31 1.35049 -1.02264 0
M  V30 24326 O 2205.52 1.33515 -1.20721 0
M  V30 24327 H 2201.89 0.339685 -0.670909 0
M  V30 24328 H 2203.86 0.530346 -2.93649 0
M  V30 24329 C 2202.61 2.27874 -2.62619 0
M  V30 24330 H 2201.94 2.01656 -3.45217 0
M  V30 24331 H 2203.38 2.96582 -3.0301 0
M  V30 24332 C 2201.83 2.9943 -1.54412 0
M  V30 24333 O 2202.36 3.90741 -0.931881 0
M  V30 24334 N 2200.57 2.61402 -1.26955 0
M  V30 24335 H 2200.12 1.87229 -1.76927 0
M  V30 24336 H 2200.08 3.09592 -0.547759 0
M  V30 24337 N 2203.85 1.55365 0.264492 0
M  V30 24338 C 2205.26 1.47395 0.612125 0
M  V30 24339 C 2205.46 0.695052 1.89133 0
M  V30 24340 O 2204.52 0.217319 2.51563 0
M  V30 24341 C 2205.83 2.91675 0.731184 0
M  V30 24342 C 2207.38 3.01941 0.824677 0
M  V30 24343 C 2207.86 4.47492 0.975443 0
M  V30 24344 N 2209.35 4.51356 1.04075 0
M  V30 24345 C 2210.08 5.61203 1.17636 0
M  V30 24346 N 2209.58 6.80899 1.27862 0
M  V30 24347 N 2211.37 5.48963 1.20814 0
M  V30 24348 H 2203.52 2.04455 -0.575492 0
M  V30 24349 H 2205.78 0.927493 -0.196115 0
M  V30 24350 H 2205.49 3.51427 -0.138454 0
M  V30 24351 H 2205.36 3.41172 1.60877 0
M  V30 24352 H 2207.75 2.42279 1.68478 0
M  V30 24353 H 2207.83 2.55682 -0.0776929 0
M  V30 24354 H 2207.48 5.07758 0.119969 0
M  V30 24355 H 2207.41 4.91415 1.89259 0
M  V30 24356 H 2209.9 3.65138 0.973782 0
M  V30 24357 H 2210.21 7.60367 1.38067 0
M  V30 24358 H 2208.56 6.83694 1.24851 0
M  V30 24359 H 2211.75 4.5439 1.12461 0
M  V30 24360 H 2211.92 6.34613 1.31038 0
M  V30 24361 N 2205.33 -0.529387 1.48443 0
M  V30 24362 C 2206.6 -1.29059 1.4698 0
M  V30 24363 C 2206.98 -2.10316 0.181806 0
M  V30 24364 O 2206.33 -2.1264 -0.836444 0
M  V30 24365 C 2206.54 -2.17152 2.73214 0
M  V30 24366 C 2207.89 -2.77273 3.21566 0
M  V30 24367 O 2208.91 -2.27439 2.74135 0
M  V30 24368 O 2207.77 -3.67919 4.04101 0
M  V30 24369 H 2204.87 -0.582532 0.587014 0
M  V30 24370 H 2207.41 -0.545993 1.60677 0
M  V30 24371 H 2206.18 -1.56896 3.58468 0
M  V30 24372 H 2205.81 -2.98858 2.6224 0
M  V30 24373 N 2206.8 -1.37041 -0.778305 0
M  V30 24374 C 2208.05 -1.32082 -1.5389 0
M  V30 24375 C 2208.38 0.0965045 -1.9396 0
M  V30 24376 O 2207.66 1.05239 -1.6357 0
M  V30 24377 C 2207.94 -2.25387 -2.80843 0
M  V30 24378 C 2207.79 -3.75868 -2.47069 0
M  V30 24379 C 2209.11 -2.17257 -3.82737 0
M  V30 24380 H 2206.23 -0.48112 -0.558294 0
M  V30 24381 H 2208.87 -1.67687 -0.893368 0
M  V30 24382 H 2207.02 -1.95153 -3.35928 0
M  V30 24383 H 2208.7 -4.1667 -1.9795 0
M  V30 24384 H 2206.94 -3.94758 -1.79856 0
M  V30 24385 H 2207.61 -4.36579 -3.3779 0
M  V30 24386 H 2210.09 -2.43893 -3.37128 0
M  V30 24387 H 2208.96 -2.84694 -4.69298 0
M  V30 24388 H 2209.22 -1.16339 -4.26518 0
M  V30 24389 N 2208.28 1.00373 -1.21503 0
M  V30 24390 C 2209.19 2.12619 -0.991484 0
M  V30 24391 C 2210.21 1.73907 0.056814 0
M  V30 24392 O 2211.38 2.00957 -0.133516 0
M  V30 24393 C 2208.45 3.42141 -0.560372 0
M  V30 24394 C 2207.51 3.95019 -1.68103 0
M  V30 24395 C 2206.74 5.1836 -1.27039 0
M  V30 24396 O 2206.97 5.70217 -0.144538 0
M  V30 24397 O 2205.9 5.64715 -2.08279 0
M  V30 24398 H 2209.73 2.34354 -1.93162 0
M  V30 24399 H 2207.31 1.10995 -1.00002 0
M  V30 24400 H 2209.19 4.20107 -0.329798 0
M  V30 24401 H 2207.87 3.21791 0.351033 0
M  V30 24402 H 2206.77 3.18274 -1.96602 0
M  V30 24403 H 2208.11 4.19782 -2.56991 0
M  V30 24404 N 2209.76 1.02298 1.19887 0
M  V30 24405 C 2211.04 0.630864 1.85147 0
M  V30 24406 C 2211.42 -0.890748 1.91387 0
M  V30 24407 O 2210.76 -1.78506 1.42645 0
M  V30 24408 C 2210.97 1.28608 3.2444 0
M  V30 24409 C 2212.32 1.40557 4.00661 0
M  V30 24410 O 2213.35 1.24279 3.33816 0
M  V30 24411 O 2212.21 1.66922 5.20384 0
M  V30 24412 H 2209.3 0.218513 0.79761 0
M  V30 24413 H 2211.85 1.12076 1.27425 0
M  V30 24414 H 2210.62 2.32551 3.147 0
M  V30 24415 H 2210.24 0.783669 3.898 0
M  V30 24416 N 2211.24 -1.35782 0.800057 0
M  V30 24417 C 2212.15 -2.33683 0.207245 0
M  V30 24418 C 2213.16 -1.61552 -0.646282 0
M  V30 24419 O 2214.34 -1.9347 -0.55957 0
M  V30 24420 C 2211.4 -3.40749 -0.639599 0
M  V30 24421 C 2210.47 -4.28664 0.23366 0
M  V30 24422 C 2209.7 -5.30617 -0.572861 0
M  V30 24423 O 2209.92 -5.40986 -1.80806 0
M  V30 24424 O 2208.86 -6.01891 0.0328343 0
M  V30 24425 H 2212.68 -2.86167 1.01697 0
M  V30 24426 H 2210.27 -1.38438 0.561715 0
M  V30 24427 H 2212.15 -4.06184 -1.12216 0
M  V30 24428 H 2210.82 -2.90547 -1.42703 0
M  V30 24429 H 2209.73 -3.66232 0.763212 0
M  V30 24430 H 2211.06 -4.82246 0.984869 0
M  V30 24431 N 2212.72 -0.552988 -1.4758 0
M  V30 24432 C 2213.96 -0.025235 -2.01684 0
M  V30 24433 C 2214.28 1.33112 -1.4332 0
M  V30 24434 O 2215.48 1.94855 -1.89061 0
M  V30 24435 C 2213.94 0.00535725 -3.599 0
M  V30 24436 C 2213.55 -1.3475 -4.27255 0
M  V30 24437 C 2215.29 0.480725 -4.21769 0
M  V30 24438 C 2213.2 -1.27624 -5.77465 0
M  V30 24439 H 2212.13 -0.00566359 -0.753979 0
M  V30 24440 H 2214.78 -0.70021 -1.69615 0
M  V30 24441 H 2213.16 0.745892 -3.88912 0
M  V30 24442 H 2214.34 -2.10541 -4.09889 0
M  V30 24443 H 2212.65 -1.76046 -3.77355 0
M  V30 24444 H 2215.25 0.552366 -5.31839 0
M  V30 24445 H 2215.59 1.49177 -3.88654 0
M  V30 24446 H 2216.12 -0.204822 -3.97272 0
M  V30 24447 H 2212.86 -2.26315 -6.15192 0
M  V30 24448 H 2212.38 -0.560065 -5.97179 0
M  V30 24449 H 2214.06 -0.976533 -6.39588 0
M  V30 24450 N 2214.19 1.54923 -0.28923 0
M  V30 24451 C 2215.12 2.26041 0.58545 0
M  V30 24452 C 2216.1 1.25564 1.14751 0
M  V30 24453 O 2217.29 1.54313 1.17903 0
M  V30 24454 C 2214.42 2.99225 1.763 0
M  V30 24455 C 2213.37 4.06751 1.33184 0
M  V30 24456 C 2212.7 4.67585 2.59362 0
M  V30 24457 C 2214 5.20166 0.471684 0
M  V30 24458 H 2215.69 2.99399 -0.00768794 0
M  V30 24459 H 2213.24 1.43999 -0.0051376 0
M  V30 24460 H 2215.19 3.47694 2.38091 0
M  V30 24461 H 2213.92 2.23426 2.38219 0
M  V30 24462 H 2212.58 3.59114 0.737058 0
M  V30 24463 H 2212.22 3.88438 3.1957 0
M  V30 24464 H 2211.92 5.40196 2.31219 0
M  V30 24465 H 2213.45 5.1881 3.21976 0
M  V30 24466 H 2214.86 5.646 0.994956 0
M  V30 24467 H 2213.26 5.99425 0.284534 0
M  V30 24468 H 2214.33 4.82251 -0.506126 0
M  V30 24469 N 2215.67 0.0167433 1.57591 0
M  V30 24470 C 2216.92 -0.659827 1.924 0
M  V30 24471 C 2217.27 -1.70442 0.892591 0
M  V30 24472 O 2216.57 -1.91374 -0.0930418 0
M  V30 24473 C 2216.76 -1.33024 3.31722 0
M  V30 24474 C 2216.59 -0.352096 4.4832 0
M  V30 24475 C 2215.36 0.0435771 5.05281 0
M  V30 24476 C 2217.56 0.388564 5.1283 0
M  V30 24477 N 2215.54 1.01818 6.05398 0
M  V30 24478 C 2216.91 1.21731 6.07932 0
M  V30 24479 C 2218.96 0.4506 4.95857 0
M  V30 24480 C 2217.67 2.10247 6.87887 0
M  V30 24481 C 2219.69 1.32305 5.76411 0
M  V30 24482 C 2219.06 2.1396 6.71119 0
M  V30 24483 H 2215.15 -0.214137 0.75211 0
M  V30 24484 H 2217.74 0.0810187 1.94531 0
M  V30 24485 H 2215.91 -2.04128 3.30433 0
M  V30 24486 H 2217.64 -1.96284 3.53913 0
M  V30 24487 H 2214.4 -0.328301 4.72461 0
M  V30 24488 H 2214.82 1.50135 6.60143 0
M  V30 24489 H 2219.46 -0.166438 4.22472 0
M  V30 24490 H 2217.18 2.73011 7.60586 0
M  V30 24491 H 2220.77 1.37518 5.65314 0
M  V30 24492 H 2219.65 2.80377 7.32365 0
M  V30 24493 N 2217.15 -1.55503 -0.256249 0
M  V30 24494 C 2218.4 -1.77159 -0.987048 0
M  V30 24495 C 2218.73 -0.580347 -1.85326 0
M  V30 24496 O 2218 0.421653 -1.89875 0
M  V30 24497 C 2218.29 -3.08616 -1.85548 0
M  V30 24498 C 2218.14 -4.38127 -1.01808 0
M  V30 24499 C 2219.46 -3.36233 -2.83964 0
M  V30 24500 H 2216.58 -0.644533 -0.357417 0
M  V30 24501 H 2219.22 -1.88237 -0.258206 0
M  V30 24502 H 2217.37 -2.99302 -2.4769 0
M  V30 24503 H 2219.04 -4.5942 -0.416078 0
M  V30 24504 H 2217.29 -4.32603 -0.322102 0
M  V30 24505 H 2217.96 -5.26471 -1.6593 0
M  V30 24506 H 2220.43 -3.45449 -2.31958 0
M  V30 24507 H 2219.31 -4.29448 -3.41856 0
M  V30 24508 H 2219.57 -2.56687 -3.5995 0
M  V30 24509 N 2218.63 0.521507 -1.48721 0
M  V30 24510 C 2219.88 1.27434 -1.56859 0
M  V30 24511 C 2220.2 1.93416 -0.248016 0
M  V30 24512 O 2219.47 1.81746 0.731119 0
M  V30 24513 H 2218.05 0.473337 -0.577894 0
M  V30 24514 H 2220.71 0.606173 -1.85234 0
M  V30 24515 H 2219.81 2.04916 -2.35406 0
M  V30 24516 N 2220.11 1.37452 0.771027 0
M  V30 24517 C 2221.02 1.35467 1.91535 0
M  V30 24518 C 2222.03 0.254153 1.72134 0
M  V30 24519 O 2223.21 0.48966 1.95357 0
M  V30 24520 C 2220.27 1.16139 3.26669 0
M  V30 24521 C 2219.33 2.35837 3.58719 0
M  V30 24522 C 2218.57 2.17422 4.87405 0
M  V30 24523 O 2218.79 1.15885 5.58504 0
M  V30 24524 O 2217.72 3.05624 5.18534 0
M  V30 24525 H 2221.55 2.3185 1.96161 0
M  V30 24526 H 2219.14 1.18189 0.913879 0
M  V30 24527 H 2221.02 1.07352 4.07497 0
M  V30 24528 H 2219.69 0.228308 3.22894 0
M  V30 24529 H 2218.6 2.50197 2.78123 0
M  V30 24530 H 2219.93 3.27716 3.67237 0
M  V30 24531 N 2221.58 -0.997276 1.22033 0
M  V30 24532 C 2223 -1.2602 0.979348 0
M  V30 24533 C 2223.2 -1.98785 -0.329685 0
M  V30 24534 O 2222.26 -2.29477 -1.05341 0
M  V30 24535 C 2223.57 -2.07627 2.17512 0
M  V30 24536 C 2225.12 -2.20826 2.21821 0
M  V30 24537 C 2225.59 -3.05819 3.40938 0
M  V30 24538 N 2227.08 -3.13406 3.41073 0
M  V30 24539 C 2227.82 -3.79447 4.29892 0
M  V30 24540 N 2227.31 -4.47453 5.28922 0
M  V30 24541 N 2229.11 -3.76165 4.17679 0
M  V30 24542 H 2221.26 -0.509316 2.06203 0
M  V30 24543 H 2223.52 -0.287525 0.903346 0
M  V30 24544 H 2223.23 -1.61518 3.12418 0
M  V30 24545 H 2223.1 -3.08381 2.17211 0
M  V30 24546 H 2225.49 -2.66151 1.27466 0
M  V30 24547 H 2225.57 -1.19516 2.26162 0
M  V30 24548 H 2225.21 -2.61195 4.35591 0
M  V30 24549 H 2225.14 -4.0726 3.33836 0
M  V30 24550 H 2227.63 -2.65003 2.6941 0
M  V30 24551 H 2227.95 -4.95572 5.92982 0
M  V30 24552 H 2226.29 -4.46215 5.32839 0
M  V30 24553 H 2229.48 -3.22196 3.3957 0
M  V30 24554 H 2229.66 -4.27355 4.87106 0
M  V30 24555 N 2223.06 -1.02932 -1.19343 0
M  V30 24556 C 2224 -0.555068 -2.21346 0
M  V30 24557 C 2224.97 0.404323 -1.57493 0
M  V30 24558 O 2226.16 0.32132 -1.85741 0
M  V30 24559 C 2223.28 0.19058 -3.38163 0
M  V30 24560 C 2222.33 -0.72031 -4.20373 0
M  V30 24561 S 2223.16 -2.19676 -4.88367 0
M  V30 24562 C 2224.32 -1.46164 -6.08594 0
M  V30 24563 H 2224.55 -1.41933 -2.61232 0
M  V30 24564 H 2222.09 -0.839295 -1.29596 0
M  V30 24565 H 2224.04 0.614653 -4.05872 0
M  V30 24566 H 2222.7 1.03058 -2.96712 0
M  V30 24567 H 2221.9 -0.144639 -5.03792 0
M  V30 24568 H 2221.5 -1.08272 -3.57985 0
M  V30 24569 H 2223.79 -0.748476 -6.73353 0
M  V30 24570 H 2224.73 -2.27244 -6.70646 0
M  V30 24571 H 2225.14 -0.95894 -5.56295 0
M  V30 24572 N 2224.54 1.35356 -0.807246 0
M  V30 24573 C 2225.95 1.81226 -0.448791 0
M  V30 24574 C 2226.3 1.67035 1.02926 0
M  V30 24575 O 2225.43 1.20137 1.79989 0
M  V30 24576 C 2226.02 3.29028 -0.807832 0
M  V30 24577 C 2224.58 3.73038 -0.501967 0
M  V30 24578 C 2223.73 2.57337 -1.03309 0
M  V30 24579 H 2226.68 1.23325 -0.99883 0
M  V30 24580 H 2226.7 3.80353 -0.105607 0
M  V30 24581 H 2226.21 3.39325 -1.88363 0
M  V30 24582 H 2224.31 3.6829 0.565063 0
M  V30 24583 H 2224.43 4.67786 -1.03505 0
M  V30 24584 H 2222.79 2.50596 -0.455383 0
M  V30 24585 H 2223.57 2.70411 -2.11501 0
M  V30 24586 N 2226.02 0.560807 1.47284 0
M  V30 24587 C 2226.95 -0.173064 2.32858 0
M  V30 24588 C 2227.93 -0.905255 1.44011 0
M  V30 24589 O 2229.11 -0.885016 1.72862 0
M  V30 24590 C 2226.24 -1.20127 3.25863 0
M  V30 24591 C 2225.2 -0.585313 4.23979 0
M  V30 24592 C 2224.52 -1.71841 5.06335 0
M  V30 24593 C 2225.82 0.46327 5.20241 0
M  V30 24594 H 2227.52 0.541359 2.94465 0
M  V30 24595 H 2225.06 0.261789 1.416 0
M  V30 24596 H 2227.02 -1.72286 3.84572 0
M  V30 24597 H 2225.74 -1.94568 2.62318 0
M  V30 24598 H 2224.4 -0.0849896 3.66501 0
M  V30 24599 H 2224.05 -2.45195 4.3919 0
M  V30 24600 H 2223.75 -1.31203 5.72765 0
M  V30 24601 H 2225.27 -2.24319 5.67902 0
M  V30 24602 H 2226.69 0.0276027 5.73293 0
M  V30 24603 H 2225.08 0.788731 5.94894 0
M  V30 24604 H 2226.15 1.35782 4.65501 0
M  V30 24605 N 2227.5 -1.54768 0.297442 0
M  V30 24606 C 2228.46 -2.22067 -0.567336 0
M  V30 24607 C 2229.46 -1.20558 -1.06407 0
M  V30 24608 O 2230.65 -1.45316 -0.960666 0
M  V30 24609 C 2227.78 -2.90424 -1.78512 0
M  V30 24610 H 2228.97 -2.99893 0.0206061 0
M  V30 24611 H 2226.53 -1.56226 0.0482438 0
M  V30 24612 H 2227.26 -2.16668 -2.41299 0
M  V30 24613 H 2227.05 -3.64834 -1.43663 0
M  V30 24614 H 2228.54 -3.41775 -2.39958 0
M  V30 24615 N 2228.97 -0.0251005 -1.5758 0
M  V30 24616 C 2230.2 0.664712 -1.95932 0
M  V30 24617 C 2230.62 1.65893 -0.901382 0
M  V30 24618 O 2229.97 1.82123 0.117223 0
M  V30 24619 C 2230.03 1.37462 -3.34345 0
M  V30 24620 O 2229.75 0.420247 -4.3608 0
M  V30 24621 C 2231.25 2.15663 -3.87304 0
M  V30 24622 H 2228.47 0.183546 -0.645408 0
M  V30 24623 H 2231.01 -0.0836731 -2.04329 0
M  V30 24624 H 2229.17 2.07444 -3.27179 0
M  V30 24625 H 2229.58 0.9239 -5.16299 0
M  V30 24626 H 2231.05 2.60794 -4.86508 0
M  V30 24627 H 2231.53 2.99399 -3.21336 0
M  V30 24628 H 2232.14 1.50647 -3.97726 0
M  V30 24629 N 2230.45 1.55637 0.247999 0
M  V30 24630 C 2231.68 1.8181 0.997996 0
M  V30 24631 C 2232.1 0.60201 1.78206 0
M  V30 24632 O 2231.46 -0.44893 1.75654 0
M  V30 24633 C 2231.51 3.05708 1.91245 0
M  V30 24634 O 2230.61 2.82547 3.00401 0
M  V30 24635 H 2229.95 0.600184 0.284035 0
M  V30 24636 H 2232.48 2.0282 0.269321 0
M  V30 24637 H 2232.49 3.35112 2.32731 0
M  V30 24638 H 2231.17 3.93859 1.33595 0
M  V30 24639 H 2229.75 2.64307 2.63051 0
M  V30 24640 N 2231.93 -0.513613 1.48996 0
M  V30 24641 C 2233.16 -1.29285 1.61533 0
M  V30 24642 C 2233.57 -1.86685 0.281834 0
M  V30 24643 O 2232.93 -1.67217 -0.731082 0
M  V30 24644 C 2232.98 -2.4321 2.67453 0
M  V30 24645 O 2232.7 -1.88172 3.9563 0
M  V30 24646 C 2234.2 -3.3478 2.9058 0
M  V30 24647 H 2231.42 -0.392578 0.544172 0
M  V30 24648 H 2233.97 -0.617922 1.94941 0
M  V30 24649 H 2232.12 -3.06556 2.36859 0
M  V30 24650 H 2232.54 -2.62868 4.53873 0
M  V30 24651 H 2234.01 -4.11028 3.68456 0
M  V30 24652 H 2234.49 -3.91011 2.00018 0
M  V30 24653 H 2235.09 -2.77212 3.22542 0
M  V30 24654 N 2233.41 -1.37859 -0.763727 0
M  V30 24655 C 2234.69 -1.24037 -1.51242 0
M  V30 24656 C 2235.07 0.162612 -2.10473 0
M  V30 24657 O 2234.41 1.17109 -1.96208 0
M  V30 24658 C 2234.62 -2.34266 -2.5869 0
M  V30 24659 C 2235.97 -2.72199 -3.25873 0
M  V30 24660 O 2237 -2.33502 -2.68989 0
M  V30 24661 O 2235.86 -3.38894 -4.28734 0
M  V30 24662 H 2232.95 -0.484474 -0.670234 0
M  V30 24663 H 2235.5 -1.4966 -0.800005 0
M  V30 24664 H 2234.27 -3.28184 -2.13099 0
M  V30 24665 H 2233.89 -2.10152 -3.37523 0
M  V30 24666 N 2234.89 0.990791 -1.22561 0
M  V30 24667 C 2235.84 2.06579 -0.964844 0
M  V30 24668 C 2236.82 1.60674 0.085319 0
M  V30 24669 O 2238.01 1.76555 -0.125474 0
M  V30 24670 C 2235.14 3.38918 -0.546767 0
M  V30 24671 C 2234.23 3.91451 -1.63177 0
M  V30 24672 N 2234.62 4.17184 -2.85992 0
M  V30 24673 C 2232.92 4.19878 -1.50395 0
M  V30 24674 C 2233.62 4.59913 -3.56167 0
M  V30 24675 N 2232.59 4.63731 -2.83646 0
M  V30 24676 H 2236.4 2.24418 -1.89773 0
M  V30 24677 H 2233.91 1.17271 -1.12345 0
M  V30 24678 H 2235.91 4.15501 -0.341263 0
M  V30 24679 H 2234.57 3.22478 0.379197 0
M  V30 24680 H 2235.58 4.05314 -3.22399 0
M  V30 24681 H 2232.26 4.12498 -0.644327 0
M  V30 24682 H 2233.65 4.88427 -4.61398 0
M  V30 24683 N 2236.37 1.03564 1.18795 0
M  V30 24684 C 2237.61 0.734602 1.88276 0
M  V30 24685 C 2237.93 -0.739554 1.80432 0
M  V30 24686 O 2237.2 -1.53331 1.21928 0
M  V30 24687 H 2235.78 0.268737 0.696986 0
M  V30 24688 H 2238.45 1.31131 1.44189 0
M  V30 24689 H 2237.54 1.03494 2.94441 0
M  V30 24690 N 2237.84 -1.34926 0.814413 0
M  V30 24691 C 2238.79 -2.27096 0.202792 0
M  V30 24692 C 2239.78 -1.4814 -0.627964 0
M  V30 24693 O 2240.97 -1.70256 -0.483939 0
M  V30 24694 C 2238.1 -3.37255 -0.641401 0
M  V30 24695 C 2237.18 -4.2363 0.199515 0
M  V30 24696 N 2237.58 -4.8969 1.26637 0
M  V30 24697 C 2235.87 -4.45997 -0.0175649 0
M  V30 24698 C 2236.57 -5.53784 1.78041 0
M  V30 24699 N 2235.55 -5.32649 1.08562 0
M  V30 24700 H 2239.35 -2.7567 1.01898 0
M  V30 24701 H 2236.87 -1.48545 0.656358 0
M  V30 24702 H 2238.86 -4.02244 -1.09567 0
M  V30 24703 H 2237.52 -2.90233 -1.45585 0
M  V30 24704 H 2238.53 -4.90943 1.64909 0
M  V30 24705 H 2235.21 -4.09753 -0.800529 0
M  V30 24706 H 2236.6 -6.16465 2.67247 0
M  V30 24707 N 2239.32 -0.56861 -1.46985 0
M  V30 24708 C 2240.27 0.185608 -2.31858 0
M  V30 24709 C 2241.26 0.898224 -1.43626 0
M  V30 24710 O 2242.47 0.818214 -1.60329 0
M  V30 24711 H 2238.84 0.0787267 -0.747868 0
M  V30 24712 H 2240.82 -0.549243 -2.93302 0
M  V30 24713 C 2239.56 1.19514 -3.26515 0
M  V30 24714 H 2238.89 0.656215 -3.94378 0
M  V30 24715 H 2240.33 1.69353 -3.8871 0
M  V30 24716 C 2238.79 2.2489 -2.50851 0
M  V30 24717 O 2239.32 3.3201 -2.26125 0
M  V30 24718 N 2237.52 1.9912 -2.11659 0
M  V30 24719 H 2237.07 1.1202 -2.31968 0
M  V30 24720 H 2237.03 2.69839 -1.61351 0
M  V30 24721 N 2240.8 1.54608 -0.305646 0
M  V30 24722 C 2241.73 2.2665 0.561442 0
M  V30 24723 C 2242.71 1.26774 1.13412 0
M  V30 24724 O 2243.9 1.55555 1.1626 0
M  V30 24725 C 2241.03 3.01078 1.73116 0
M  V30 24726 C 2239.98 4.0814 1.28863 0
M  V30 24727 C 2239.31 4.70309 2.54388 0
M  V30 24728 C 2240.61 5.20637 0.416487 0
M  V30 24729 H 2242.3 2.99374 -0.0394428 0
M  V30 24730 H 2239.85 1.43986 -0.0204103 0
M  V30 24731 H 2241.8 3.50199 2.34389 0
M  V30 24732 H 2240.52 2.2594 2.35836 0
M  V30 24733 H 2239.18 3.59876 0.698928 0
M  V30 24734 H 2238.83 3.91806 3.15432 0
M  V30 24735 H 2238.53 5.42618 2.25476 0
M  V30 24736 H 2240.05 5.22196 3.16455 0
M  V30 24737 H 2241.47 5.65624 0.935017 0
M  V30 24738 H 2239.86 5.99693 0.220941 0
M  V30 24739 H 2240.93 4.81687 -0.557246 0
M  V30 24740 N 2242.28 0.033457 1.57564 0
M  V30 24741 C 2243.21 -0.975775 2.07392 0
M  V30 24742 C 2244.22 -1.28608 0.998189 0
M  V30 24743 O 2245.41 -1.24997 1.27428 0
M  V30 24744 C 2242.51 -2.30205 2.48714 0
M  V30 24745 C 2241.68 -2.17627 3.79417 0
M  V30 24746 C 2240.74 -3.33226 4.07243 0
M  V30 24747 O 2239.77 -3.09918 4.7743 0
M  V30 24748 N 2240.97 -4.57154 3.57758 0
M  V30 24749 H 2243.74 -0.550608 2.94599 0
M  V30 24750 H 2241.3 -0.153202 1.61174 0
M  V30 24751 H 2243.29 -3.06374 2.64419 0
M  V30 24752 H 2241.86 -2.64348 1.6685 0
M  V30 24753 H 2241.08 -1.26159 3.73467 0
M  V30 24754 H 2242.37 -2.06432 4.65041 0
M  V30 24755 H 2241.77 -4.78983 3.00984 0
M  V30 24756 H 2240.32 -5.30476 3.78733 0
M  V30 24757 N 2243.76 -1.55766 -0.239741 0
M  V30 24758 C 2244.98 -1.81995 -0.984138 0
M  V30 24759 C 2245.4 -0.610156 -1.78669 0
M  V30 24760 O 2244.76 0.42124 -1.77572 0
M  V30 24761 C 2244.81 -3.0653 -1.91629 0
M  V30 24762 O 2244.53 -4.2284 -1.14621 0
M  V30 24763 C 2246.03 -3.45612 -2.77609 0
M  V30 24764 H 2243.25 -0.605446 -0.289269 0
M  V30 24765 H 2245.79 -2.02835 -0.260464 0
M  V30 24766 H 2243.95 -2.87719 -2.59415 0
M  V30 24767 H 2244.36 -4.93467 -1.77736 0
M  V30 24768 H 2245.84 -4.35834 -3.38751 0
M  V30 24769 H 2246.31 -2.66526 -3.49086 0
M  V30 24770 H 2246.92 -3.66798 -2.15265 0
M  V30 24771 N 2245.23 0.505704 -1.49266 0
M  V30 24772 C 2246.48 1.26199 -1.5875 0
M  V30 24773 C 2246.81 1.92296 -0.271261 0
M  V30 24774 O 2246.09 1.80491 0.724799 0
M  V30 24775 C 2246.37 2.33263 -2.74336 0
M  V30 24776 C 2246.22 1.71698 -4.1574 0
M  V30 24777 C 2247.54 3.3486 -2.85581 0
M  V30 24778 H 2244.66 0.457468 -0.577834 0
M  V30 24779 H 2247.3 0.560865 -1.81533 0
M  V30 24780 H 2245.45 2.93063 -2.55042 0
M  V30 24781 H 2247.13 1.15761 -4.46539 0
M  V30 24782 H 2245.37 1.02128 -4.21607 0
M  V30 24783 H 2246.04 2.49332 -4.92481 0
M  V30 24784 H 2248.52 2.85045 -3.03132 0
M  V30 24785 H 2247.39 4.0714 -3.68142 0
M  V30 24786 H 2247.65 3.969 -1.94739 0
M  V30 24787 N 2246.71 1.38262 0.756405 0
M  V30 24788 C 2247.64 1.3115 1.87969 0
M  V30 24789 C 2248.66 0.224268 1.61248 0
M  V30 24790 O 2249.85 0.481611 1.7188 0
M  V30 24791 C 2246.95 1.00863 3.23543 0
M  V30 24792 C 2246.12 2.20439 3.7779 0
M  V30 24793 C 2245.18 1.8694 4.91874 0
M  V30 24794 O 2244.2 2.59403 5.06654 0
M  V30 24795 N 2245.41 0.822669 5.74641 0
M  V30 24796 H 2248.17 2.27944 1.94581 0
M  V30 24797 H 2245.73 1.32086 0.936211 0
M  V30 24798 H 2247.72 0.765091 3.97402 0
M  V30 24799 H 2246.29 0.128742 3.12335 0
M  V30 24800 H 2245.51 2.60875 2.9553 0
M  V30 24801 H 2246.8 3.00248 4.10766 0
M  V30 24802 H 2246.2 0.221675 5.65266 0
M  V30 24803 H 2244.76 0.639013 6.4866 0
M  V30 24804 N 2248.19 -0.984277 1.23084 0
M  V30 24805 C 2249.12 -2.09409 1.03296 0
M  V30 24806 C 2250.1 -1.7003 -0.0488931 0
M  V30 24807 O 2251.29 -1.93859 0.115001 0
M  V30 24808 C 2248.42 -3.41735 0.619215 0
M  V30 24809 C 2247.37 -3.95001 1.64798 0
M  V30 24810 C 2246.7 -5.23476 1.08979 0
M  V30 24811 C 2248 -4.24708 3.04007 0
M  V30 24812 H 2249.69 -2.26222 1.96123 0
M  V30 24813 H 2247.24 -1.0871 0.944363 0
M  V30 24814 H 2249.19 -4.18795 0.467851 0
M  V30 24815 H 2247.91 -3.24776 -0.344729 0
M  V30 24816 H 2246.57 -3.20082 1.78726 0
M  V30 24817 H 2246.22 -5.02864 0.116948 0
M  V30 24818 H 2245.92 -5.60082 1.77714 0
M  V30 24819 H 2247.44 -6.03161 0.950199 0
M  V30 24820 H 2248.86 -4.92532 2.93402 0
M  V30 24821 H 2247.26 -4.72506 3.69944 0
M  V30 24822 H 2248.33 -3.32135 3.5329 0
M  V30 24823 N 2249.67 -1.04192 -1.18244 0
M  V30 24824 C 2250.6 -0.654953 -2.24126 0
M  V30 24825 C 2251.58 0.342422 -1.66618 0
M  V30 24826 O 2252.76 0.222243 -1.92924 0
M  V30 24827 C 2249.89 -0.0184367 -3.47295 0
M  V30 24828 C 2248.85 -0.939488 -4.17562 0
M  V30 24829 C 2248.17 -0.16738 -5.34438 0
M  V30 24830 C 2249.47 -2.25916 -4.70913 0
M  V30 24831 H 2251.17 -1.54012 -2.5675 0
M  V30 24832 H 2248.71 -0.741971 -1.23413 0
M  V30 24833 H 2250.67 0.264009 -4.20572 0
M  V30 24834 H 2249.39 0.901609 -3.13909 0
M  V30 24835 H 2248.05 -1.20634 -3.46184 0
M  V30 24836 H 2247.7 0.755112 -4.973 0
M  V30 24837 H 2247.4 -0.781003 -5.82387 0
M  V30 24838 H 2248.92 0.108018 -6.10504 0
M  V30 24839 H 2250.34 -2.03733 -5.35879 0
M  V30 24840 H 2248.73 -2.82586 -5.29401 0
M  V30 24841 H 2249.8 -2.90477 -3.88267 0
M  V30 24842 N 2251.15 1.34492 -0.821557 0
M  V30 24843 C 2252.4 1.97584 -0.40539 0
M  V30 24844 C 2252.71 1.65865 1.03674 0
M  V30 24845 O 2253.91 2.22436 1.55675 0
M  V30 24846 C 2252.37 3.53534 -0.673924 0
M  V30 24847 C 2251.98 3.94148 -2.12958 0
M  V30 24848 C 2253.72 4.23263 -0.323854 0
M  V30 24849 C 2251.63 5.43005 -2.34308 0
M  V30 24850 H 2250.56 0.739362 -0.147849 0
M  V30 24851 H 2253.21 1.53353 -1.00772 0
M  V30 24852 H 2251.59 3.96 -0.00144515 0
M  V30 24853 H 2252.77 3.62792 -2.84111 0
M  V30 24854 H 2251.08 3.37352 -2.44095 0
M  V30 24855 H 2253.68 5.32707 -0.461219 0
M  V30 24856 H 2254.02 4.09823 0.731514 0
M  V30 24857 H 2254.55 3.86269 -0.950854 0
M  V30 24858 H 2251.29 5.61429 -3.38345 0
M  V30 24859 H 2250.81 5.7588 -1.67697 0
M  V30 24860 H 2252.49 6.09667 -2.16599 0
M  V30 24861 N 2252.62 0.576397 1.46681 0
M  V30 24862 C 2253.57 -0.160458 2.30242 0
M  V30 24863 C 2254.54 -0.890137 1.40235 0
M  V30 24864 O 2255.73 -0.882054 1.69188 0
M  V30 24865 C 2252.87 -1.17224 3.2458 0
M  V30 24866 C 2251.98 -0.44666 4.29685 0
M  V30 24867 C 2251.11 -1.44542 5.11157 0
M  V30 24868 C 2250.15 -0.705883 6.08016 0
M  V30 24869 N 2249.29 -1.65239 6.82378 0
M  V30 24870 H 2254.13 0.558179 2.92726 0
M  V30 24871 H 2251.67 0.287081 1.44271 0
M  V30 24872 H 2253.63 -1.77165 3.77715 0
M  V30 24873 H 2252.26 -1.85867 2.63919 0
M  V30 24874 H 2251.31 0.267661 3.79457 0
M  V30 24875 H 2252.62 0.131774 4.98626 0
M  V30 24876 H 2251.77 -2.11781 5.68536 0
M  V30 24877 H 2250.51 -2.05778 4.42162 0
M  V30 24878 H 2249.52 -0.0196759 5.49796 0
M  V30 24879 H 2250.74 -0.0990007 6.79028 0
M  V30 24880 H 2248.69 -2.25298 6.16098 0
M  V30 24881 H 2248.61 -1.1266 7.47558 0
M  V30 24882 H 2249.87 -2.31533 7.4432 0
M  V30 24883 N 2254.1 -1.54444 0.313841 0
M  V30 24884 C 2255.05 -2.2399 -0.556511 0
M  V30 24885 C 2256.02 -1.22713 -1.11941 0
M  V30 24886 O 2257.2 -1.51369 -1.16155 0
M  V30 24887 C 2254.34 -2.99395 -1.7163 0
M  V30 24888 C 2253.46 -4.1547 -1.18357 0
M  V30 24889 C 2252.59 -4.78428 -2.30825 0
M  V30 24890 C 2251.63 -5.86625 -1.74751 0
M  V30 24891 N 2250.77 -6.43484 -2.80844 0
M  V30 24892 H 2255.61 -2.97969 0.0431417 0
M  V30 24893 H 2253.15 -1.47063 0.0330618 0
M  V30 24894 H 2255.1 -3.41353 -2.39862 0
M  V30 24895 H 2253.73 -2.27769 -2.28738 0
M  V30 24896 H 2252.79 -3.78363 -0.393096 0
M  V30 24897 H 2254.1 -4.93382 -0.733176 0
M  V30 24898 H 2253.25 -5.23305 -3.0698 0
M  V30 24899 H 2251.99 -3.99876 -2.79197 0
M  V30 24900 H 2251 -5.41159 -0.9709 0
M  V30 24901 H 2252.22 -6.67068 -1.27269 0
M  V30 24902 H 2250.17 -5.67809 -3.28525 0
M  V30 24903 H 2250.08 -7.1678 -2.40339 0
M  V30 24904 H 2251.35 -6.93017 -3.56857 0
M  V30 24905 N 2255.58 -0.0418125 -1.57545 0
M  V30 24906 C 2256.53 0.953686 -2.1215 0
M  V30 24907 C 2257.52 1.3285 -1.05106 0
M  V30 24908 O 2258.73 1.30925 -1.23526 0
M  V30 24909 H 2255.1 0.325377 -0.677963 0
M  V30 24910 H 2257.07 0.467939 -2.94708 0
M  V30 24911 C 2255.82 2.22252 -2.67394 0
M  V30 24912 H 2255.15 1.94288 -3.49417 0
M  V30 24913 H 2256.59 2.90088 -3.09232 0
M  V30 24914 C 2255.05 2.96088 -1.60729 0
M  V30 24915 O 2255.58 3.88677 -1.01455 0
M  V30 24916 N 2253.78 2.5865 -1.32471 0
M  V30 24917 H 2253.33 1.83434 -1.80859 0
M  V30 24918 H 2253.29 3.0836 -0.613304 0
M  V30 24919 N 2257.06 1.55891 0.231477 0
M  V30 24920 C 2257.99 1.88072 1.31002 0
M  V30 24921 C 2259 0.76817 1.43537 0
M  V30 24922 O 2260.19 1.0464 1.44612 0
M  V30 24923 C 2257.29 2.06548 2.68684 0
M  V30 24924 C 2256.47 3.37507 2.78222 0
M  V30 24925 C 2255.52 3.45536 3.96851 0
M  V30 24926 O 2254.55 4.1864 3.85655 0
M  V30 24927 N 2255.75 2.75953 5.10715 0
M  V30 24928 H 2258.52 2.81178 1.03726 0
M  V30 24929 H 2256.08 1.56316 0.421546 0
M  V30 24930 H 2258.07 2.09245 3.46408 0
M  V30 24931 H 2256.64 1.20114 2.88602 0
M  V30 24932 H 2255.86 3.46994 1.87053 0
M  V30 24933 H 2257.15 4.23796 2.81557 0
M  V30 24934 H 2256.55 2.16321 5.22706 0
M  V30 24935 H 2255.1 2.84324 5.86518 0
M  V30 24936 N 2258.54 -0.497781 1.49532 0
M  V30 24937 C 2259.76 -1.27564 1.62896 0
M  V30 24938 C 2260.18 -1.86375 0.301618 0
M  V30 24939 O 2259.54 -1.67983 -0.713305 0
M  V30 24940 C 2259.59 -2.4036 2.70018 0
M  V30 24941 O 2259.31 -1.83965 3.97603 0
M  V30 24942 C 2260.81 -3.3168 2.94115 0
M  V30 24943 H 2258.03 -0.386785 0.548305 0
M  V30 24944 H 2260.57 -0.597211 1.95585 0
M  V30 24945 H 2258.73 -3.04027 2.40097 0
M  V30 24946 H 2259.14 -2.58039 4.56635 0
M  V30 24947 H 2260.62 -4.07097 3.72795 0
M  V30 24948 H 2261.09 -3.88868 2.04153 0
M  V30 24949 H 2261.7 -2.73775 3.25464 0
M  V30 24950 N 2260.01 -1.38661 -0.749062 0
M  V30 24951 C 2260.94 -1.38976 -1.87637 0
M  V30 24952 C 2261.93 -0.255034 -1.68177 0
M  V30 24953 O 2263.11 -0.458787 -1.88703 0
M  V30 24954 C 2260.24 -1.21857 -3.2522 0
M  V30 24955 C 2259.19 -2.32581 -3.59291 0
M  V30 24956 C 2258.52 -2.00563 -4.9566 0
M  V30 24957 C 2259.82 -3.74857 -3.63703 0
M  V30 24958 H 2261.51 -2.33313 -1.87631 0
M  V30 24959 H 2259.06 -1.12305 -0.90131 0
M  V30 24960 H 2261.01 -1.20702 -4.03744 0
M  V30 24961 H 2259.74 -0.239832 -3.25718 0
M  V30 24962 H 2258.4 -2.3293 -2.83089 0
M  V30 24963 H 2258.04 -1.01162 -4.92722 0
M  V30 24964 H 2257.74 -2.74723 -5.19424 0
M  V30 24965 H 2259.27 -2.01034 -5.76557 0
M  V30 24966 H 2260.68 -3.76514 -4.32331 0
M  V30 24967 H 2259.08 -4.48259 -3.98978 0
M  V30 24968 H 2260.15 -4.06846 -2.63826 0
M  V30 24969 N 2261.49 0.977736 -1.23605 0
M  V30 24970 C 2262.43 2.07315 -0.977405 0
M  V30 24971 C 2263.44 1.62725 0.0495559 0
M  V30 24972 O 2264.63 1.77525 -0.186292 0
M  V30 24973 C 2261.73 3.35882 -0.451275 0
M  V30 24974 C 2260.9 4.0943 -1.53903 0
M  V30 24975 C 2259.96 5.16273 -1.01731 0
M  V30 24976 O 2258.99 5.43006 -1.70686 0
M  V30 24977 N 2260.19 5.80297 0.153492 0
M  V30 24978 H 2262.95 2.30079 -1.92051 0
M  V30 24979 H 2260.51 1.14463 -1.14499 0
M  V30 24980 H 2262.51 4.04606 -0.0872286 0
M  V30 24981 H 2261.08 3.10065 0.397314 0
M  V30 24982 H 2260.3 3.35123 -2.07572 0
M  V30 24983 H 2261.58 4.55333 -2.27045 0
M  V30 24984 H 2260.98 5.60967 0.730224 0
M  V30 24985 H 2259.54 6.50183 0.458777 0
M  V30 24986 N 2262.97 1.04818 1.1769 0
M  V30 24987 C 2263.92 0.645836 2.2158 0
M  V30 24988 C 2264.89 -0.35013 1.62368 0
M  V30 24989 O 2266.07 -0.2424 1.89254 0
M  V30 24990 C 2263.21 0.0228174 3.45092 0
M  V30 24991 C 2262.33 1.06716 4.18612 0
M  V30 24992 C 2261.46 0.411861 5.29601 0
M  V30 24993 C 2260.5 1.44077 5.94902 0
M  V30 24994 N 2259.64 0.809904 6.97413 0
M  V30 24995 H 2264.48 1.53624 2.5535 0
M  V30 24996 H 2262.01 0.768386 1.25436 0
M  V30 24997 H 2263.97 -0.355807 4.1568 0
M  V30 24998 H 2262.6 -0.831067 3.11918 0
M  V30 24999 H 2261.65 1.56366 3.46777 0
M  V30 25000 H 2262.97 1.84835 4.6329 0
M  V30 25001 H 2262.12 -0.0205557 6.06697 0
M  V30 25002 H 2260.86 -0.401352 4.86046 0
M  V30 25003 H 2259.86 1.88325 5.1654 0
M  V30 25004 H 2261.09 2.25582 6.40538 0
M  V30 25005 H 2259.04 0.0171339 6.55998 0
M  V30 25006 H 2258.95 1.52869 7.40383 0
M  V30 25007 H 2260.22 0.402136 7.78462 0
M  V30 25008 N 2264.45 -1.34055 0.828678 0
M  V30 25009 C 2265.36 -2.33191 0.256766 0
M  V30 25010 C 2266.38 -1.62887 -0.611869 0
M  V30 25011 O 2267.55 -1.94614 -0.518406 0
M  V30 25012 C 2264.62 -3.42029 -0.567178 0
M  V30 25013 C 2263.68 -4.28072 0.324534 0
M  V30 25014 C 2262.91 -5.31712 -0.460181 0
M  V30 25015 O 2263.13 -5.44699 -1.6929 0
M  V30 25016 O 2262.07 -6.01686 0.160497 0
M  V30 25017 H 2265.89 -2.83945 1.07744 0
M  V30 25018 H 2263.48 -1.37216 0.590954 0
M  V30 25019 H 2265.36 -4.08473 -1.03575 0
M  V30 25020 H 2264.04 -2.93509 -1.36508 0
M  V30 25021 H 2262.94 -3.64531 0.840723 0
M  V30 25022 H 2264.28 -4.80048 1.08694 0
M  V30 25023 N 2265.93 -0.584167 -1.46374 0
M  V30 25024 C 2267.18 -0.0680095 -2.01585 0
M  V30 25025 C 2267.49 1.30042 -1.46111 0
M  V30 25026 O 2268.7 1.908 -1.93151 0
M  V30 25027 C 2267.15 -0.070984 -3.5983 0
M  V30 25028 C 2266.76 -1.43782 -4.243 0
M  V30 25029 C 2268.5 0.391154 -4.22694 0
M  V30 25030 C 2266.41 -1.39845 -5.74628 0
M  V30 25031 H 2265.34 -0.0216553 -0.753689 0
M  V30 25032 H 2267.99 -0.736031 -1.68092 0
M  V30 25033 H 2266.37 0.66323 -3.90407 0
M  V30 25034 H 2267.55 -2.19188 -4.05331 0
M  V30 25035 H 2265.86 -1.8401 -3.73536 0
M  V30 25036 H 2268.46 0.439431 -5.32891 0
M  V30 25037 H 2268.8 1.40899 -3.91731 0
M  V30 25038 H 2269.34 -0.289043 -3.96749 0
M  V30 25039 H 2266.07 -2.39313 -6.10253 0
M  V30 25040 H 2265.59 -0.686609 -5.95857 0
M  V30 25041 H 2267.27 -1.11198 -6.37373 0
M  V30 25042 N 2267.41 1.54275 -0.322027 0
M  V30 25043 C 2268.34 2.21776 0.578632 0
M  V30 25044 C 2269.35 1.21724 1.08107 0
M  V30 25045 O 2270.54 1.48202 0.994912 0
M  V30 25046 C 2267.64 2.86735 1.80656 0
M  V30 25047 C 2266.81 4.12909 1.44307 0
M  V30 25048 C 2265.87 4.61476 2.52837 0
M  V30 25049 O 2264.9 5.26194 2.17045 0
M  V30 25050 N 2266.1 4.35573 3.8374 0
M  V30 25051 H 2268.86 2.997 0.000656767 0
M  V30 25052 H 2266.43 1.61248 -0.14516 0
M  V30 25053 H 2268.42 3.16149 2.52649 0
M  V30 25054 H 2266.99 2.12525 2.29242 0
M  V30 25055 H 2266.21 3.90276 0.554837 0
M  V30 25056 H 2267.5 4.95025 1.17589 0
M  V30 25057 H 2266.89 3.83769 4.15618 0
M  V30 25058 H 2265.45 4.69646 4.51969 0
M  V30 25059 N 2268.88 0.0501669 1.5752 0
M  V30 25060 C 2270.13 -0.622608 1.92271 0
M  V30 25061 C 2270.45 -1.71442 0.929113 0
M  V30 25062 O 2269.72 -1.95883 -0.0261842 0
M  V30 25063 H 2268.3 -0.232968 0.709743 0
M  V30 25064 H 2270.96 0.102932 1.94628 0
M  V30 25065 H 2270.06 -1.06186 2.93481 0
M  V30 25066 N 2270.36 -1.56011 -0.223207 0
M  V30 25067 C 2271.31 -1.88676 -1.28005 0
M  V30 25068 C 2272.3 -0.749688 -1.42367 0
M  V30 25069 O 2273.49 -1.01207 -1.4521 0
M  V30 25070 C 2270.62 -2.20553 -2.63081 0
M  V30 25071 C 2269.7 -3.40648 -2.52626 0
M  V30 25072 N 2270.09 -4.5931 -2.11821 0
M  V30 25073 C 2268.39 -3.44229 -2.83588 0
M  V30 25074 C 2269.09 -5.41466 -2.12577 0
M  V30 25075 N 2268.07 -4.81136 -2.53001 0
M  V30 25076 H 2271.87 -2.77936 -0.955438 0
M  V30 25077 H 2269.38 -1.56555 -0.431773 0
M  V30 25078 H 2271.38 -2.42128 -3.39381 0
M  V30 25079 H 2270.04 -1.32604 -2.96389 0
M  V30 25080 H 2271.05 -4.84499 -1.82979 0
M  V30 25081 H 2267.73 -2.66619 -3.21279 0
M  V30 25082 H 2269.12 -6.46451 -1.83168 0
M  V30 25083 N 2271.84 0.489844 -1.49794 0
M  V30 25084 C 2272.77 1.6071 -1.63416 0
M  V30 25085 C 2273.78 1.54394 -0.516356 0
M  V30 25086 O 2274.97 1.60124 -0.78884 0
M  V30 25087 C 2272.07 2.9954 -1.58521 0
M  V30 25088 C 2271.25 3.30923 -2.86022 0
M  V30 25089 C 2270.31 4.49217 -2.74026 0
M  V30 25090 O 2269.33 4.50449 -3.47972 0
M  V30 25091 N 2270.53 5.49787 -1.86319 0
M  V30 25092 H 2273.3 1.49448 -2.5978 0
M  V30 25093 H 2270.86 0.677929 -1.47023 0
M  V30 25094 H 2272.85 3.76614 -1.48135 0
M  V30 25095 H 2271.42 3.04669 -0.699704 0
M  V30 25096 H 2270.64 2.42639 -3.10676 0
M  V30 25097 H 2271.93 3.48693 -3.70527 0
M  V30 25098 H 2271.33 5.51599 -1.2552 0
M  V30 25099 H 2269.88 6.25919 -1.81848 0
M  V30 25100 N 2273.32 1.39056 0.741698 0
M  V30 25101 C 2274.73 1.3207 1.31963 0
M  V30 25102 C 2275.08 -0.0180453 1.96192 0
M  V30 25103 O 2274.2 -0.920162 1.95862 0
M  V30 25104 C 2274.8 2.39185 2.3995 0
M  V30 25105 C 2273.36 2.35741 2.93434 0
M  V30 25106 C 2272.51 2.21425 1.66932 0
M  V30 25107 H 2275.46 1.49241 0.539695 0
M  V30 25108 H 2275.48 2.05587 3.20178 0
M  V30 25109 H 2274.99 3.36609 1.93174 0
M  V30 25110 H 2273.09 1.41935 3.44507 0
M  V30 25111 H 2273.2 3.30341 3.47004 0
M  V30 25112 H 2271.57 1.68481 1.91014 0
M  V30 25113 H 2272.35 3.20808 1.22218 0
M  V30 25114 N 2274.8 -0.971167 1.24121 0
M  V30 25115 C 2276.21 -1.23914 1.00586 0
M  V30 25116 C 2276.41 -1.99439 -0.287446 0
M  V30 25117 O 2275.47 -2.31659 -1.0045 0
M  V30 25118 C 2276.78 -2.02966 2.21867 0
M  V30 25119 C 2278.33 -2.16072 2.26455 0
M  V30 25120 C 2278.8 -2.98518 3.47348 0
M  V30 25121 N 2280.29 -3.06101 3.47644 0
M  V30 25122 C 2281.03 -3.70243 4.37844 0
M  V30 25123 N 2280.53 -4.36133 5.38294 0
M  V30 25124 N 2282.32 -3.67221 4.25565 0
M  V30 25125 H 2274.47 -0.465463 2.07237 0
M  V30 25126 H 2276.73 -0.268299 0.909241 0
M  V30 25127 H 2276.44 -1.54855 3.15773 0
M  V30 25128 H 2276.31 -3.03705 2.23704 0
M  V30 25129 H 2278.7 -2.63387 1.33083 0
M  V30 25130 H 2278.78 -1.14692 2.28647 0
M  V30 25131 H 2278.42 -2.51897 4.41033 0
M  V30 25132 H 2278.35 -4.00087 3.424 0
M  V30 25133 H 2280.85 -2.59228 2.74971 0
M  V30 25134 H 2281.16 -4.82883 6.03361 0
M  V30 25135 H 2279.5 -4.34812 5.42184 0
M  V30 25136 H 2282.69 -3.14921 3.46327 0
M  V30 25137 H 2282.87 -4.16926 4.96061 0
M  V30 25138 N 2276.27 -1.05441 -1.17133 0
M  V30 25139 C 2277.52 -0.761081 -1.8679 0
M  V30 25140 C 2277.84 0.714763 -1.82073 0
M  V30 25141 O 2279.04 1.12213 -2.47225 0
M  V30 25142 C 2277.5 -1.31123 -3.35164 0
M  V30 25143 C 2277.11 -2.8167 -3.48376 0
M  V30 25144 C 2278.85 -1.09506 -4.10133 0
M  V30 25145 C 2276.76 -3.29972 -4.90787 0
M  V30 25146 H 2275.69 -0.281015 -0.699676 0
M  V30 25147 H 2278.34 -1.27202 -1.32257 0
M  V30 25148 H 2276.72 -0.728098 -3.89249 0
M  V30 25149 H 2277.89 -3.4586 -3.04496 0
M  V30 25150 H 2276.21 -3.01856 -2.86831 0
M  V30 25151 H 2278.81 -1.43093 -5.15198 0
M  V30 25152 H 2279.15 -0.0329504 -4.16287 0
M  V30 25153 H 2279.68 -1.64353 -3.62261 0
M  V30 25154 H 2276.42 -4.35624 -4.89808 0
M  V30 25155 H 2275.94 -2.70526 -5.35328 0
M  V30 25156 H 2277.62 -3.24797 -5.59568 0
M  V30 25157 N 2277.75 1.33613 -0.835776 0
M  V30 25158 C 2279.03 1.92406 -0.352051 0
M  V30 25159 C 2279.41 1.76226 1.16222 0
M  V30 25160 O 2278.76 1.14877 1.97524 0
M  V30 25161 C 2278.97 3.39812 -0.795545 0
M  V30 25162 C 2280.32 4.16961 -0.801776 0
M  V30 25163 O 2281.34 3.48451 -0.738951 0
M  V30 25164 O 2280.2 5.39259 -0.886702 0
M  V30 25165 H 2277.29 0.821056 -0.0989786 0
M  V30 25166 H 2279.84 1.42506 -0.921422 0
M  V30 25167 H 2278.61 3.45446 -1.83801 0
M  V30 25168 H 2278.23 3.97084 -0.202575 0
M  V30 25169 N 2279.23 0.591922 1.46062 0
M  V30 25170 C 2280.51 0.0137463 1.95595 0
M  V30 25171 C 2280.89 -1.44967 1.53453 0
M  V30 25172 O 2280.24 -2.14425 0.78958 0
M  V30 25173 C 2280.45 0.195435 3.48452 0
M  V30 25174 C 2281.79 0.0680511 4.24545 0
M  V30 25175 O 2282.82 0.124744 3.55982 0
M  V30 25176 O 2281.68 -0.0599619 5.46467 0
M  V30 25177 H 2278.77 -0.0446133 0.825796 0
M  V30 25178 H 2281.32 0.660886 1.56302 0
M  V30 25179 H 2280.09 1.21242 3.72043 0
M  V30 25180 H 2279.71 -0.487706 3.94598 0
M  V30 25181 N 2280.71 -1.54102 0.330204 0
M  V30 25182 C 2281.96 -1.99867 -0.271301 0
M  V30 25183 C 2282.27 -1.22212 -1.52721 0
M  V30 25184 O 2283.48 -1.58387 -2.20513 0
M  V30 25185 C 2281.93 -3.55917 -0.53397 0
M  V30 25186 C 2281.54 -4.42414 0.705271 0
M  V30 25187 C 2283.28 -4.10132 -1.09506 0
M  V30 25188 C 2281.19 -5.89948 0.414138 0
M  V30 25189 H 2280.12 -0.746632 -0.105153 0
M  V30 25190 H 2282.77 -1.78061 0.44346 0
M  V30 25191 H 2281.15 -3.73736 -1.30909 0
M  V30 25192 H 2282.33 -4.3637 1.48047 0
M  V30 25193 H 2280.64 -3.99122 1.18705 0
M  V30 25194 H 2283.24 -5.17956 -1.32761 0
M  V30 25195 H 2283.58 -3.62525 -2.04649 0
M  V30 25196 H 2284.12 -3.95972 -0.380969 0
M  V30 25197 H 2280.86 -6.41763 1.33492 0
M  V30 25198 H 2280.38 -5.98928 -0.323231 0
M  V30 25199 H 2282.05 -6.46995 0.0264242 0
M  V30 25200 N 2282.19 -0.0585199 -1.57491 0
M  V30 25201 C 2283.43 0.613615 -1.92979 0
M  V30 25202 C 2283.76 1.70415 -0.937491 0
M  V30 25203 O 2283.02 1.95639 0.0490436 0
M  V30 25204 C 2283.32 1.24182 -3.35132 0
M  V30 25205 C 2282.98 0.278747 -4.50038 0
M  V30 25206 C 2281.64 0.0137601 -4.81198 0
M  V30 25207 C 2284 -0.380868 -5.19807 0
M  V30 25208 C 2281.32 -0.918153 -5.79471 0
M  V30 25209 C 2283.68 -1.30102 -6.19077 0
M  V30 25210 C 2282.34 -1.57461 -6.48662 0
M  V30 25211 H 2281.61 0.224537 -0.706161 0
M  V30 25212 H 2284.26 -0.126567 -1.91081 0
M  V30 25213 H 2282.56 2.05743 -3.33432 0
M  V30 25214 H 2284.26 1.76894 -3.59874 0
M  V30 25215 H 2280.85 0.495464 -4.25727 0
M  V30 25216 H 2285.03 -0.189245 -4.95939 0
M  V30 25217 H 2280.29 -1.13751 -6.00725 0
M  V30 25218 H 2284.46 -1.81816 -6.72247 0
M  V30 25219 H 2282.09 -2.29834 -7.24624 0
M  V30 25220 N 2283.66 1.56128 0.21493 0
M  V30 25221 C 2284.57 1.96131 1.28724 0
M  V30 25222 C 2285.59 0.866071 1.50915 0
M  V30 25223 O 2286.77 1.17019 1.63916 0
M  V30 25224 C 2283.83 2.27562 2.61565 0
M  V30 25225 C 2282.89 3.5069 2.47619 0
M  V30 25226 C 2282.13 3.80612 3.74125 0
M  V30 25227 O 2282.35 3.12112 4.77433 0
M  V30 25228 O 2281.28 4.74089 3.70841 0
M  V30 25229 H 2285.11 2.87529 0.977805 0
M  V30 25230 H 2282.69 1.43424 0.418333 0
M  V30 25231 H 2284.58 2.48944 3.40007 0
M  V30 25232 H 2283.25 1.39337 2.92176 0
M  V30 25233 H 2282.16 3.34579 1.67355 0
M  V30 25234 H 2283.49 4.39319 2.21946 0
M  V30 25235 N 2285.14 -0.481893 1.50052 0
M  V30 25236 C 2286.56 -0.814732 1.37238 0
M  V30 25237 C 2286.76 -1.97071 0.420144 0
M  V30 25238 O 2285.81 -2.52105 -0.141201 0
M  V30 25239 C 2287.13 -1.13696 2.78377 0
M  V30 25240 C 2288.68 -1.24405 2.87215 0
M  V30 25241 C 2289.15 -1.59946 4.29163 0
M  V30 25242 N 2290.64 -1.66959 4.32064 0
M  V30 25243 C 2291.38 -1.95942 5.38882 0
M  V30 25244 N 2290.87 -2.2302 6.55922 0
M  V30 25245 N 2292.67 -1.97354 5.26315 0
M  V30 25246 H 2284.82 0.280087 2.10545 0
M  V30 25247 H 2287.08 0.062762 0.94592 0
M  V30 25248 H 2286.79 -0.360725 3.49845 0
M  V30 25249 H 2286.66 -2.07581 3.14945 0
M  V30 25250 H 2289.05 -2.01097 2.15972 0
M  V30 25251 H 2289.13 -0.285254 2.54205 0
M  V30 25252 H 2288.77 -0.837979 5.00939 0
M  V30 25253 H 2288.7 -2.56958 4.59652 0
M  V30 25254 H 2291.19 -1.48117 3.47663 0
M  V30 25255 H 2291.51 -2.44378 7.33143 0
M  V30 25256 H 2289.85 -2.20435 6.59116 0
M  V30 25257 H 2293.04 -1.75689 4.33879 0
M  V30 25258 H 2293.21 -2.19607 6.09653 0
M  V30 25259 N 2286.62 -1.39448 -0.734313 0
M  V30 25260 C 2287.85 -1.4017 -1.52864 0
M  V30 25261 C 2288.27 0.00168206 -1.881 0
M  V30 25262 O 2287.63 0.988853 -1.51959 0
M  V30 25263 C 2287.68 -2.28171 -2.79231 0
M  V30 25264 O 2286.78 -1.71207 -3.75182 0
M  V30 25265 H 2286.12 -0.477298 -0.461609 0
M  V30 25266 H 2288.65 -1.83451 -0.905916 0
M  V30 25267 H 2288.66 -2.42708 -3.27959 0
M  V30 25268 H 2287.34 -3.3016 -2.52917 0
M  V30 25269 H 2285.91 -1.65918 -3.33955 0
M  V30 25270 N 2288.1 0.964571 -1.24635 0
M  V30 25271 C 2289.03 2.06266 -0.999339 0
M  V30 25272 C 2290.04 1.62768 0.032294 0
M  V30 25273 O 2291.23 1.77318 -0.20511 0
M  V30 25274 C 2288.33 3.35384 -0.486875 0
M  V30 25275 C 2287.51 4.07774 -1.58237 0
M  V30 25276 C 2286.56 5.15165 -1.07201 0
M  V30 25277 O 2285.59 5.41165 -1.76435 0
M  V30 25278 N 2286.79 5.80427 0.0919352 0
M  V30 25279 H 2289.56 2.28029 -1.94481 0
M  V30 25280 H 2287.12 1.13242 -1.15706 0
M  V30 25281 H 2289.11 4.04491 -0.130138 0
M  V30 25282 H 2287.68 3.10469 0.364405 0
M  V30 25283 H 2286.9 3.32903 -2.11115 0
M  V30 25284 H 2288.19 4.52899 -2.31862 0
M  V30 25285 H 2287.59 5.6171 0.670685 0
M  V30 25286 H 2286.14 6.50633 0.389791 0
M  V30 25287 N 2289.58 1.0606 1.16572 0
M  V30 25288 C 2290.52 0.663383 2.22939 0
M  V30 25289 C 2291.52 -0.319564 1.66359 0
M  V30 25290 O 2292.72 -0.184681 1.7905 0
M  V30 25291 H 2289.1 0.196388 0.725903 0
M  V30 25292 H 2291.07 1.57042 2.53733 0
M  V30 25293 C 2289.82 0.0633419 3.47642 0
M  V30 25294 H 2289.14 0.810802 3.91492 0
M  V30 25295 H 2290.58 -0.177102 4.2363 0
M  V30 25296 C 2289.04 -1.19243 3.15092 0
M  V30 25297 O 2289.57 -2.28069 3.30677 0
M  V30 25298 N 2287.78 -1.09348 2.69242 0
M  V30 25299 H 2287.32 -0.207867 2.5676 0
M  V30 25300 H 2287.28 -1.93454 2.47836 0
M  V30 25301 N 2291.06 -1.33168 0.84285 0
M  V30 25302 C 2292.3 -1.96914 0.436773 0
M  V30 25303 C 2292.62 -1.67493 -1.01022 0
M  V30 25304 O 2293.82 -2.24884 -1.52116 0
M  V30 25305 C 2292.28 -3.52417 0.730082 0
M  V30 25306 C 2291.89 -3.9071 2.19202 0
M  V30 25307 C 2293.63 -4.22694 0.391151 0
M  V30 25308 C 2291.54 -5.39208 2.42917 0
M  V30 25309 H 2290.47 -0.736917 0.159593 0
M  V30 25310 H 2293.12 -1.51731 1.03199 0
M  V30 25311 H 2291.5 -3.95948 0.0644451 0
M  V30 25312 H 2292.68 -3.58226 2.89846 0
M  V30 25313 H 2290.99 -3.33426 2.49431 0
M  V30 25314 H 2293.59 -5.31906 0.54591 0
M  V30 25315 H 2293.93 -4.10935 -0.666222 0
M  V30 25316 H 2294.46 -3.84707 1.01219 0
M  V30 25317 H 2291.2 -5.55976 3.47234 0
M  V30 25318 H 2290.72 -5.73139 1.76837 0
M  V30 25319 H 2292.4 -6.06144 2.2627 0
M  V30 25320 N 2292.53 -0.599659 -1.45746 0
M  V30 25321 C 2293.78 -0.0918999 -2.02592 0
M  V30 25322 C 2294.11 1.27126 -1.46808 0
M  V30 25323 O 2293.39 1.8368 -0.63969 0
M  V30 25324 C 2293.67 -0.044403 -3.60073 0
M  V30 25325 C 2293.52 -1.43766 -4.26206 0
M  V30 25326 C 2294.84 0.647532 -4.3531 0
M  V30 25327 H 2291.96 -0.03487 -0.736175 0
M  V30 25328 H 2294.6 -0.770112 -1.73693 0
M  V30 25329 H 2292.75 0.533156 -3.84824 0
M  V30 25330 H 2294.43 -2.06169 -4.12665 0
M  V30 25331 H 2292.67 -2.00062 -3.84912 0
M  V30 25332 H 2293.34 -1.35674 -5.35067 0
M  V30 25333 H 2295.82 0.156703 -4.15805 0
M  V30 25334 H 2294.69 0.649846 -5.4504 0
M  V30 25335 H 2294.95 1.71212 -4.07601 0
M  V30 25336 N 2294.01 1.53925 -0.338371 0
M  V30 25337 C 2295.24 2.05244 0.261262 0
M  V30 25338 C 2295.65 1.21366 1.44623 0
M  V30 25339 O 2295.01 0.247768 1.8081 0
M  V30 25340 C 2295.06 3.55021 0.68135 0
M  V30 25341 O 2294.78 4.35715 -0.456491 0
M  V30 25342 C 2296.28 4.22491 1.34224 0
M  V30 25343 H 2293.5 0.669032 0.0513568 0
M  V30 25344 H 2296.05 1.98571 -0.488857 0
M  V30 25345 H 2294.2 3.61933 1.38142 0
M  V30 25346 H 2294.62 5.24357 -0.122656 0
M  V30 25347 H 2296.09 5.28695 1.58698 0
M  V30 25348 H 2296.57 3.74518 2.29419 0
M  V30 25349 H 2297.17 4.19758 0.68435 0
M  V30 25350 N 2295.49 0.0668712 1.57458 0
M  V30 25351 C 2296.77 -0.6441 1.84691 0
M  V30 25352 C 2297.15 -1.88091 0.958376 0
M  V30 25353 O 2296.49 -2.28488 0.0233981 0
M  V30 25354 C 2296.7 -0.986451 3.34769 0
M  V30 25355 C 2298.05 -1.36205 4.02161 0
M  V30 25356 O 2299.08 -1.07833 3.39486 0
M  V30 25357 O 2297.94 -1.89218 5.12698 0
M  V30 25358 H 2295.03 -0.319424 0.762822 0
M  V30 25359 H 2297.58 0.0974284 1.6942 0
M  V30 25360 H 2296.35 -0.107814 3.91151 0
M  V30 25361 H 2295.97 -1.78491 3.55284 0
M  V30 25362 N 2296.97 -1.56239 -0.206647 0
M  V30 25363 C 2298.19 -1.84392 -0.949442 0
M  V30 25364 C 2298.62 -0.649047 -1.76547 0
M  V30 25365 O 2297.98 0.4022 -1.76782 0
M  V30 25366 C 2298.02 -3.10672 -1.83073 0
M  V30 25367 O 2297.13 -2.90412 -2.92805 0
M  V30 25368 H 2296.47 -0.607503 -0.268022 0
M  V30 25369 H 2299 -2.03462 -0.215453 0
M  V30 25370 H 2299.01 -3.41165 -2.23764 0
M  V30 25371 H 2297.68 -3.97263 -1.23105 0
M  V30 25372 H 2296.26 -2.71189 -2.55951 0
M  V30 25373 N 2298.45 0.473929 -1.50305 0
M  V30 25374 C 2299.67 1.25424 -1.65178 0
M  V30 25375 C 2300.1 1.85116 -0.333706 0
M  V30 25376 O 2299.45 1.67154 0.702085 0
M  V30 25377 C 2299.5 2.34077 -2.74299 0
M  V30 25378 O 2298.61 3.38647 -2.35355 0
M  V30 25379 H 2297.95 0.369117 -0.55195 0
M  V30 25380 H 2300.48 0.56433 -1.96663 0
M  V30 25381 H 2300.49 2.79432 -2.9729 0
M  V30 25382 H 2299.16 1.90001 -3.69963 0
M  V30 25383 H 2297.74 2.99023 -2.228 0
M  V30 25384 N 2299.92 1.39835 0.726907 0
M  V30 25385 C 2301.15 1.40978 1.52118 0
M  V30 25386 C 2301.57 0.00829336 1.88098 0
M  V30 25387 O 2300.93 -0.98078 1.52481 0
M  V30 25388 C 2300.98 2.29649 2.78017 0
M  V30 25389 O 2300.08 1.73194 3.74269 0
M  V30 25390 H 2299.42 0.479739 0.459071 0
M  V30 25391 H 2301.95 1.83929 0.896175 0
M  V30 25392 H 2301.96 2.44443 3.26667 0
M  V30 25393 H 2300.64 3.31497 2.51163 0
M  V30 25394 H 2299.22 1.67686 3.3307 0
M  V30 25395 N 2301.4 -0.957948 1.25144 0
M  V30 25396 C 2302.33 -2.07171 1.07715 0
M  V30 25397 C 2303.31 -1.70095 -0.0128163 0
M  V30 25398 O 2304.5 -1.93572 0.156095 0
M  V30 25399 C 2301.63 -3.40345 0.691562 0
M  V30 25400 C 2300.58 -3.91416 1.73139 0
M  V30 25401 C 2299.91 -5.21047 1.20059 0
M  V30 25402 C 2301.21 -4.18164 3.12947 0
M  V30 25403 H 2302.9 -2.22011 2.00877 0
M  V30 25404 H 2300.45 -1.06682 0.96721 0
M  V30 25405 H 2302.4 -4.17708 0.556578 0
M  V30 25406 H 2301.12 -3.25434 -0.275761 0
M  V30 25407 H 2299.78 -3.16219 1.85476 0
M  V30 25408 H 2299.43 -5.02503 0.223587 0
M  V30 25409 H 2299.13 -5.56186 1.89554 0
M  V30 25410 H 2300.66 -6.0101 1.07792 0
M  V30 25411 H 2302.07 -4.86198 3.03783 0
M  V30 25412 H 2300.47 -4.64552 3.79883 0
M  V30 25413 H 2301.54 -3.24567 3.60256 0
M  V30 25414 N 2302.88 -1.06677 -1.16008 0
M  V30 25415 C 2304.1 -0.80674 -1.91067 0
M  V30 25416 C 2304.53 0.633454 -1.77113 0
M  V30 25417 O 2303.89 1.44185 -1.0991 0
M  V30 25418 C 2303.94 -1.21112 -3.39653 0
M  V30 25419 O 2303.04 -0.352262 -4.10893 0
M  V30 25420 H 2302.38 -0.294497 -0.59512 0
M  V30 25421 H 2304.91 -1.42359 -1.46953 0
M  V30 25422 H 2304.92 -1.18435 -3.90432 0
M  V30 25423 H 2303.6 -2.26014 -3.49128 0
M  V30 25424 H 2302.17 -0.440933 -3.70284 0
M  V30 25425 N 2304.36 1.32719 -0.8499 0
M  V30 25426 C 2305.32 2.27279 -0.296162 0
M  V30 25427 C 2306.32 1.51411 0.541432 0
M  V30 25428 O 2307.51 1.70573 0.353628 0
M  V30 25429 C 2304.64 3.35903 0.58152 0
M  V30 25430 H 2305.84 2.77769 -1.13069 0
M  V30 25431 H 2303.39 1.4331 -0.623855 0
M  V30 25432 H 2304.12 2.90673 1.43804 0
M  V30 25433 H 2303.91 3.92096 -0.0179503 0
M  V30 25434 H 2305.4 4.06371 0.961879 0
M  V30 25435 N 2305.84 0.60738 1.45426 0
M  V30 25436 C 2306.75 -0.113422 2.34326 0
M  V30 25437 C 2307.76 -0.860591 1.51228 0
M  V30 25438 O 2308.94 -0.818223 1.8403 0
M  V30 25439 C 2306 -1.09838 3.28841 0
M  V30 25440 C 2305.06 -0.353196 4.27845 0
M  V30 25441 C 2304.3 -1.29124 5.17844 0
M  V30 25442 O 2304.52 -2.52904 5.11269 0
M  V30 25443 O 2303.45 -0.788418 5.96714 0
M  V30 25444 H 2307.28 0.617146 2.97363 0
M  V30 25445 H 2304.87 0.367644 1.44806 0
M  V30 25446 H 2306.75 -1.66568 3.87083 0
M  V30 25447 H 2305.42 -1.80998 2.68368 0
M  V30 25448 H 2304.33 0.25656 3.73219 0
M  V30 25449 H 2305.66 0.317909 4.91172 0
M  V30 25450 N 2307.31 -1.53743 0.34653 0
M  V30 25451 C 2308.28 -2.2376 -0.4964 0
M  V30 25452 C 2309.28 -1.23882 -1.02517 0
M  V30 25453 O 2310.47 -1.48299 -0.913948 0
M  V30 25454 C 2307.6 -2.95956 -1.69182 0
M  V30 25455 H 2308.79 -2.99676 0.116004 0
M  V30 25456 H 2306.35 -1.55993 0.0979213 0
M  V30 25457 H 2307.08 -2.24236 -2.34284 0
M  V30 25458 H 2306.87 -3.69219 -1.31983 0
M  V30 25459 H 2308.36 -3.49236 -2.28963 0
M  V30 25460 N 2308.79 -0.0752207 -1.5742 0
M  V30 25461 C 2310.04 0.592697 -1.92795 0
M  V30 25462 C 2310.35 1.70561 -0.957508 0
M  V30 25463 O 2311.56 2.43333 -1.20421 0
M  V30 25464 C 2310.02 1.10563 -3.42497 0
M  V30 25465 C 2309.62 0.0235334 -4.47994 0
M  V30 25466 C 2311.37 1.74741 -3.86867 0
M  V30 25467 C 2309.28 0.550699 -5.8883 0
M  V30 25468 H 2308.21 0.225164 -0.719595 0
M  V30 25469 H 2310.86 -0.14801 -1.82902 0
M  V30 25470 H 2309.24 1.8994 -3.47475 0
M  V30 25471 H 2310.41 -0.751179 -4.54636 0
M  V30 25472 H 2308.73 -0.522232 -4.13112 0
M  V30 25473 H 2311.32 2.1522 -4.89474 0
M  V30 25474 H 2311.67 2.60876 -3.24421 0
M  V30 25475 H 2312.2 1.01979 -3.84506 0
M  V30 25476 H 2308.94 -0.273572 -6.54929 0
M  V30 25477 H 2308.46 1.29286 -5.85701 0
M  V30 25478 H 2310.14 1.02602 -6.38813 0
M  V30 25479 N 2310.27 1.56347 0.198358 0
M  V30 25480 C 2311.69 1.49858 0.549059 0
M  V30 25481 C 2311.89 0.774644 1.86015 0
M  V30 25482 O 2310.94 0.32382 2.50415 0
M  V30 25483 C 2312.26 2.94514 0.606816 0
M  V30 25484 C 2313.8 3.05167 0.695872 0
M  V30 25485 C 2314.28 4.51227 0.784769 0
M  V30 25486 N 2315.77 4.55364 0.848383 0
M  V30 25487 C 2316.5 5.65688 0.937279 0
M  V30 25488 N 2316 6.85709 0.98868 0
M  V30 25489 N 2317.79 5.53593 0.974215 0
M  V30 25490 H 2309.94 2.0183 -0.661691 0
M  V30 25491 H 2312.21 0.91834 -0.235277 0
M  V30 25492 H 2311.91 3.50524 -0.287381 0
M  V30 25493 H 2311.79 3.47689 1.46262 0
M  V30 25494 H 2314.17 2.49207 1.5805 0
M  V30 25495 H 2314.26 2.55122 -0.186066 0
M  V30 25496 H 2313.9 5.0781 -0.0954964 0
M  V30 25497 H 2313.83 4.99 1.68246 0
M  V30 25498 H 2316.32 3.6894 0.818038 0
M  V30 25499 H 2316.63 7.65538 1.05693 0
M  V30 25500 H 2314.98 6.88374 0.957413 0
M  V30 25501 H 2318.17 4.58751 0.930873 0
M  V30 25502 H 2318.34 6.39599 1.04004 0
M  V30 25503 N 2311.75 -0.465951 1.50554 0
M  V30 25504 C 2312.68 -1.5809 1.65952 0
M  V30 25505 C 2313.69 -1.53553 0.540854 0
M  V30 25506 O 2314.88 -1.58848 0.814215 0
M  V30 25507 C 2311.98 -2.9698 1.63267 0
M  V30 25508 C 2311.16 -3.26331 2.9125 0
M  V30 25509 C 2310.21 -4.44801 2.81138 0
M  V30 25510 O 2309.24 -4.44856 3.55094 0
M  V30 25511 N 2310.44 -5.46753 1.95042 0
M  V30 25512 H 2313.21 -1.45296 2.62124 0
M  V30 25513 H 2310.77 -0.654454 1.48083 0
M  V30 25514 H 2312.76 -3.7421 1.54108 0
M  V30 25515 H 2311.33 -3.03517 0.748086 0
M  V30 25516 H 2310.55 -2.37666 3.14497 0
M  V30 25517 H 2311.84 -3.42755 3.76028 0
M  V30 25518 H 2311.24 -5.49532 1.34279 0
M  V30 25519 H 2309.79 -6.22947 1.91783 0
M  V30 25520 N 2313.23 -1.40218 -0.719481 0
M  V30 25521 C 2314.64 -1.22163 -1.02705 0
M  V30 25522 C 2314.84 -0.094091 -2.0128 0
M  V30 25523 O 2313.9 0.549274 -2.46453 0
M  V30 25524 C 2315.21 -2.56184 -1.5745 0
M  V30 25525 C 2316.76 -2.63162 -1.69454 0
M  V30 25526 C 2317.23 -3.97442 -2.27605 0
M  V30 25527 N 2318.73 -3.99163 -2.34995 0
M  V30 25528 C 2319.46 -4.99847 -2.80963 0
M  V30 25529 N 2318.96 -6.10926 -3.26712 0
M  V30 25530 N 2320.75 -4.87218 -2.80312 0
M  V30 25531 H 2312.9 -2.12297 -0.0660118 0
M  V30 25532 H 2315.16 -0.943536 -0.0918912 0
M  V30 25533 H 2314.87 -3.39323 -0.924814 0
M  V30 25534 H 2314.74 -2.76998 -2.56031 0
M  V30 25535 H 2317.13 -1.80397 -2.3354 0
M  V30 25536 H 2317.21 -2.46183 -0.694824 0
M  V30 25537 H 2316.86 -4.80645 -1.64141 0
M  V30 25538 H 2316.79 -4.1175 -3.28283 0
M  V30 25539 H 2319.28 -3.18951 -2.0268 0
M  V30 25540 H 2319.59 -6.83647 -3.60343 0
M  V30 25541 H 2317.93 -6.14497 -3.24681 0
M  V30 25542 H 2321.13 -3.99535 -2.43905 0
M  V30 25543 H 2321.3 -5.65828 -3.15821 0
M  V30 25544 N 2314.7 0.951297 -1.25651 0
M  V30 25545 C 2315.63 2.06597 -1.08812 0
M  V30 25546 C 2316.62 1.701 0.00379557 0
M  V30 25547 O 2317.8 1.93486 -0.166359 0
M  V30 25548 C 2314.93 3.39973 -0.709602 0
M  V30 25549 C 2313.88 3.90493 -1.75212 0
M  V30 25550 C 2313.21 5.20403 -1.2282 0
M  V30 25551 C 2314.51 4.16499 -3.1516 0
M  V30 25552 H 2316.2 2.20942 -2.02052 0
M  V30 25553 H 2313.75 1.06168 -0.972854 0
M  V30 25554 H 2315.7 4.17407 -0.578722 0
M  V30 25555 H 2314.43 3.25575 0.258499 0
M  V30 25556 H 2313.09 3.15231 -1.8715 0
M  V30 25557 H 2312.73 5.02377 -0.250233 0
M  V30 25558 H 2312.43 5.55173 -1.92501 0
M  V30 25559 H 2313.96 6.0043 -1.10978 0
M  V30 25560 H 2315.37 4.8458 -3.06357 0
M  V30 25561 H 2313.77 4.62531 -3.82342 0
M  V30 25562 H 2314.84 3.22652 -3.61972 0
M  V30 25563 N 2316.18 1.07291 1.1544 0
M  V30 25564 C 2317.15 0.696629 2.18357 0
M  V30 25565 C 2318.15 -0.262809 1.58638 0
M  V30 25566 O 2319.34 -0.0438503 1.74145 0
M  V30 25567 C 2316.47 0.026675 3.4089 0
M  V30 25568 H 2317.66 1.6078 2.5316 0
M  V30 25569 H 2315.21 0.869365 1.29891 0
M  V30 25570 H 2315.95 -0.896767 3.11655 0
M  V30 25571 H 2315.73 0.716725 3.85494 0
M  V30 25572 H 2317.22 -0.221954 4.1701 0
M  V30 25573 N 2317.66 -1.32267 0.856927 0
M  V30 25574 C 2318.94 -1.91821 0.382617 0
M  V30 25575 C 2319.32 -1.78053 -1.13404 0
M  V30 25576 O 2318.67 -1.18004 -1.95671 0
M  V30 25577 C 2318.88 -3.38503 0.849505 0
M  V30 25578 C 2320.22 -4.15633 0.868009 0
M  V30 25579 O 2321.25 -3.47231 0.794293 0
M  V30 25580 O 2320.11 -5.3778 0.972381 0
M  V30 25581 H 2317.2 -0.819377 0.112028 0
M  V30 25582 H 2319.75 -1.41022 0.943977 0
M  V30 25583 H 2318.52 -3.42478 1.89273 0
M  V30 25584 H 2318.14 -3.96711 0.265722 0
M  V30 25585 N 2319.14 -0.615084 -1.45102 0
M  V30 25586 C 2320.07 0.0865209 -2.3334 0
M  V30 25587 C 2321.05 0.851183 -1.47271 0
M  V30 25588 O 2322.23 0.82025 -1.76027 0
M  V30 25589 C 2319.36 1.0795 -3.30097 0
M  V30 25590 C 2318.32 0.427553 -4.25859 0
M  V30 25591 C 2317.64 1.52931 -5.12363 0
M  V30 25592 C 2318.94 -0.656035 -5.18164 0
M  V30 25593 H 2320.64 -0.650275 -2.92253 0
M  V30 25594 H 2318.18 -0.314163 -1.40531 0
M  V30 25595 H 2320.14 1.57894 -3.90701 0
M  V30 25596 H 2318.86 1.84699 -2.69359 0
M  V30 25597 H 2317.52 -0.0510936 -3.66564 0
M  V30 25598 H 2317.17 2.28726 -4.47988 0
M  V30 25599 H 2316.87 1.09855 -5.7724 0
M  V30 25600 H 2318.39 2.03087 -5.75837 0
M  V30 25601 H 2319.81 -0.240358 -5.72796 0
M  V30 25602 H 2318.2 -1.00898 -5.91557 0
M  V30 25603 H 2319.27 -1.52965 -4.60141 0
M  V30 25604 N 2320.62 1.53557 -0.354678 0
M  V30 25605 C 2321.56 2.25387 0.496928 0
M  V30 25606 C 2322.53 1.25638 1.08648 0
M  V30 25607 O 2323.72 1.54395 1.12101 0
M  V30 25608 C 2320.86 3.0384 1.63632 0
M  V30 25609 C 2319.97 4.18462 1.073 0
M  V30 25610 C 2319.11 4.8438 2.18059 0
M  V30 25611 C 2318.15 5.91052 1.59136 0
M  V30 25612 N 2317.28 6.50704 2.63684 0
M  V30 25613 H 2322.12 2.9775 -0.122128 0
M  V30 25614 H 2319.66 1.46923 -0.0720412 0
M  V30 25615 H 2321.62 3.47593 2.30727 0
M  V30 25616 H 2320.25 2.33753 2.22619 0
M  V30 25617 H 2319.3 3.79273 0.292642 0
M  V30 25618 H 2320.61 4.95153 0.602106 0
M  V30 25619 H 2319.77 5.3126 2.92998 0
M  V30 25620 H 2318.51 4.07138 2.68496 0
M  V30 25621 H 2317.51 5.43543 0.82708 0
M  V30 25622 H 2318.74 6.70208 1.09538 0
M  V30 25623 H 2316.68 5.7632 3.13355 0
M  V30 25624 H 2316.6 7.229 2.2125 0
M  V30 25625 H 2317.87 7.02235 3.38358 0
M  V30 25626 N 2322.1 0.083568 1.57378 0
M  V30 25627 C 2323.03 -0.909301 2.10391 0
M  V30 25628 C 2324.04 -1.25367 1.0386 0
M  V30 25629 O 2325.23 -1.2088 1.3134 0
M  V30 25630 C 2322.33 -2.22176 2.55912 0
M  V30 25631 C 2321.5 -2.05446 3.86148 0
M  V30 25632 C 2320.56 -3.20101 4.17638 0
M  V30 25633 O 2319.59 -2.94572 4.87048 0
M  V30 25634 N 2320.79 -4.4554 3.72121 0
M  V30 25635 H 2323.55 -0.456605 2.96201 0
M  V30 25636 H 2321.12 -0.101848 1.61579 0
M  V30 25637 H 2323.11 -2.97806 2.74032 0
M  V30 25638 H 2321.68 -2.58906 1.75175 0
M  V30 25639 H 2320.9 -1.14213 3.77292 0
M  V30 25640 H 2322.19 -1.91532 4.71373 0
M  V30 25641 H 2321.58 -4.69165 3.1607 0
M  V30 25642 H 2320.14 -5.18158 3.95418 0
M  V30 25643 N 2323.57 -1.5645 -0.190064 0
M  V30 25644 C 2324.5 -1.97971 -1.23813 0
M  V30 25645 C 2325.48 -0.85242 -1.472 0
M  V30 25646 O 2326.67 -1.11712 -1.58852 0
M  V30 25647 C 2323.8 -2.32354 -2.58126 0
M  V30 25648 C 2322.75 -3.47868 -2.49342 0
M  V30 25649 C 2322.08 -3.67941 -3.87974 0
M  V30 25650 C 2323.38 -4.81901 -2.01416 0
M  V30 25651 H 2325.07 -2.85771 -0.89306 0
M  V30 25652 H 2322.62 -1.37488 -0.428153 0
M  V30 25653 H 2324.57 -2.59997 -3.31632 0
M  V30 25654 H 2323.3 -1.41443 -2.94383 0
M  V30 25655 H 2321.96 -3.20324 -1.78291 0
M  V30 25656 H 2321.6 -2.74352 -4.21592 0
M  V30 25657 H 2321.3 -4.45654 -3.8297 0
M  V30 25658 H 2322.83 -3.97965 -4.63094 0
M  V30 25659 H 2324.24 -5.08542 -2.64684 0
M  V30 25660 H 2322.64 -5.6312 -2.07403 0
M  V30 25661 H 2323.71 -4.75148 -0.967593 0
M  V30 25662 N 2325.05 0.45796 -1.50799 0
M  V30 25663 C 2326.3 1.20789 -1.63651 0
M  V30 25664 C 2326.65 1.89395 -0.338695 0
M  V30 25665 O 2325.95 1.79717 0.66426 0
M  V30 25666 C 2326.14 2.26625 -2.76362 0
M  V30 25667 C 2325.97 1.68404 -4.16977 0
M  V30 25668 C 2324.74 1.47799 -4.83201 0
M  V30 25669 C 2326.94 1.17167 -5.00776 0
M  V30 25670 N 2324.92 0.849585 -6.07993 0
M  V30 25671 C 2326.29 0.667295 -6.16399 0
M  V30 25672 C 2328.34 1.06146 -4.86454 0
M  V30 25673 C 2327.05 0.0635644 -7.19272 0
M  V30 25674 C 2329.07 0.471655 -5.89516 0
M  V30 25675 C 2328.44 -0.0222795 -7.04396 0
M  V30 25676 H 2324.53 0.430409 -0.652895 0
M  V30 25677 H 2327.12 0.507752 -1.87963 0
M  V30 25678 H 2325.29 2.94051 -2.53749 0
M  V30 25679 H 2327.02 2.93631 -2.78501 0
M  V30 25680 H 2323.78 1.73395 -4.40717 0
M  V30 25681 H 2324.2 0.553419 -6.74734 0
M  V30 25682 H 2328.84 1.42925 -3.9791 0
M  V30 25683 H 2326.56 -0.316395 -8.0748 0
M  V30 25684 H 2330.15 0.388569 -5.80501 0
M  V30 25685 H 2329.03 -0.471513 -7.82781 0
M  V30 25686 N 2326.53 1.40598 0.712035 0
M  V30 25687 C 2327.78 1.38793 1.46904 0
M  V30 25688 C 2328.1 -0.00776963 1.94998 0
M  V30 25689 O 2327.37 -0.963144 1.70588 0
M  V30 25690 H 2325.95 0.51083 0.545034 0
M  V30 25691 H 2328.61 1.75685 0.843851 0
M  V30 25692 H 2327.71 2.06501 2.34017 0
M  V30 25693 N 2328.01 -0.94462 1.26153 0
M  V30 25694 C 2328.94 -2.06017 1.09906 0
M  V30 25695 C 2329.92 -1.70099 0.00522528 0
M  V30 25696 O 2331.1 -1.93395 0.176617 0
M  V30 25697 C 2328.23 -3.39592 0.727622 0
M  V30 25698 C 2327.19 -3.89558 1.77281 0
M  V30 25699 C 2326.51 -5.19744 1.25578 0
M  V30 25700 C 2327.81 -4.14822 3.17365 0
M  V30 25701 H 2329.51 -2.19868 2.03221 0
M  V30 25702 H 2327.05 -1.0565 0.97847 0
M  V30 25703 H 2329.01 -4.17094 0.60085 0
M  V30 25704 H 2327.73 -3.25708 -0.241229 0
M  V30 25705 H 2326.39 -3.14234 1.88819 0
M  V30 25706 H 2326.04 -5.02237 0.276872 0
M  V30 25707 H 2325.74 -5.54144 1.95443 0
M  V30 25708 H 2327.26 -5.99833 1.14161 0
M  V30 25709 H 2328.68 -4.82949 3.08923 0
M  V30 25710 H 2327.07 -4.60497 3.84789 0
M  V30 25711 H 2328.14 -3.20728 3.63678 0
M  V30 25712 N 2329.49 -1.07901 -1.1487 0
M  V30 25713 C 2330.42 -0.725926 -2.21929 0
M  V30 25714 C 2331.4 0.289241 -1.67623 0
M  V30 25715 O 2332.58 0.160753 -1.93534 0
M  V30 25716 C 2329.71 -0.128917 -3.47061 0
M  V30 25717 C 2328.67 -1.07186 -4.14361 0
M  V30 25718 C 2327.99 -0.337322 -5.33635 0
M  V30 25719 C 2329.29 -2.40783 -4.63488 0
M  V30 25720 H 2330.99 -1.62102 -2.51721 0
M  V30 25721 H 2328.53 -0.780859 -1.2099 0
M  V30 25722 H 2330.48 0.130073 -4.21199 0
M  V30 25723 H 2329.21 0.801285 -3.16618 0
M  V30 25724 H 2327.87 -1.31586 -3.42171 0
M  V30 25725 H 2327.52 0.596518 -4.9945 0
M  V30 25726 H 2327.22 -0.96589 -5.79607 0
M  V30 25727 H 2328.74 -0.086264 -6.10539 0
M  V30 25728 H 2330.15 -2.20678 -5.29126 0
M  V30 25729 H 2328.55 -2.99285 -5.20143 0
M  V30 25730 H 2329.62 -3.02683 -3.78829 0
M  V30 25731 N 2330.96 1.31811 -0.863929 0
M  V30 25732 C 2332.21 1.96194 -0.468045 0
M  V30 25733 C 2332.53 1.69079 0.983444 0
M  V30 25734 O 2333.73 2.27276 1.48519 0
M  V30 25735 C 2332.19 3.51211 -0.786057 0
M  V30 25736 C 2331.8 3.87174 -2.2539 0
M  V30 25737 C 2333.54 4.22018 -0.458348 0
M  V30 25738 C 2331.45 5.35275 -2.51464 0
M  V30 25739 H 2330.38 0.734284 -0.171296 0
M  V30 25740 H 2333.03 1.5007 -1.056 0
M  V30 25741 H 2331.41 3.95795 -0.127429 0
M  V30 25742 H 2332.58 3.53569 -2.95509 0
M  V30 25743 H 2330.9 3.29416 -2.54704 0
M  V30 25744 H 2333.5 5.3097 -0.630463 0
M  V30 25745 H 2333.84 4.11942 0.600762 0
M  V30 25746 H 2334.37 3.83048 -1.07326 0
M  V30 25747 H 2331.11 5.50381 -3.56035 0
M  V30 25748 H 2330.63 5.70253 -1.85933 0
M  V30 25749 H 2332.31 6.02468 -2.35885 0
M  V30 25750 N 2332.44 0.62277 1.44773 0
M  V30 25751 C 2333.35 -0.0885619 2.34433 0
M  V30 25752 C 2334.37 -0.844502 1.52132 0
M  V30 25753 O 2335.54 -0.798658 1.84888 0
M  V30 25754 C 2332.61 -1.06344 3.29987 0
M  V30 25755 C 2331.67 -0.307798 4.28195 0
M  V30 25756 C 2330.9 -1.23624 5.19185 0
M  V30 25757 O 2331.13 -2.47467 5.13922 0
M  V30 25758 O 2330.06 -0.725084 5.97517 0
M  V30 25759 H 2333.89 0.648651 2.96692 0
M  V30 25760 H 2331.47 0.382982 1.44408 0
M  V30 25761 H 2333.35 -1.62453 3.88828 0
M  V30 25762 H 2332.03 -1.78142 2.70272 0
M  V30 25763 H 2330.93 0.29613 3.72926 0
M  V30 25764 H 2332.27 0.369986 4.90807 0
M  V30 25765 N 2333.92 -1.53367 0.362817 0
M  V30 25766 C 2334.83 -2.29362 -0.492953 0
M  V30 25767 C 2335.85 -1.35221 -1.09505 0
M  V30 25768 O 2337.02 -1.68275 -1.10659 0
M  V30 25769 C 2334.09 -3.06603 -1.6185 0
M  V30 25770 C 2333.15 -4.16407 -1.04422 0
M  V30 25771 C 2332.38 -4.89955 -2.11613 0
M  V30 25772 O 2332.6 -4.63339 -3.32676 0
M  V30 25773 O 2331.54 -5.75951 -1.74825 0
M  V30 25774 H 2335.36 -3.03441 0.125384 0
M  V30 25775 H 2332.95 -1.48857 0.12728 0
M  V30 25776 H 2334.83 -3.54845 -2.27295 0
M  V30 25777 H 2333.51 -2.35363 -2.22229 0
M  V30 25778 H 2332.41 -3.72424 -0.353754 0
M  V30 25779 H 2333.75 -4.89804 -0.485027 0
M  V30 25780 N 2335.4 -0.091913 -1.57332 0
M  V30 25781 C 2336.63 0.581013 -1.98575 0
M  V30 25782 C 2337.04 1.61921 -0.970931 0
M  V30 25783 O 2336.4 1.82456 0.0398733 0
M  V30 25784 C 2336.45 1.23158 -3.39874 0
M  V30 25785 O 2336.17 0.234912 -4.3747 0
M  V30 25786 C 2337.67 1.99042 -3.96103 0
M  V30 25787 H 2334.89 0.156007 -0.652612 0
M  V30 25788 H 2337.44 -0.170261 -2.0379 0
M  V30 25789 H 2335.59 1.9338 -3.35683 0
M  V30 25790 H 2336 0.704089 -5.19753 0
M  V30 25791 H 2337.48 2.39925 -4.97132 0
M  V30 25792 H 2337.96 2.85501 -3.33745 0
M  V30 25793 H 2338.56 1.33642 -4.03757 0
M  V30 25794 N 2336.88 1.56548 0.181765 0
M  V30 25795 C 2337.79 1.98817 1.24535 0
M  V30 25796 C 2338.8 0.897887 1.49044 0
M  V30 25797 O 2339.98 1.2047 1.61397 0
M  V30 25798 C 2337.04 2.33059 2.56679 0
M  V30 25799 C 2336.1 3.55863 2.40125 0
M  V30 25800 C 2335.34 3.88463 3.65968 0
M  V30 25801 O 2335.56 3.22169 4.70705 0
M  V30 25802 O 2334.49 4.81849 3.60701 0
M  V30 25803 H 2338.32 2.89538 0.916596 0
M  V30 25804 H 2335.91 1.44279 0.387817 0
M  V30 25805 H 2337.79 2.561 3.3465 0
M  V30 25806 H 2336.46 1.45503 2.89155 0
M  V30 25807 H 2335.37 3.38054 1.6022 0
M  V30 25808 H 2336.7 4.43928 2.12578 0
M  V30 25809 N 2338.35 -0.449957 1.5104 0
M  V30 25810 C 2339.3 -1.5452 1.71441 0
M  V30 25811 C 2340.27 -1.56521 0.555899 0
M  V30 25812 O 2341.46 -1.73727 0.788902 0
M  V30 25813 C 2338.6 -2.9234 1.83389 0
M  V30 25814 C 2337.71 -2.99965 3.10878 0
M  V30 25815 C 2336.84 -4.28829 3.13495 0
M  V30 25816 C 2335.88 -4.30274 4.35351 0
M  V30 25817 N 2335.02 -5.50643 4.35588 0
M  V30 25818 H 2339.86 -1.36428 2.64936 0
M  V30 25819 H 2337.4 -0.662959 1.31314 0
M  V30 25820 H 2339.36 -3.7229 1.88298 0
M  V30 25821 H 2337.99 -3.09018 0.93314 0
M  V30 25822 H 2337.04 -2.12755 3.1534 0
M  V30 25823 H 2338.35 -2.96893 4.00819 0
M  V30 25824 H 2337.5 -5.17143 3.1725 0
M  V30 25825 H 2336.24 -4.34539 2.21421 0
M  V30 25826 H 2335.25 -3.40354 4.31786 0
M  V30 25827 H 2336.47 -4.26239 5.28675 0
M  V30 25828 H 2334.42 -5.57098 3.46378 0
M  V30 25829 H 2334.34 -5.494 5.19323 0
M  V30 25830 H 2335.6 -6.41024 4.43518 0
M  V30 25831 N 2339.83 -1.40974 -0.704569 0
M  V30 25832 C 2341.25 -1.23245 -1.01404 0
M  V30 25833 C 2341.45 -0.115434 -2.01169 0
M  V30 25834 O 2340.5 0.523104 -2.47022 0
M  V30 25835 C 2341.82 -2.57839 -1.54724 0
M  V30 25836 C 2343.37 -2.64945 -1.66653 0
M  V30 25837 C 2343.84 -3.99834 -2.23376 0
M  V30 25838 N 2345.33 -4.01633 -2.30749 0
M  V30 25839 C 2346.07 -5.02799 -2.75646 0
M  V30 25840 N 2345.56 -6.14357 -3.20214 0
M  V30 25841 N 2347.36 -4.90164 -2.75129 0
M  V30 25842 H 2339.51 -2.12355 -0.0434912 0
M  V30 25843 H 2341.77 -0.944457 -0.0818785 0
M  V30 25844 H 2341.48 -3.40285 -0.888772 0
M  V30 25845 H 2341.35 -2.79698 -2.53079 0
M  V30 25846 H 2343.74 -1.82864 -2.31614 0
M  V30 25847 H 2343.82 -2.46906 -0.668674 0
M  V30 25848 H 2343.46 -4.82359 -1.59034 0
M  V30 25849 H 2343.39 -4.15209 -3.23897 0
M  V30 25850 H 2345.88 -3.21082 -1.99285 0
M  V30 25851 H 2346.2 -6.8743 -3.53072 0
M  V30 25852 H 2344.54 -6.17907 -3.18145 0
M  V30 25853 H 2347.73 -4.02099 -2.39654 0
M  V30 25854 H 2347.9 -5.69146 -3.09802 0
M  V30 25855 N 2341.31 0.937917 -1.26653 0
M  V30 25856 C 2342.26 2.02301 -1.05159 0
M  V30 25857 C 2343.24 1.60891 0.017095 0
M  V30 25858 O 2344.44 1.75864 -0.200244 0
M  V30 25859 C 2341.57 3.36294 -0.690021 0
M  V30 25860 C 2340.65 3.84178 -1.79633 0
M  V30 25861 N 2341.04 4.04678 -3.03429 0
M  V30 25862 C 2339.34 4.13121 -1.68068 0
M  V30 25863 C 2340.04 4.44393 -3.75353 0
M  V30 25864 N 2339.02 4.51283 -3.03059 0
M  V30 25865 H 2342.82 2.16167 -1.99121 0
M  V30 25866 H 2340.33 1.124 -1.17218 0
M  V30 25867 H 2342.33 4.1368 -0.517184 0
M  V30 25868 H 2340.99 3.23796 0.242082 0
M  V30 25869 H 2342 3.91275 -3.393 0
M  V30 25870 H 2338.68 4.09394 -0.818701 0
M  V30 25871 H 2340.07 4.68418 -4.81699 0
M  V30 25872 N 2342.79 1.08509 1.14296 0
M  V30 25873 C 2344.2 0.812926 1.37345 0
M  V30 25874 C 2344.4 -0.577291 1.93053 0
M  V30 25875 O 2343.46 -1.3339 2.14391 0
M  V30 25876 C 2344.77 1.89646 2.33356 0
M  V30 25877 C 2346.32 1.92259 2.46993 0
M  V30 25878 C 2346.8 2.9973 3.46303 0
M  V30 25879 N 2348.29 2.98908 3.53847 0
M  V30 25880 C 2349.02 3.78708 4.30544 0
M  V30 25881 N 2348.52 4.68389 5.10474 0
M  V30 25882 N 2350.31 3.67006 4.2575 0
M  V30 25883 H 2342.46 1.98152 0.764832 0
M  V30 25884 H 2344.73 0.859966 0.398951 0
M  V30 25885 H 2344.43 2.89601 1.9956 0
M  V30 25886 H 2344.31 1.76665 3.33271 0
M  V30 25887 H 2346.69 0.929495 2.80079 0
M  V30 25888 H 2346.77 2.09319 1.47035 0
M  V30 25889 H 2346.42 3.99247 3.1395 0
M  V30 25890 H 2346.35 2.79915 4.46044 0
M  V30 25891 H 2348.84 2.33909 2.96808 0
M  V30 25892 H 2349.15 5.25883 5.66275 0
M  V30 25893 H 2347.5 4.72431 5.09739 0
M  V30 25894 H 2350.69 2.96311 3.62378 0
M  V30 25895 H 2350.86 4.29436 4.85272 0
M  V30 25896 N 2344.27 -1.31351 0.870907 0
M  V30 25897 C 2345.68 -1.49342 0.562958 0
M  V30 25898 C 2345.88 -1.80149 -0.902693 0
M  V30 25899 O 2344.94 -1.8807 -1.68481 0
M  V30 25900 C 2346.25 -2.62656 1.46398 0
M  V30 25901 C 2347.8 -2.76539 1.46612 0
M  V30 25902 C 2348.27 -3.92951 2.35273 0
M  V30 25903 N 2349.77 -4.00239 2.33158 0
M  V30 25904 C 2350.5 -4.89589 2.9848 0
M  V30 25905 N 2350 -5.83834 3.72975 0
M  V30 25906 N 2351.79 -4.82843 2.87784 0
M  V30 25907 H 2343.94 -1.09623 1.81925 0
M  V30 25908 H 2346.2 -0.541763 0.777944 0
M  V30 25909 H 2345.91 -2.4667 2.50693 0
M  V30 25910 H 2345.78 -3.58817 1.1632 0
M  V30 25911 H 2348.17 -2.91939 0.430741 0
M  V30 25912 H 2348.25 -1.81043 1.80713 0
M  V30 25913 H 2347.9 -3.78309 3.38888 0
M  V30 25914 H 2347.83 -4.87757 1.98495 0
M  V30 25915 H 2350.32 -3.32811 1.79011 0
M  V30 25916 H 2350.63 -6.48743 4.19943 0
M  V30 25917 H 2348.97 -5.8381 3.77083 0
M  V30 25918 H 2352.17 -4.08191 2.29123 0
M  V30 25919 H 2352.34 -5.52271 3.38971 0
M  V30 25920 N 2345.74 -0.630439 -1.44441 0
M  V30 25921 C 2346.67 0.0617672 -2.33418 0
M  V30 25922 C 2347.66 0.835515 -1.48166 0
M  V30 25923 O 2348.84 0.801533 -1.76887 0
M  V30 25924 C 2345.97 1.04443 -3.31223 0
M  V30 25925 C 2344.92 0.382361 -4.26289 0
M  V30 25926 C 2344.25 1.47488 -5.13957 0
M  V30 25927 C 2345.55 -0.710956 -5.17439 0
M  V30 25928 H 2347.24 -0.681236 -2.91547 0
M  V30 25929 H 2344.79 -0.329051 -1.4019 0
M  V30 25930 H 2346.74 1.53742 -3.92354 0
M  V30 25931 H 2345.47 1.81831 -2.71302 0
M  V30 25932 H 2344.13 -0.0899698 -3.6649 0
M  V30 25933 H 2343.77 2.23962 -4.50389 0
M  V30 25934 H 2343.47 1.03727 -5.78372 0
M  V30 25935 H 2345 1.96968 -5.77958 0
M  V30 25936 H 2346.41 -0.301097 -5.72509 0
M  V30 25937 H 2344.81 -1.07166 -5.90454 0
M  V30 25938 H 2345.88 -1.57837 -4.58493 0
M  V30 25939 N 2347.22 1.53172 -0.370945 0
M  V30 25940 C 2348.13 2.29621 0.480783 0
M  V30 25941 C 2349.15 1.358 1.08786 0
M  V30 25942 O 2350.32 1.6886 1.09765 0
M  V30 25943 C 2347.39 3.07457 1.60222 0
M  V30 25944 C 2346.45 4.16955 1.02212 0
M  V30 25945 C 2345.68 4.9107 2.09012 0
M  V30 25946 O 2345.91 4.65097 3.30214 0
M  V30 25947 O 2344.84 5.7687 1.71768 0
M  V30 25948 H 2348.67 3.0337 -0.141474 0
M  V30 25949 H 2346.25 1.48787 -0.135172 0
M  V30 25950 H 2348.13 3.56045 2.2541 0
M  V30 25951 H 2346.81 2.36539 2.20978 0
M  V30 25952 H 2345.72 3.72606 0.333998 0
M  V30 25953 H 2347.05 4.90055 0.459044 0
M  V30 25954 N 2348.7 0.100255 1.57281 0
M  V30 25955 C 2349.61 -0.870927 2.17835 0
M  V30 25956 C 2350.63 -1.30647 1.14923 0
M  V30 25957 O 2351.8 -1.37333 1.47315 0
M  V30 25958 C 2348.87 -2.11015 2.75088 0
M  V30 25959 C 2347.93 -1.72831 3.92973 0
M  V30 25960 C 2347.16 -2.90846 4.47487 0
M  V30 25961 O 2347.38 -4.05724 4.00929 0
M  V30 25962 O 2346.32 -2.69014 5.38438 0
M  V30 25963 H 2350.14 -0.385697 3.01241 0
M  V30 25964 H 2347.73 -0.124371 1.48881 0
M  V30 25965 H 2349.61 -2.83629 3.11661 0
M  V30 25966 H 2348.29 -2.5858 1.94725 0
M  V30 25967 H 2347.19 -0.97382 3.61203 0
M  V30 25968 H 2348.53 -1.30024 4.74715 0
M  V30 25969 N 2350.18 -1.56643 -0.17346 0
M  V30 25970 C 2351.14 -1.95364 -1.19856 0
M  V30 25971 C 2352.14 -0.837064 -1.37295 0
M  V30 25972 O 2353.33 -1.10415 -1.34737 0
M  V30 25973 C 2350.46 -2.24658 -2.56401 0
M  V30 25974 H 2351.66 -2.87094 -0.867012 0
M  V30 25975 H 2349.21 -1.50667 -0.415827 0
M  V30 25976 H 2349.95 -1.35636 -2.94573 0
M  V30 25977 H 2349.73 -3.06045 -2.4511 0
M  V30 25978 H 2351.22 -2.55546 -3.30282 0
M  V30 25979 N 2351.66 0.44194 -1.51277 0
M  V30 25980 C 2352.61 1.53439 -1.68643 0
M  V30 25981 C 2353.59 1.51551 -0.540471 0
M  V30 25982 O 2354.78 1.58082 -0.796185 0
M  V30 25983 C 2351.91 2.91668 -1.81065 0
M  V30 25984 C 2351 2.9833 -3.0143 0
M  V30 25985 N 2351.39 2.74745 -4.24675 0
M  V30 25986 C 2349.69 3.29488 -3.00589 0
M  V30 25987 C 2350.39 2.8713 -5.05896 0
M  V30 25988 N 2349.36 3.18601 -4.40448 0
M  V30 25989 H 2353.17 1.33949 -2.61601 0
M  V30 25990 H 2350.68 0.649174 -1.48861 0
M  V30 25991 H 2352.68 3.70256 -1.91615 0
M  V30 25992 H 2351.34 3.12183 -0.89285 0
M  V30 25993 H 2352.35 2.49761 -4.53696 0
M  V30 25994 H 2349.03 3.55805 -2.18423 0
M  V30 25995 H 2350.42 2.72888 -6.13988 0
M  V30 25996 N 2353.14 1.41345 0.697083 0
M  V30 25997 C 2354.55 1.23781 1.00749 0
M  V30 25998 C 2354.75 0.126101 2.01105 0
M  V30 25999 O 2353.81 -0.509996 2.47296 0
M  V30 26000 C 2355.12 2.58656 1.53354 0
M  V30 26001 C 2356.67 2.65825 1.65246 0
M  V30 26002 C 2357.14 4.01013 2.21253 0
M  V30 26003 N 2358.63 4.02851 2.28615 0
M  V30 26004 C 2359.37 5.04254 2.72975 0
M  V30 26005 N 2358.87 6.16047 3.16951 0
M  V30 26006 N 2360.66 4.91616 2.72526 0
M  V30 26007 H 2352.81 2.12376 0.0322288 0
M  V30 26008 H 2355.07 0.944878 0.0768687 0
M  V30 26009 H 2354.78 3.40751 0.870713 0
M  V30 26010 H 2354.65 2.81036 2.51592 0
M  V30 26011 H 2357.04 1.8409 2.3064 0
M  V30 26012 H 2357.12 2.47257 0.65557 0
M  V30 26013 H 2356.76 4.83196 1.56474 0
M  V30 26014 H 2356.69 4.16921 3.2169 0
M  V30 26015 H 2359.19 3.22135 1.9758 0
M  V30 26016 H 2359.5 6.89293 3.49421 0
M  V30 26017 H 2357.84 6.19585 3.14864 0
M  V30 26018 H 2361.03 4.03365 2.37518 0
M  V30 26019 H 2361.21 5.70781 3.06779 0
M  V30 26020 N 2354.61 -0.931187 1.27148 0
M  V30 26021 C 2355.58 -2.01287 1.09618 0
M  V30 26022 C 2356.58 -1.60747 0.0412864 0
M  V30 26023 O 2357.77 -1.71843 0.285575 0
M  V30 26024 C 2354.9 -3.34261 0.669505 0
M  V30 26025 H 2356.09 -2.18269 2.05666 0
M  V30 26026 H 2353.64 -1.11151 1.09887 0
M  V30 26027 H 2354.38 -3.22978 -0.292515 0
M  V30 26028 H 2354.16 -3.65042 1.43133 0
M  V30 26029 H 2355.65 -4.13705 0.568994 0
M  V30 26030 N 2356.09 -1.09114 -1.13719 0
M  V30 26031 C 2357.02 -0.685505 -2.18709 0
M  V30 26032 C 2358.04 0.27104 -1.60528 0
M  V30 26033 O 2359.23 0.0575835 -1.78407 0
M  V30 26034 C 2356.33 0.0110659 -3.38898 0
M  V30 26035 C 2355.5 -0.966206 -4.26595 0
M  V30 26036 C 2354.56 -0.303632 -5.25323 0
M  V30 26037 O 2353.58 -0.950276 -5.61212 0
M  V30 26038 N 2354.79 0.94355 -5.7278 0
M  V30 26039 H 2357.55 -1.58875 -2.54124 0
M  V30 26040 H 2355.11 -0.978165 -1.2901 0
M  V30 26041 H 2357.1 0.465446 -4.02015 0
M  V30 26042 H 2355.67 0.816511 -3.01748 0
M  V30 26043 H 2354.89 -1.59923 -3.60303 0
M  V30 26044 H 2356.18 -1.62819 -4.82045 0
M  V30 26045 H 2355.58 1.48853 -5.45765 0
M  V30 26046 H 2354.14 1.3413 -6.3785 0
M  V30 26047 N 2357.57 1.30887 -0.877861 0
M  V30 26048 C 2358.5 2.27272 -0.296647 0
M  V30 26049 C 2359.51 1.53415 0.544772 0
M  V30 26050 O 2360.7 1.74718 0.36548 0
M  V30 26051 C 2357.8 3.33593 0.597423 0
M  V30 26052 C 2356.98 4.36879 -0.213328 0
M  V30 26053 C 2356.04 5.22651 0.610116 0
M  V30 26054 O 2355.06 5.69189 0.0353409 0
M  V30 26055 N 2356.26 5.47807 1.92061 0
M  V30 26056 H 2359.03 2.77785 -1.12497 0
M  V30 26057 H 2356.59 1.43992 -0.74013 0
M  V30 26058 H 2358.58 3.87893 1.15418 0
M  V30 26059 H 2357.15 2.83063 1.32642 0
M  V30 26060 H 2356.37 3.82543 -0.951533 0
M  V30 26061 H 2357.66 5.0295 -0.769351 0
M  V30 26062 H 2357.06 5.11768 2.41061 0
M  V30 26063 H 2355.61 6.05011 2.42498 0
M  V30 26064 N 2359.05 0.638091 1.44105 0
M  V30 26065 C 2360.28 0.15243 2.06037 0
M  V30 26066 C 2360.69 -1.18105 1.4781 0
M  V30 26067 O 2360.03 -1.7369 0.598123 0
M  V30 26068 C 2360.09 -0.0293082 3.59488 0
M  V30 26069 C 2359.75 1.2271 4.40217 0
M  V30 26070 C 2360.75 2.1524 4.73252 0
M  V30 26071 C 2358.44 1.46446 4.80478 0
M  V30 26072 C 2360.43 3.29811 5.45439 0
M  V30 26073 C 2358.12 2.61313 5.52412 0
M  V30 26074 C 2359.12 3.52822 5.84813 0
M  V30 26075 O 2358.8 4.65685 6.55281 0
M  V30 26076 H 2358.54 0.0801518 0.671231 0
M  V30 26077 H 2361.09 0.874596 1.85849 0
M  V30 26078 H 2359.32 -0.806692 3.78192 0
M  V30 26079 H 2361.01 -0.470404 4.03165 0
M  V30 26080 H 2361.77 1.98139 4.4268 0
M  V30 26081 H 2357.65 0.761056 4.54675 0
M  V30 26082 H 2361.2 4.01259 5.70646 0
M  V30 26083 H 2357.09 2.78354 5.824 0
M  V30 26084 H 2357.86 4.64756 6.73754 0
M  V30 26085 N 2360.53 -1.52973 0.379063 0
M  V30 26086 C 2361.76 -2.05566 -0.206454 0
M  V30 26087 C 2362.16 -1.25139 -1.41904 0
M  V30 26088 O 2361.51 -0.288496 -1.8142 0
M  V30 26089 C 2361.57 -3.53556 -0.651024 0
M  V30 26090 C 2361.23 -4.54812 0.446706 0
M  V30 26091 C 2362.23 -5.03362 1.30087 0
M  V30 26092 C 2359.91 -4.98572 0.610807 0
M  V30 26093 C 2361.91 -5.94288 2.30436 0
M  V30 26094 C 2359.6 -5.89301 1.61765 0
M  V30 26095 C 2360.59 -6.3705 2.46285 0
M  V30 26096 O 2360.28 -7.25988 3.45249 0
M  V30 26097 H 2360.01 -0.674974 -0.0372262 0
M  V30 26098 H 2362.57 -1.98181 0.539753 0
M  V30 26099 H 2360.8 -3.58524 -1.44905 0
M  V30 26100 H 2362.49 -3.8894 -1.16105 0
M  V30 26101 H 2363.25 -4.70292 1.18535 0
M  V30 26102 H 2359.13 -4.60985 -0.0373234 0
M  V30 26103 H 2362.68 -6.3148 2.96443 0
M  V30 26104 H 2358.57 -6.21785 1.73359 0
M  V30 26105 H 2359.34 -7.44021 3.41137 0
M  V30 26106 N 2362 -0.108595 -1.57225 0
M  V30 26107 C 2363.25 0.551909 -1.94834 0
M  V30 26108 C 2363.58 1.67346 -0.991233 0
M  V30 26109 O 2362.83 1.95696 -0.0132222 0
M  V30 26110 C 2363.13 1.13457 -3.38913 0
M  V30 26111 C 2362.8 0.13543 -4.50697 0
M  V30 26112 C 2361.46 -0.139336 -4.80998 0
M  V30 26113 C 2363.81 -0.546048 -5.18332 0
M  V30 26114 C 2361.14 -1.10204 -5.76257 0
M  V30 26115 C 2363.49 -1.49732 -6.14624 0
M  V30 26116 C 2362.16 -1.78018 -6.43324 0
M  V30 26117 H 2361.43 0.201958 -0.712947 0
M  V30 26118 H 2364.07 -0.187294 -1.90582 0
M  V30 26119 H 2362.38 1.95031 -3.39809 0
M  V30 26120 H 2364.08 1.65355 -3.6532 0
M  V30 26121 H 2360.67 0.359771 -4.27087 0
M  V30 26122 H 2364.85 -0.346929 -4.95086 0
M  V30 26123 H 2360.11 -1.32805 -5.96802 0
M  V30 26124 H 2364.28 -2.03111 -6.66122 0
M  V30 26125 H 2361.91 -2.52771 -7.16945 0
M  V30 26126 N 2363.48 1.56732 0.16515 0
M  V30 26127 C 2364.76 1.73226 0.908412 0
M  V30 26128 C 2365.14 0.671685 2.00129 0
M  V30 26129 O 2364.49 -0.312491 2.26353 0
M  V30 26130 C 2364.7 3.16647 1.4675 0
M  V30 26131 C 2366.04 3.77791 1.93802 0
M  V30 26132 O 2367.07 3.19963 1.56531 0
M  V30 26133 O 2365.93 4.79341 2.62478 0
M  V30 26134 H 2363.02 0.707626 0.428013 0
M  V30 26135 H 2365.57 1.69013 0.152496 0
M  V30 26136 H 2364.34 3.85325 0.681222 0
M  V30 26137 H 2363.96 3.25211 2.28743 0
M  V30 26138 N 2364.96 -0.433911 1.51509 0
M  V30 26139 C 2365.92 -1.50946 1.72476 0
M  V30 26140 C 2366.92 -1.49397 0.594751 0
M  V30 26141 O 2368.11 -1.51358 0.862342 0
M  V30 26142 C 2365.24 -2.90471 1.78437 0
M  V30 26143 H 2366.44 -1.33658 2.68469 0
M  V30 26144 H 2363.99 -0.662811 1.4155 0
M  V30 26145 H 2364.73 -3.1316 0.8427 0
M  V30 26146 H 2364.51 -2.93 2.60563 0
M  V30 26147 H 2366 -3.68488 1.96485 0
M  V30 26148 N 2366.44 -1.41713 -0.689577 0
M  V30 26149 C 2367.4 -1.43749 -1.78518 0
M  V30 26150 C 2368.4 -0.327218 -1.57435 0
M  V30 26151 O 2369.59 -0.587377 -1.63999 0
M  V30 26152 C 2366.72 -1.25473 -3.16969 0
M  V30 26153 H 2367.92 -2.41286 -1.78104 0
M  V30 26154 H 2365.47 -1.27943 -0.897787 0
M  V30 26155 H 2366.2 -0.288005 -3.23019 0
M  V30 26156 H 2365.99 -2.05923 -3.33674 0
M  V30 26157 H 2367.48 -1.29747 -3.96933 0
M  V30 26158 N 2367.92 0.924431 -1.2764 0
M  V30 26159 C 2368.83 2.05883 -1.12469 0
M  V30 26160 C 2369.84 1.73916 -0.0538995 0
M  V30 26161 O 2371.02 1.99701 -0.261047 0
M  V30 26162 C 2368.08 3.37885 -0.776827 0
M  V30 26163 C 2367.14 3.83528 -1.92885 0
M  V30 26164 C 2366.38 5.09231 -1.59748 0
M  V30 26165 O 2366.6 5.68143 -0.506882 0
M  V30 26166 O 2365.53 5.50327 -2.43771 0
M  V30 26167 H 2369.36 2.21596 -2.07675 0
M  V30 26168 H 2366.95 1.04411 -1.06858 0
M  V30 26169 H 2368.83 4.1716 -0.596303 0
M  V30 26170 H 2367.5 3.23372 0.145675 0
M  V30 26171 H 2366.41 3.05127 -2.16445 0
M  V30 26172 H 2367.74 4.02588 -2.83167 0
M  V30 26173 N 2369.39 1.09715 1.13139 0
M  V30 26174 C 2370.36 0.742789 2.1683 0
M  V30 26175 C 2371.36 -0.229101 1.5916 0
M  V30 26176 O 2372.55 -0.00690175 1.74199 0
M  V30 26177 C 2369.68 0.0989767 3.40756 0
M  V30 26178 H 2370.87 1.66114 2.49692 0
M  V30 26179 H 2368.43 0.896721 1.28018 0
M  V30 26180 H 2369.16 -0.830459 3.13487 0
M  V30 26181 H 2368.95 0.798333 3.83887 0
M  V30 26182 H 2370.44 -0.13345 4.17387 0
M  V30 26183 N 2370.87 -1.30419 0.88479 0
M  V30 26184 C 2371.78 -2.31892 0.355439 0
M  V30 26185 C 2372.8 -1.65336 -0.542232 0
M  V30 26186 O 2373.97 -1.96637 -0.435397 0
M  V30 26187 C 2371.04 -3.44127 -0.421601 0
M  V30 26188 C 2370.1 -4.2631 0.505801 0
M  V30 26189 C 2369.33 -5.33186 -0.234249 0
M  V30 26190 O 2369.56 -5.51389 -1.46035 0
M  V30 26191 O 2368.49 -6.00464 0.415548 0
M  V30 26192 H 2372.32 -2.7912 1.1969 0
M  V30 26193 H 2369.9 -1.34586 0.64862 0
M  V30 26194 H 2371.78 -4.12498 -0.861568 0
M  V30 26195 H 2370.46 -2.99034 -1.23936 0
M  V30 26196 H 2369.37 -3.60637 0.994577 0
M  V30 26197 H 2370.7 -4.75006 1.28957 0
M  V30 26198 N 2372.35 -0.645724 -1.43764 0
M  V30 26199 C 2373.31 0.0409085 -2.29163 0
M  V30 26200 C 2374.31 0.757971 -1.41815 0
M  V30 26201 O 2375.5 0.600353 -1.63528 0
M  V30 26202 C 2372.64 1.06863 -3.23718 0
M  V30 26203 H 2373.83 -0.710396 -2.91365 0
M  V30 26204 H 2371.38 -0.406574 -1.50919 0
M  V30 26205 H 2372.12 1.84943 -2.66396 0
M  V30 26206 H 2371.9 0.558209 -3.88106 0
M  V30 26207 H 2373.39 1.54838 -3.87834 0
M  V30 26208 N 2373.83 1.5277 -0.38717 0
M  V30 26209 C 2375.07 2.02525 0.18847 0
M  V30 26210 C 2375.43 1.26866 1.44647 0
M  V30 26211 O 2374.72 0.359978 1.88188 0
M  V30 26212 C 2374.92 3.53711 0.512147 0
M  V30 26213 C 2374.75 4.44013 -0.712933 0
M  V30 26214 C 2373.52 4.90062 -1.23155 0
M  V30 26215 C 2375.71 4.89279 -1.58462 0
M  V30 26216 N 2373.7 5.64429 -2.41441 0
M  V30 26217 C 2375.07 5.62205 -2.61391 0
M  V30 26218 C 2377.12 4.71323 -1.60496 0
M  V30 26219 C 2375.82 6.19082 -3.66238 0
M  V30 26220 C 2377.85 5.29081 -2.64249 0
M  V30 26221 C 2377.21 6.0191 -3.659 0
M  V30 26222 H 2373.31 0.781381 0.0311099 0
M  V30 26223 H 2375.9 1.8716 -0.53658 0
M  V30 26224 H 2374.07 3.69194 1.20626 0
M  V30 26225 H 2375.8 3.90168 1.07475 0
M  V30 26226 H 2372.55 4.66916 -0.792877 0
M  V30 26227 H 2372.98 6.06264 -3.01285 0
M  V30 26228 H 2377.62 4.14522 -0.832543 0
M  V30 26229 H 2375.34 6.74966 -4.44349 0
M  V30 26230 H 2378.92 5.17069 -2.66704 0
M  V30 26231 H 2377.8 6.45805 -4.44866 0
M  V30 26232 N 2375.31 0.116931 1.57166 0
M  V30 26233 C 2376.24 -0.871254 2.10913 0
M  V30 26234 C 2377.22 -1.26222 1.02502 0
M  V30 26235 O 2378.4 -1.36364 1.30143 0
M  V30 26236 C 2375.53 -2.1657 2.60414 0
M  V30 26237 C 2374.57 -1.92295 3.8069 0
M  V30 26238 S 2375.41 -1.1411 5.23201 0
M  V30 26239 C 2376.56 -2.44738 5.76068 0
M  V30 26240 H 2376.8 -0.414086 2.94402 0
M  V30 26241 H 2374.33 -0.0968019 1.54096 0
M  V30 26242 H 2376.29 -2.90945 2.89588 0
M  V30 26243 H 2374.95 -2.59405 1.7711 0
M  V30 26244 H 2374.14 -2.88203 4.13467 0
M  V30 26245 H 2373.74 -1.26041 3.52122 0
M  V30 26246 H 2376.04 -3.40589 5.85666 0
M  V30 26247 H 2376.98 -2.16509 6.74188 0
M  V30 26248 H 2377.39 -2.54011 5.04122 0
M  V30 26249 N 2376.78 -1.56818 -0.156836 0
M  V30 26250 C 2378.01 -1.87319 -0.890298 0
M  V30 26251 C 2378.43 -0.704885 -1.74393 0
M  V30 26252 O 2377.79 0.345755 -1.77973 0
M  V30 26253 C 2377.84 -3.16339 -1.73096 0
M  V30 26254 O 2376.94 -2.99581 -2.83417 0
M  V30 26255 H 2376.29 -0.615723 -0.248559 0
M  V30 26256 H 2378.82 -2.04045 -0.150614 0
M  V30 26257 H 2378.83 -3.48111 -2.12797 0
M  V30 26258 H 2377.5 -4.00978 -1.10405 0
M  V30 26259 H 2376.08 -2.79194 -2.47194 0
M  V30 26260 N 2378.26 0.425871 -1.51737 0
M  V30 26261 C 2379.17 1.54272 -1.76741 0
M  V30 26262 C 2380.19 1.61317 -0.652138 0
M  V30 26263 O 2381.36 1.78345 -0.935686 0
M  V30 26264 C 2378.43 2.90159 -1.8976 0
M  V30 26265 C 2377.49 2.93137 -3.13638 0
M  V30 26266 C 2376.72 4.22542 -3.26027 0
M  V30 26267 O 2376.95 5.15541 -2.44076 0
M  V30 26268 O 2375.88 4.32038 -4.19078 0
M  V30 26269 H 2379.71 1.36084 -2.71505 0
M  V30 26270 H 2377.29 0.610045 -1.36377 0
M  V30 26271 H 2379.17 3.70784 -2.00242 0
M  V30 26272 H 2377.85 3.0845 -0.981839 0
M  V30 26273 H 2376.76 2.11425 -3.08626 0
M  V30 26274 H 2378.09 2.79792 -4.04941 0
M  V30 26275 N 2379.74 1.42077 0.682052 0
M  V30 26276 C 2380.67 1.4093 1.80753 0
M  V30 26277 C 2381.69 0.309426 1.59832 0
M  V30 26278 O 2382.87 0.572044 1.69085 0
M  V30 26279 C 2379.97 1.17871 3.17741 0
M  V30 26280 C 2379.15 2.40155 3.65574 0
M  V30 26281 C 2378.21 2.1275 4.81273 0
M  V30 26282 O 2377.23 2.85895 4.92191 0
M  V30 26283 N 2378.43 1.12612 5.69472 0
M  V30 26284 H 2381.2 2.37938 1.82224 0
M  V30 26285 H 2378.76 1.36863 0.864879 0
M  V30 26286 H 2380.75 0.974669 3.92788 0
M  V30 26287 H 2379.32 0.294123 3.11213 0
M  V30 26288 H 2378.54 2.76174 2.81286 0
M  V30 26289 H 2379.83 3.216 3.94273 0
M  V30 26290 H 2379.23 0.520998 5.63296 0
M  V30 26291 H 2377.79 0.981955 6.44361 0
M  V30 26292 N 2381.22 -0.917649 1.28129 0
M  V30 26293 C 2382.13 -2.05284 1.1356 0
M  V30 26294 C 2383.15 -1.73885 0.063122 0
M  V30 26295 O 2384.32 -1.9956 0.271634 0
M  V30 26296 C 2381.39 -3.37468 0.794735 0
M  V30 26297 C 2380.45 -3.825 1.94916 0
M  V30 26298 C 2379.68 -5.08377 1.62446 0
M  V30 26299 O 2379.9 -5.67867 0.537005 0
M  V30 26300 O 2378.84 -5.49026 2.46686 0
M  V30 26301 H 2382.66 -2.20491 2.08848 0
M  V30 26302 H 2380.25 -1.03843 1.07411 0
M  V30 26303 H 2382.13 -4.16838 0.618417 0
M  V30 26304 H 2380.81 -3.23445 -0.128524 0
M  V30 26305 H 2379.71 -3.03974 2.1806 0
M  V30 26306 H 2381.05 -4.01081 2.85298 0
M  V30 26307 N 2382.7 -1.10314 -1.12555 0
M  V30 26308 C 2383.63 -0.772837 -2.20339 0
M  V30 26309 C 2384.61 0.25362 -1.68199 0
M  V30 26310 O 2385.79 0.119665 -1.93831 0
M  V30 26311 C 2382.92 -0.202504 -3.46709 0
M  V30 26312 C 2381.88 -1.15951 -4.11994 0
M  V30 26313 C 2381.2 -0.450438 -5.32799 0
M  V30 26314 C 2382.5 -2.5056 -4.58276 0
M  V30 26315 H 2384.2 -1.67405 -2.48226 0
M  V30 26316 H 2381.74 -0.806347 -1.19307 0
M  V30 26317 H 2383.7 0.0407012 -4.2138 0
M  V30 26318 H 2382.42 0.733945 -3.18246 0
M  V30 26319 H 2381.08 -1.38814 -3.39302 0
M  V30 26320 H 2380.73 0.490443 -5.00603 0
M  V30 26321 H 2380.43 -1.08862 -5.77428 0
M  V30 26322 H 2381.95 -0.215749 -6.10219 0
M  V30 26323 H 2383.37 -2.31852 -5.24326 0
M  V30 26324 H 2381.76 -3.10251 -5.13677 0
M  V30 26325 H 2382.83 -3.1065 -3.72323 0
M  V30 26326 N 2384.18 1.29948 -0.891694 0
M  V30 26327 C 2385.41 1.99741 -0.527928 0
M  V30 26328 C 2385.81 1.66973 0.88976 0
M  V30 26329 O 2385.16 0.906695 1.59765 0
M  V30 26330 C 2385.22 3.53921 -0.630866 0
M  V30 26331 C 2384.88 4.10224 -2.01408 0
M  V30 26332 C 2385.88 4.25718 -2.98429 0
M  V30 26333 C 2383.56 4.45445 -2.32129 0
M  V30 26334 C 2385.56 4.75655 -4.24301 0
M  V30 26335 C 2383.25 4.95079 -3.58245 0
M  V30 26336 C 2384.24 5.10138 -4.54146 0
M  V30 26337 O 2383.93 5.58698 -5.78024 0
M  V30 26338 H 2383.66 0.645125 -0.201965 0
M  V30 26339 H 2386.22 1.66644 -1.20079 0
M  V30 26340 H 2384.45 3.86573 0.0989936 0
M  V30 26341 H 2386.14 4.04951 -0.27741 0
M  V30 26342 H 2386.9 3.98804 -2.76008 0
M  V30 26343 H 2382.78 4.32988 -1.58248 0
M  V30 26344 H 2386.33 4.87323 -4.99161 0
M  V30 26345 H 2382.22 5.21431 -3.805 0
M  V30 26346 H 2382.99 5.77028 -5.805 0
M  V30 26347 N 2385.65 0.653339 1.4342 0
M  V30 26348 C 2386.59 -0.0879403 2.2803 0
M  V30 26349 C 2387.56 -0.829765 1.39834 0
M  V30 26350 O 2388.75 -0.829311 1.69277 0
M  V30 26351 C 2385.88 -1.13126 3.19249 0
M  V30 26352 C 2384.92 -0.487471 4.23705 0
M  V30 26353 S 2385.75 0.739054 5.30376 0
M  V30 26354 C 2386.91 -0.30373 6.25163 0
M  V30 26355 H 2387.14 0.629791 2.90553 0
M  V30 26356 H 2384.68 0.442182 1.47933 0
M  V30 26357 H 2386.63 -1.7282 3.72349 0
M  V30 26358 H 2385.3 -1.82131 2.55904 0
M  V30 26359 H 2384.49 -1.27398 4.87633 0
M  V30 26360 H 2384.09 0.0353572 3.73983 0
M  V30 26361 H 2386.38 -1.16988 6.67323 0
M  V30 26362 H 2387.33 0.300526 7.07462 0
M  V30 26363 H 2387.73 -0.639591 5.60865 0
M  V30 26364 N 2387.13 -1.52563 0.395266 0
M  V30 26365 C 2388.06 -2.23068 -0.481261 0
M  V30 26366 C 2389.04 -1.23364 -1.05925 0
M  V30 26367 O 2390.23 -1.5237 -1.10976 0
M  V30 26368 C 2387.35 -2.94853 -1.66671 0
M  V30 26369 C 2386.4 -4.08875 -1.21341 0
M  V30 26370 S 2387.23 -5.35163 -0.190008 0
M  V30 26371 C 2388.39 -6.10472 -1.3811 0
M  V30 26372 H 2388.62 -2.97068 0.117433 0
M  V30 26373 H 2386.15 -1.53353 0.179485 0
M  V30 26374 H 2388.11 -3.3682 -2.34654 0
M  V30 26375 H 2386.77 -2.20522 -2.23672 0
M  V30 26376 H 2385.97 -4.58226 -2.09869 0
M  V30 26377 H 2385.57 -3.68952 -0.612421 0
M  V30 26378 H 2387.86 -6.37006 -2.30715 0
M  V30 26379 H 2388.8 -7.01987 -0.928398 0
M  V30 26380 H 2389.21 -5.41332 -1.60062 0
M  V30 26381 N 2388.61 -0.125265 -1.57101 0
M  V30 26382 C 2389.83 0.542066 -2.00191 0
M  V30 26383 C 2390.26 1.59032 -1.00452 0
M  V30 26384 O 2389.62 1.81286 0.0229104 0
M  V30 26385 C 2389.67 1.13923 -3.42131 0
M  V30 26386 O 2388.77 2.25464 -3.45311 0
M  V30 26387 H 2388.11 0.1348 -0.650173 0
M  V30 26388 H 2390.64 -0.215588 -2.03461 0
M  V30 26389 H 2390.65 1.47324 -3.80473 0
M  V30 26390 H 2389.33 0.371458 -4.14238 0
M  V30 26391 H 2387.9 1.93456 -3.18793 0
M  V30 26392 N 2390.09 1.56899 0.148518 0
M  V30 26393 C 2391 2.01414 1.2029 0
M  V30 26394 C 2392.01 0.929299 1.47105 0
M  V30 26395 O 2393.19 1.23866 1.58805 0
M  V30 26396 C 2390.25 2.38452 2.51678 0
M  V30 26397 C 2389.32 3.60876 2.32523 0
M  V30 26398 C 2388.55 3.96138 3.57646 0
M  V30 26399 O 2388.77 3.32081 4.63765 0
M  V30 26400 O 2387.71 4.89391 3.50399 0
M  V30 26401 H 2391.53 2.91417 0.854974 0
M  V30 26402 H 2389.12 1.45069 0.357126 0
M  V30 26403 H 2391 2.63141 3.29143 0
M  V30 26404 H 2389.67 1.51604 2.86003 0
M  V30 26405 H 2388.58 3.41376 1.53013 0
M  V30 26406 H 2389.91 4.48337 2.03113 0
M  V30 26407 N 2391.57 -0.417818 1.51961 0
M  V30 26408 C 2392.48 -1.53333 1.77556 0
M  V30 26409 C 2393.49 -1.60969 0.660684 0
M  V30 26410 O 2394.67 -1.77846 0.945131 0
M  V30 26411 C 2391.73 -2.89148 1.91296 0
M  V30 26412 C 2390.79 -2.9147 3.15189 0
M  V30 26413 C 2390.03 -4.20808 3.28263 0
M  V30 26414 O 2390.25 -5.1424 2.46807 0
M  V30 26415 O 2389.18 -4.2981 4.21364 0
M  V30 26416 H 2393.01 -1.34642 2.72223 0
M  V30 26417 H 2390.59 -0.602804 1.36699 0
M  V30 26418 H 2392.48 -3.69717 2.02206 0
M  V30 26419 H 2391.15 -3.07925 0.998183 0
M  V30 26420 H 2390.06 -2.09786 3.09743 0
M  V30 26421 H 2391.39 -2.77641 4.06419 0
M  V30 26422 N 2393.04 -1.42436 -0.674508 0
M  V30 26423 C 2393.99 -1.45937 -1.78804 0
M  V30 26424 C 2394.96 -0.3113 -1.63157 0
M  V30 26425 O 2396.15 -0.515415 -1.83707 0
M  V30 26426 C 2393.29 -1.36779 -3.16837 0
M  V30 26427 C 2392.4 -2.61623 -3.43769 0
M  V30 26428 C 2391.53 -2.44605 -4.71531 0
M  V30 26429 C 2390.57 -3.64822 -4.91499 0
M  V30 26430 N 2389.71 -3.46744 -6.10502 0
M  V30 26431 H 2394.55 -2.41097 -1.75147 0
M  V30 26432 H 2392.09 -1.19699 -0.855019 0
M  V30 26433 H 2394.04 -1.29466 -3.96603 0
M  V30 26434 H 2392.67 -0.452145 -3.19618 0
M  V30 26435 H 2391.73 -2.79301 -2.58254 0
M  V30 26436 H 2393.04 -3.50984 -3.54417 0
M  V30 26437 H 2392.19 -2.3488 -5.59389 0
M  V30 26438 H 2390.93 -1.52734 -4.63167 0
M  V30 26439 H 2389.94 -3.74979 -4.02083 0
M  V30 26440 H 2391.16 -4.57674 -5.01708 0
M  V30 26441 H 2389.11 -2.57591 -6.0331 0
M  V30 26442 H 2389.02 -4.29693 -6.22013 0
M  V30 26443 H 2390.29 -3.40832 -7.01038 0
M  V30 26444 N 2394.52 0.910841 -1.28614 0
M  V30 26445 C 2395.48 1.99518 -1.12807 0
M  V30 26446 C 2396.48 1.60661 -0.0668546 0
M  V30 26447 O 2397.67 1.71367 -0.312878 0
M  V30 26448 C 2394.81 3.33154 -0.722599 0
M  V30 26449 H 2396 2.1497 -2.09113 0
M  V30 26450 H 2393.55 1.09389 -1.11641 0
M  V30 26451 H 2394.29 3.23403 0.241095 0
M  V30 26452 H 2394.07 3.62718 -1.48923 0
M  V30 26453 H 2395.56 4.12748 -0.634739 0
M  V30 26454 N 2396 1.10909 1.11969 0
M  V30 26455 C 2396.95 0.762383 2.17845 0
M  V30 26456 C 2397.92 -0.263571 1.63995 0
M  V30 26457 O 2399.1 -0.141739 1.90273 0
M  V30 26458 C 2396.24 0.205711 3.44486 0
M  V30 26459 C 2395.36 1.28756 4.12366 0
M  V30 26460 C 2394.49 0.692011 5.26673 0
M  V30 26461 C 2393.53 1.75409 5.86428 0
M  V30 26462 N 2392.67 1.17845 6.92139 0
M  V30 26463 H 2397.51 1.66944 2.46848 0
M  V30 26464 H 2395.04 0.833797 1.21187 0
M  V30 26465 H 2397 -0.134963 4.16982 0
M  V30 26466 H 2395.63 -0.664557 3.15885 0
M  V30 26467 H 2394.68 1.74528 3.38 0
M  V30 26468 H 2396 2.09133 4.52841 0
M  V30 26469 H 2395.15 0.30107 6.05953 0
M  V30 26470 H 2393.89 -0.143146 4.8749 0
M  V30 26471 H 2392.89 2.15441 5.05831 0
M  V30 26472 H 2394.12 2.59219 6.2768 0
M  V30 26473 H 2392.06 0.36484 6.54985 0
M  V30 26474 H 2391.98 1.919 7.31239 0
M  V30 26475 H 2393.25 0.814216 7.75236 0
M  V30 26476 N 2397.48 -1.29474 0.898573 0
M  V30 26477 C 2398.76 -1.90507 0.44345 0
M  V30 26478 C 2399.14 -1.81571 -1.07682 0
M  V30 26479 O 2398.48 -1.2417 -1.91818 0
M  V30 26480 C 2398.69 -3.35629 0.956767 0
M  V30 26481 C 2400.04 -4.12661 0.9998 0
M  V30 26482 O 2401.07 -3.44528 0.904359 0
M  V30 26483 O 2399.92 -5.34414 1.14298 0
M  V30 26484 H 2397.02 -0.815398 0.138039 0
M  V30 26485 H 2399.56 -1.37947 0.988364 0
M  V30 26486 H 2398.34 -3.36283 2.00073 0
M  V30 26487 H 2397.96 -3.95665 0.391798 0
M  V30 26488 N 2398.96 -0.660936 -1.43071 0
M  V30 26489 C 2399.87 0.026375 -2.34585 0
M  V30 26490 C 2400.88 0.80387 -1.54318 0
M  V30 26491 O 2402.06 0.749358 -1.8694 0
M  V30 26492 C 2399.12 0.975581 -3.32691 0
M  V30 26493 C 2398.18 0.194161 -4.28861 0
M  V30 26494 C 2397.42 1.09815 -5.2228 0
M  V30 26495 O 2397.64 2.33754 -5.20303 0
M  V30 26496 O 2396.57 0.566408 -5.99229 0
M  V30 26497 H 2400.4 -0.727085 -2.94868 0
M  V30 26498 H 2397.99 -0.421135 -1.43342 0
M  V30 26499 H 2399.87 1.52087 -3.92998 0
M  V30 26500 H 2398.54 1.70913 -2.74901 0
M  V30 26501 H 2397.45 -0.394901 -3.7201 0
M  V30 26502 H 2398.78 -0.499985 -4.89654 0
M  V30 26503 N 2400.43 1.52351 -0.403352 0
M  V30 26504 C 2401.37 2.24531 0.46026 0
M  V30 26505 C 2402.38 1.27283 1.01503 0
M  V30 26506 O 2403.57 1.53267 0.914955 0
M  V30 26507 C 2400.67 2.95908 1.65203 0
M  V30 26508 C 2399.84 4.19978 1.22217 0
M  V30 26509 C 2398.9 4.7423 2.28019 0
M  V30 26510 O 2397.93 5.36959 1.88847 0
M  V30 26511 N 2399.13 4.55302 3.60112 0
M  V30 26512 H 2401.89 2.99282 -0.158209 0
M  V30 26513 H 2399.45 1.60252 -0.23043 0
M  V30 26514 H 2401.45 3.29097 2.35536 0
M  V30 26515 H 2400.02 2.24378 2.17654 0
M  V30 26516 H 2399.24 3.92668 0.347181 0
M  V30 26517 H 2400.52 5.00563 0.911836 0
M  V30 26518 H 2399.92 4.0526 3.94691 0
M  V30 26519 H 2398.48 4.92944 4.26438 0
M  V30 26520 N 2401.91 0.133594 1.57033 0
M  V30 26521 C 2403.14 -0.531441 2.00476 0
M  V30 26522 C 2403.56 -1.58497 1.01293 0
M  V30 26523 O 2402.92 -1.81295 -0.0132961 0
M  V30 26524 C 2402.97 -1.12107 3.42731 0
M  V30 26525 O 2402.07 -2.2363 3.46502 0
M  V30 26526 H 2401.41 -0.13135 0.650879 0
M  V30 26527 H 2403.94 0.226375 2.03344 0
M  V30 26528 H 2403.95 -1.45304 3.81249 0
M  V30 26529 H 2402.63 -0.349485 4.14429 0
M  V30 26530 H 2401.21 -1.91763 3.19815 0
M  V30 26531 N 2403.39 -1.56975 -0.140195 0
M  V30 26532 C 2404.35 -1.97863 -1.15685 0
M  V30 26533 C 2405.35 -0.865998 -1.35488 0
M  V30 26534 O 2406.54 -1.13248 -1.32365 0
M  V30 26535 C 2403.68 -2.30047 -2.51578 0
M  V30 26536 H 2404.87 -2.88868 -0.80592 0
M  V30 26537 H 2402.42 -1.51515 -0.383775 0
M  V30 26538 H 2403.16 -1.41854 -2.9163 0
M  V30 26539 H 2402.94 -3.11175 -2.38563 0
M  V30 26540 H 2404.43 -2.62494 -3.24787 0
M  V30 26541 N 2404.87 0.409753 -1.5218 0
M  V30 26542 C 2406.11 1.15848 -1.66455 0
M  V30 26543 C 2406.45 1.90182 -0.393005 0
M  V30 26544 O 2405.72 1.84735 0.608547 0
M  V30 26545 C 2406.01 2.15344 -2.88616 0
M  V30 26546 C 2405.86 1.44911 -4.25818 0
M  V30 26547 C 2407.18 3.1602 -3.06299 0
M  V30 26548 H 2404.3 0.419794 -0.605757 0
M  V30 26549 H 2406.94 0.444282 -1.84733 0
M  V30 26550 H 2405.09 2.7625 -2.73163 0
M  V30 26551 H 2406.76 0.871285 -4.52997 0
M  V30 26552 H 2405 0.751084 -4.27248 0
M  V30 26553 H 2405.67 2.17507 -5.07341 0
M  V30 26554 H 2408.15 2.6519 -3.20646 0
M  V30 26555 H 2407.03 3.82903 -3.93289 0
M  V30 26556 H 2407.29 3.83711 -2.19586 0
M  V30 26557 N 2406.35 1.42792 0.666944 0
M  V30 26558 C 2407.57 1.47303 1.46002 0
M  V30 26559 C 2408 0.0880648 1.87894 0
M  V30 26560 O 2407.35 -0.915225 1.56503 0
M  V30 26561 C 2407.4 2.41234 2.68027 0
M  V30 26562 O 2406.51 1.88913 3.66587 0
M  V30 26563 H 2405.85 0.498778 0.438311 0
M  V30 26564 H 2408.38 1.87564 0.817358 0
M  V30 26565 H 2408.39 2.58079 3.16006 0
M  V30 26566 H 2407.06 3.41851 2.36877 0
M  V30 26567 H 2405.64 1.81662 3.25658 0
M  V30 26568 N 2407.82 -0.904008 1.29095 0
M  V30 26569 C 2408.76 -2.00929 1.0818 0
M  V30 26570 C 2409.74 -1.62599 -0.00505442 0
M  V30 26571 O 2410.92 -1.87943 0.144798 0
M  V30 26572 C 2408.05 -3.32483 0.645955 0
M  V30 26573 C 2407.09 -3.89798 1.73088 0
M  V30 26574 S 2407.93 -4.1944 3.32912 0
M  V30 26575 C 2409.08 -5.54041 2.91186 0
M  V30 26576 H 2409.31 -2.18362 2.01756 0
M  V30 26577 H 2406.85 -1.05008 1.13193 0
M  V30 26578 H 2408.81 -4.08535 0.401203 0
M  V30 26579 H 2407.47 -3.12936 -0.270133 0
M  V30 26580 H 2406.66 -4.84803 1.37777 0
M  V30 26581 H 2406.26 -3.20419 1.92893 0
M  V30 26582 H 2408.55 -6.34334 2.37963 0
M  V30 26583 H 2409.5 -5.94274 3.85025 0
M  V30 26584 H 2409.9 -5.15694 2.29609 0
M  V30 26585 N 2409.3 -1.11501 -1.11379 0
M  V30 26586 C 2410.23 -0.796163 -2.19507 0
M  V30 26587 C 2411.21 0.235766 -1.68458 0
M  V30 26588 O 2412.4 0.0991003 -1.93947 0
M  V30 26589 C 2409.53 -0.239266 -3.46475 0
M  V30 26590 C 2408.48 -1.20314 -4.10741 0
M  V30 26591 C 2407.81 -0.506924 -5.32292 0
M  V30 26592 C 2409.11 -2.55407 -4.55593 0
M  V30 26593 H 2410.8 -1.70028 -2.46436 0
M  V30 26594 H 2408.35 -0.818956 -1.18445 0
M  V30 26595 H 2410.3 -0.00399414 -4.214 0
M  V30 26596 H 2409.03 0.70015 -3.19007 0
M  V30 26597 H 2407.68 -1.42405 -3.37811 0
M  V30 26598 H 2407.33 0.43732 -5.01095 0
M  V30 26599 H 2407.03 -1.1498 -5.76241 0
M  V30 26600 H 2408.56 -0.280459 -6.09956 0
M  V30 26601 H 2409.97 -2.374 -5.21837 0
M  V30 26602 H 2408.37 -3.15682 -5.10358 0
M  V30 26603 H 2409.44 -3.14581 -3.69007 0
M  V30 26604 N 2410.78 1.28995 -0.905426 0
M  V30 26605 C 2411.73 2.2755 -0.385932 0
M  V30 26606 C 2412.7 1.57245 0.535085 0
M  V30 26607 O 2413.88 1.85195 0.459087 0
M  V30 26608 C 2411.02 3.43052 0.3754 0
M  V30 26609 C 2410.14 4.28127 -0.577167 0
M  V30 26610 C 2409.27 5.30817 0.201785 0
M  V30 26611 C 2408.31 6.0755 -0.744936 0
M  V30 26612 N 2407.45 7.021 -2.91531e-05 0
M  V30 26613 H 2412.29 2.71366 -1.23144 0
M  V30 26614 H 2409.82 1.33462 -0.618566 0
M  V30 26615 H 2411.78 4.08801 0.83292 0
M  V30 26616 H 2410.41 3.0025 1.18532 0
M  V30 26617 H 2409.46 3.62499 -1.15321 0
M  V30 26618 H 2410.78 4.81518 -1.30161 0
M  V30 26619 H 2409.93 6.0241 0.720245 0
M  V30 26620 H 2408.67 4.78172 0.959329 0
M  V30 26621 H 2407.67 5.34816 -1.27485 0
M  V30 26622 H 2408.9 6.62284 -1.5019 0
M  V30 26623 H 2406.85 6.51817 0.739676 0
M  V30 26624 H 2406.76 7.53074 -0.664453 0
M  V30 26625 H 2408.03 7.77904 0.498507 0
M  V30 26626 N 2412.26 0.668514 1.42719 0
M  V30 26627 C 2413.21 -0.0137083 2.30796 0
M  V30 26628 C 2414.18 -0.799151 1.45612 0
M  V30 26629 O 2415.36 -0.772671 1.74455 0
M  V30 26630 C 2412.5 -0.963448 3.31378 0
M  V30 26631 C 2411.61 -0.172493 4.31655 0
M  V30 26632 C 2410.75 -1.11741 5.19314 0
M  V30 26633 C 2409.79 -0.317779 6.11275 0
M  V30 26634 N 2408.93 -1.21508 6.91506 0
M  V30 26635 H 2413.77 0.743212 2.88583 0
M  V30 26636 H 2411.3 0.378251 1.42154 0
M  V30 26637 H 2413.26 -1.52785 3.88217 0
M  V30 26638 H 2411.89 -1.68707 2.75205 0
M  V30 26639 H 2410.94 0.50844 3.76987 0
M  V30 26640 H 2412.25 0.448615 4.96779 0
M  V30 26641 H 2411.41 -1.75195 5.80854 0
M  V30 26642 H 2410.15 -1.77241 4.54353 0
M  V30 26643 H 2409.15 0.330014 5.48809 0
M  V30 26644 H 2410.38 0.333036 6.78283 0
M  V30 26645 H 2408.32 -1.8566 6.29179 0
M  V30 26646 H 2408.24 -0.648903 7.5321 0
M  V30 26647 H 2409.51 -1.83729 7.57538 0
M  V30 26648 N 2413.74 -1.52135 0.411426 0
M  V30 26649 C 2414.69 -2.23902 -0.430337 0
M  V30 26650 C 2415.67 -1.25123 -1.01158 0
M  V30 26651 O 2416.86 -1.5035 -0.934018 0
M  V30 26652 C 2413.99 -3.06558 -1.54521 0
M  V30 26653 C 2413.08 -4.12749 -0.974627 0
M  V30 26654 N 2413.47 -5.05631 -0.130903 0
M  V30 26655 C 2411.77 -4.28274 -1.2449 0
M  V30 26656 C 2412.47 -5.814 0.186791 0
M  V30 26657 N 2411.44 -5.41952 -0.422945 0
M  V30 26658 H 2415.25 -2.93071 0.220561 0
M  V30 26659 H 2412.76 -1.60876 0.221981 0
M  V30 26660 H 2414.76 -3.56528 -2.16087 0
M  V30 26661 H 2413.42 -2.38929 -2.19871 0
M  V30 26662 H 2414.43 -5.17373 0.233581 0
M  V30 26663 H 2411.11 -3.71873 -1.89781 0
M  V30 26664 H 2412.5 -6.6622 0.87179 0
M  V30 26665 N 2415.22 -0.14192 -1.5696 0
M  V30 26666 C 2416.15 0.830589 -2.13621 0
M  V30 26667 C 2417.16 1.21426 -1.08441 0
M  V30 26668 O 2418.35 1.15922 -1.35736 0
M  V30 26669 C 2415.45 2.12525 -2.63982 0
M  V30 26670 C 2414.62 1.90973 -3.93507 0
M  V30 26671 C 2413.68 3.0438 -4.29231 0
M  V30 26672 O 2412.71 2.76293 -4.97645 0
M  V30 26673 N 2413.91 4.31422 -3.88401 0
M  V30 26674 H 2416.67 0.346357 -2.97692 0
M  V30 26675 H 2414.24 0.041809 -1.61846 0
M  V30 26676 H 2416.23 2.87431 -2.84896 0
M  V30 26677 H 2414.8 2.52226 -1.84664 0
M  V30 26678 H 2414.02 1.00132 -3.81271 0
M  V30 26679 H 2415.31 1.73906 -4.78157 0
M  V30 26680 H 2414.7 4.57111 -3.33265 0
M  V30 26681 H 2413.26 5.03125 -4.14377 0
M  V30 26682 N 2416.69 1.57047 0.131868 0
M  V30 26683 C 2417.94 1.83358 0.840408 0
M  V30 26684 C 2418.26 0.725567 1.81645 0
M  V30 26685 O 2419.46 0.874704 2.57024 0
M  V30 26686 C 2417.92 3.2504 1.54522 0
M  V30 26687 C 2417.53 4.43816 0.610823 0
M  V30 26688 C 2419.27 3.6061 2.23965 0
M  V30 26689 C 2417.18 5.76523 1.31813 0
M  V30 26690 H 2416.11 0.683853 0.317587 0
M  V30 26691 H 2418.76 1.83264 0.0931239 0
M  V30 26692 H 2417.14 3.19565 2.33867 0
M  V30 26693 H 2418.31 4.60561 -0.148488 0
M  V30 26694 H 2416.63 4.16393 0.0240284 0
M  V30 26695 H 2419.23 4.57023 2.7755 0
M  V30 26696 H 2419.57 2.87409 3.01168 0
M  V30 26697 H 2420.1 3.67812 1.51522 0
M  V30 26698 H 2416.84 6.52861 0.587656 0
M  V30 26699 H 2416.36 5.63688 2.04977 0
M  V30 26700 H 2418.04 6.19841 1.85489 0
M  V30 26701 N 2418.17 -0.401677 1.52395 0
M  V30 26702 C 2419.1 -1.49658 1.79234 0
M  V30 26703 C 2420.08 -1.57451 0.643682 0
M  V30 26704 O 2421.27 -1.72604 0.89002 0
M  V30 26705 C 2418.4 -2.87405 1.94976 0
M  V30 26706 C 2417.35 -2.94459 3.10609 0
M  V30 26707 C 2416.68 -4.34533 3.11585 0
M  V30 26708 C 2417.98 -2.65262 4.49926 0
M  V30 26709 H 2419.67 -1.27449 2.70919 0
M  V30 26710 H 2417.22 -0.611677 1.30363 0
M  V30 26711 H 2419.17 -3.63995 2.12334 0
M  V30 26712 H 2417.89 -3.10924 0.999687 0
M  V30 26713 H 2416.55 -2.20316 2.93013 0
M  V30 26714 H 2416.2 -4.55072 2.14285 0
M  V30 26715 H 2415.9 -4.40176 3.89255 0
M  V30 26716 H 2417.43 -5.13047 3.31082 0
M  V30 26717 H 2418.84 -3.31573 4.67689 0
M  V30 26718 H 2417.24 -2.82271 5.29569 0
M  V30 26719 H 2418.31 -1.60663 4.5751 0
M  V30 26720 N 2419.65 -1.43144 -0.659362 0
M  V30 26721 C 2420.56 -1.50259 -1.80165 0
M  V30 26722 C 2421.58 -0.390136 -1.6957 0
M  V30 26723 O 2422.75 -0.643352 -1.90848 0
M  V30 26724 C 2419.82 -1.41731 -3.16407 0
M  V30 26725 C 2418.88 -2.63597 -3.38844 0
M  V30 26726 C 2418.11 -2.55466 -4.68586 0
M  V30 26727 O 2418.33 -1.59901 -5.47529 0
M  V30 26728 O 2417.27 -3.45863 -4.92608 0
M  V30 26729 H 2421.09 -2.46705 -1.77117 0
M  V30 26730 H 2418.68 -1.25077 -0.81707 0
M  V30 26731 H 2420.56 -1.39394 -3.97677 0
M  V30 26732 H 2419.24 -0.484174 -3.20058 0
M  V30 26733 H 2418.14 -2.71507 -2.57361 0
M  V30 26734 H 2419.48 -3.55862 -3.40034 0
M  V30 26735 N 2421.13 0.897149 -1.29572 0
M  V30 26736 C 2422.06 2.00679 -1.10727 0
M  V30 26737 C 2423.07 1.6271 -0.0540312 0
M  V30 26738 O 2424.26 1.75981 -0.298814 0
M  V30 26739 C 2421.36 3.32332 -0.66397 0
M  V30 26740 C 2420.53 3.98813 -1.79629 0
M  V30 26741 C 2419.59 5.08758 -1.34358 0
M  V30 26742 O 2418.62 5.31051 -2.04873 0
M  V30 26743 N 2419.82 5.80098 -0.215866 0
M  V30 26744 H 2422.59 2.174 -2.06295 0
M  V30 26745 H 2420.15 1.06949 -1.21546 0
M  V30 26746 H 2422.14 4.03232 -0.344366 0
M  V30 26747 H 2420.71 3.11964 0.19932 0
M  V30 26748 H 2419.93 3.21244 -2.28465 0
M  V30 26749 H 2421.22 4.39972 -2.55543 0
M  V30 26750 H 2420.62 5.64476 0.371992 0
M  V30 26751 H 2419.17 6.51785 0.0443562 0
M  V30 26752 N 2422.61 1.1209 1.10786 0
M  V30 26753 C 2423.57 0.788615 2.15206 0
M  V30 26754 C 2424.57 -0.195289 1.5961 0
M  V30 26755 O 2425.76 0.0300499 1.74174 0
M  V30 26756 C 2422.89 0.171234 3.4047 0
M  V30 26757 H 2424.08 1.71373 2.46113 0
M  V30 26758 H 2421.64 0.923674 1.26087 0
M  V30 26759 H 2422.37 -0.763777 3.15178 0
M  V30 26760 H 2422.16 0.879581 3.82107 0
M  V30 26761 H 2423.65 -0.0448866 4.17576 0
M  V30 26762 N 2424.08 -1.28513 0.912254 0
M  V30 26763 C 2425.33 -1.95327 0.54544 0
M  V30 26764 C 2425.66 -1.7165 -0.908283 0
M  V30 26765 O 2424.94 -1.03662 -1.64573 0
M  V30 26766 C 2425.22 -3.49838 0.853544 0
M  V30 26767 C 2425.07 -3.82922 2.35989 0
M  V30 26768 C 2426.39 -4.38717 0.348666 0
M  V30 26769 H 2423.51 -0.709446 0.199639 0
M  V30 26770 H 2426.15 -1.51908 1.14123 0
M  V30 26771 H 2424.3 -3.86952 0.346498 0
M  V30 26772 H 2425.98 -3.55686 2.93744 0
M  V30 26773 H 2424.22 -3.30019 2.81549 0
M  V30 26774 H 2424.89 -4.90812 2.52602 0
M  V30 26775 H 2427.37 -4.08666 0.783012 0
M  V30 26776 H 2426.24 -5.45684 0.593338 0
M  V30 26777 H 2426.5 -4.35675 -0.750973 0
M  V30 26778 N 2425.56 -0.676073 -1.42362 0
M  V30 26779 C 2426.47 0.00149265 -2.346 0
M  V30 26780 C 2427.49 0.787458 -1.55162 0
M  V30 26781 O 2428.66 0.729488 -1.87724 0
M  V30 26782 C 2425.73 0.940239 -3.33707 0
M  V30 26783 C 2424.79 0.148664 -4.29043 0
M  V30 26784 C 2424.02 1.0427 -5.23415 0
M  V30 26785 O 2424.25 2.28222 -5.22753 0
M  V30 26786 O 2423.18 0.50282 -5.99796 0
M  V30 26787 H 2427.01 -0.758319 -2.9408 0
M  V30 26788 H 2424.59 -0.436314 -1.42887 0
M  V30 26789 H 2426.47 1.4791 -3.94589 0
M  V30 26790 H 2425.15 1.67988 -2.76698 0
M  V30 26791 H 2424.06 -0.434335 -3.7157 0
M  V30 26792 H 2425.39 -0.551891 -4.89096 0
M  V30 26793 N 2427.04 1.51915 -0.419488 0
M  V30 26794 C 2428.32 1.94448 0.211965 0
M  V30 26795 C 2428.7 1.35706 1.617 0
M  V30 26796 O 2428.05 0.53697 2.22101 0
M  V30 26797 C 2428.26 3.48381 0.207811 0
M  V30 26798 C 2429.6 4.22497 0.422118 0
M  V30 26799 O 2430.63 3.55044 0.286715 0
M  V30 26800 O 2429.49 5.42128 0.689913 0
M  V30 26801 H 2426.58 0.815137 0.139571 0
M  V30 26802 H 2429.13 1.62882 -0.47618 0
M  V30 26803 H 2427.9 3.83545 -0.775169 0
M  V30 26804 H 2427.52 3.86338 0.93962 0
M  V30 26805 N 2428.52 0.150242 1.56882 0
M  V30 26806 C 2429.75 -0.506178 2.00303 0
M  V30 26807 C 2430.16 -1.58747 1.02937 0
M  V30 26808 O 2429.5 -1.8369 0.0188707 0
M  V30 26809 C 2429.56 -1.16331 3.40158 0
M  V30 26810 C 2429.23 -0.22623 4.5644 0
M  V30 26811 C 2430.22 0.547356 5.17011 0
M  V30 26812 C 2427.91 -0.128191 5.02136 0
M  V30 26813 C 2429.9 1.4064 6.21691 0
M  V30 26814 C 2427.59 0.734452 6.0667 0
M  V30 26815 C 2428.59 1.50035 6.66317 0
M  V30 26816 O 2428.27 2.34861 7.68827 0
M  V30 26817 H 2428.01 -0.135972 0.662184 0
M  V30 26818 H 2430.56 0.242782 2.0396 0
M  V30 26819 H 2428.79 -1.95998 3.33349 0
M  V30 26820 H 2430.48 -1.71979 3.67666 0
M  V30 26821 H 2431.25 0.481665 4.82602 0
M  V30 26822 H 2427.12 -0.714077 4.55436 0
M  V30 26823 H 2430.67 2.00467 6.68176 0
M  V30 26824 H 2426.57 0.801422 6.40506 0
M  V30 26825 H 2427.33 2.28144 7.86061 0
M  V30 26826 N 2430 -1.57115 -0.123538 0
M  V30 26827 C 2430.96 -1.99078 -1.1358 0
M  V30 26828 C 2431.96 -0.88032 -1.34562 0
M  V30 26829 O 2433.15 -1.14646 -1.31156 0
M  V30 26830 C 2430.28 -2.32702 -2.49124 0
M  V30 26831 H 2431.47 -2.89707 -0.775236 0
M  V30 26832 H 2429.03 -1.51914 -0.367683 0
M  V30 26833 H 2429.76 -1.44939 -2.90109 0
M  V30 26834 H 2429.55 -3.13688 -2.35249 0
M  V30 26835 H 2431.04 -2.65924 -3.21985 0
M  V30 26836 N 2431.47 0.393589 -1.52606 0
M  V30 26837 C 2432.38 1.50489 -1.79973 0
M  V30 26838 C 2433.4 1.59897 -0.686209 0
M  V30 26839 O 2434.58 1.7632 -0.973305 0
M  V30 26840 C 2431.64 2.86068 -1.95872 0
M  V30 26841 C 2430.7 2.86419 -3.19786 0
M  V30 26842 C 2429.94 4.15532 -3.34916 0
M  V30 26843 O 2430.16 5.10248 -2.54957 0
M  V30 26844 O 2429.09 4.23052 -4.28148 0
M  V30 26845 H 2432.92 1.30294 -2.7433 0
M  V30 26846 H 2430.5 0.58098 -1.37641 0
M  V30 26847 H 2432.39 3.66453 -2.08062 0
M  V30 26848 H 2431.06 3.06298 -1.04704 0
M  V30 26849 H 2429.97 2.04831 -3.13041 0
M  V30 26850 H 2431.3 2.7114 -4.10784 0
M  V30 26851 N 2432.95 1.43492 0.651762 0
M  V30 26852 C 2434.18 1.48629 1.43934 0
M  V30 26853 C 2434.6 0.10462 1.8851 0
M  V30 26854 O 2433.95 -0.885436 1.59582 0
M  V30 26855 C 2434 2.43339 2.67336 0
M  V30 26856 O 2433.72 3.76132 2.24624 0
M  V30 26857 C 2435.23 2.57732 3.60679 0
M  V30 26858 H 2432.45 0.504747 0.442121 0
M  V30 26859 H 2434.99 1.88249 0.798911 0
M  V30 26860 H 2433.14 2.0691 3.27516 0
M  V30 26861 H 2433.56 4.27076 3.04477 0
M  V30 26862 H 2435.03 3.28074 4.43927 0
M  V30 26863 H 2435.51 1.62272 4.08123 0
M  V30 26864 H 2436.12 2.94978 3.06379 0
M  V30 26865 N 2434.43 -0.890264 1.30046 0
M  V30 26866 C 2435.68 -1.64404 1.1874 0
M  V30 26867 C 2436.01 -1.92472 -0.258491 0
M  V30 26868 O 2435.28 -1.54188 -1.18559 0
M  V30 26869 C 2435.57 -2.9872 2.01092 0
M  V30 26870 C 2435.42 -2.77659 3.53872 0
M  V30 26871 C 2436.74 -3.99576 1.84464 0
M  V30 26872 H 2433.86 -0.596601 0.432708 0
M  V30 26873 H 2436.5 -1.03057 1.59622 0
M  V30 26874 H 2434.65 -3.51082 1.66355 0
M  V30 26875 H 2436.32 -2.32126 3.98641 0
M  V30 26876 H 2434.57 -2.12263 3.78321 0
M  V30 26877 H 2435.24 -3.73143 4.06778 0
M  V30 26878 H 2437.71 -3.56357 2.14823 0
M  V30 26879 H 2436.59 -4.91478 2.4442 0
M  V30 26880 H 2436.85 -4.34758 0.802353 0
M  V30 26881 N 2435.91 -1.12676 -1.1019 0
M  V30 26882 C 2436.86 -0.765839 -2.14753 0
M  V30 26883 C 2437.84 0.236381 -1.59154 0
M  V30 26884 O 2439.03 0.041495 -1.76951 0
M  V30 26885 C 2436.16 -0.224887 -3.42563 0
M  V30 26886 C 2435.25 -1.25555 -4.05089 0
M  V30 26887 N 2435.64 -2.45398 -4.42282 0
M  V30 26888 C 2433.94 -1.1015 -4.32184 0
M  V30 26889 C 2434.64 -3.11232 -4.91436 0
M  V30 26890 N 2433.62 -2.38674 -4.88401 0
M  V30 26891 H 2437.42 -1.67776 -2.41306 0
M  V30 26892 H 2434.93 -1.00791 -1.27338 0
M  V30 26893 H 2436.93 0.0518845 -4.16868 0
M  V30 26894 H 2435.59 0.681459 -3.17468 0
M  V30 26895 H 2436.6 -2.82761 -4.33897 0
M  V30 26896 H 2433.28 -0.25266 -4.16735 0
M  V30 26897 H 2434.67 -4.13308 -5.29742 0
M  V30 26898 N 2437.39 1.28028 -0.919057 0
M  V30 26899 C 2438.32 2.26213 -0.368801 0
M  V30 26900 C 2439.33 1.5507 0.495689 0
M  V30 26901 O 2440.52 1.75793 0.30971 0
M  V30 26902 C 2437.62 3.35324 0.49099 0
M  V30 26903 C 2436.79 4.3598 -0.352209 0
M  V30 26904 C 2435.85 5.24327 0.44353 0
M  V30 26905 O 2434.88 5.69013 -0.14576 0
M  V30 26906 N 2436.08 5.5364 1.74536 0
M  V30 26907 H 2438.85 2.74065 -1.21278 0
M  V30 26908 H 2436.41 1.41564 -0.785565 0
M  V30 26909 H 2438.4 3.91368 1.03019 0
M  V30 26910 H 2436.97 2.8714 1.23569 0
M  V30 26911 H 2436.19 3.79323 -1.07275 0
M  V30 26912 H 2437.48 5.00248 -0.928971 0
M  V30 26913 H 2436.87 5.19178 2.24657 0
M  V30 26914 H 2435.43 6.1242 2.23127 0
M  V30 26915 N 2438.86 0.683613 1.42002 0
M  V30 26916 C 2439.79 0.024907 2.33487 0
M  V30 26917 C 2440.78 -0.779948 1.51165 0
M  V30 26918 O 2441.96 -0.735331 1.7974 0
M  V30 26919 C 2439.09 -0.920777 3.34872 0
M  V30 26920 C 2438.04 -0.223883 4.27414 0
M  V30 26921 C 2437.37 -1.28311 5.19076 0
M  V30 26922 C 2438.67 0.90251 5.14443 0
M  V30 26923 H 2440.36 0.788972 2.88818 0
M  V30 26924 H 2437.91 0.380854 1.38872 0
M  V30 26925 H 2439.86 -1.39074 3.97789 0
M  V30 26926 H 2438.59 -1.71637 2.77864 0
M  V30 26927 H 2437.25 0.225928 3.65903 0
M  V30 26928 H 2436.89 -2.07092 4.58391 0
M  V30 26929 H 2436.59 -0.821893 5.81824 0
M  V30 26930 H 2438.12 -1.75382 5.8487 0
M  V30 26931 H 2439.53 0.513372 5.70997 0
M  V30 26932 H 2437.93 1.29007 5.86069 0
M  V30 26933 H 2439 1.74745 4.52319 0
M  V30 26934 N 2440.34 -1.5169 0.427538 0
M  V30 26935 C 2441.57 -2.06903 -0.143565 0
M  V30 26936 C 2441.99 -1.29384 -1.36533 0
M  V30 26937 O 2441.35 -0.329074 -1.78289 0
M  V30 26938 C 2441.4 -3.57729 -0.454144 0
M  V30 26939 O 2440.5 -3.82478 -1.54222 0
M  V30 26940 H 2439.84 -0.663971 -0.00615961 0
M  V30 26941 H 2442.37 -1.95418 0.606048 0
M  V30 26942 H 2442.38 -4.0182 -0.707455 0
M  V30 26943 H 2441.06 -4.13578 0.438885 0
M  V30 26944 H 2439.64 -3.50257 -1.27963 0
M  V30 26945 N 2441.82 -0.15856 -1.568 0
M  V30 26946 C 2442.77 0.776691 -2.17339 0
M  V30 26947 C 2443.74 1.23599 -1.10962 0
M  V30 26948 O 2444.92 1.30645 -1.39056 0
M  V30 26949 C 2442.06 2.00577 -2.80825 0
M  V30 26950 C 2441.18 1.59122 -4.01627 0
M  V30 26951 C 2440.31 2.77298 -4.53077 0
M  V30 26952 C 2439.35 2.32272 -5.66318 0
M  V30 26953 N 2438.49 3.43497 -6.12335 0
M  V30 26954 H 2443.33 0.253649 -2.96919 0
M  V30 26955 H 2440.86 0.113478 -1.46662 0
M  V30 26956 H 2442.82 2.72647 -3.15784 0
M  V30 26957 H 2441.45 2.50273 -2.03871 0
M  V30 26958 H 2440.5 0.76774 -3.72572 0
M  V30 26959 H 2441.82 1.22061 -4.83635 0
M  V30 26960 H 2440.97 3.57542 -4.90152 0
M  V30 26961 H 2439.71 3.17611 -3.70101 0
M  V30 26962 H 2438.71 1.50471 -5.28809 0
M  V30 26963 H 2439.94 1.93032 -6.51088 0
M  V30 26964 H 2437.89 3.83409 -5.32291 0
M  V30 26965 H 2437.8 3.10488 -6.89299 0
M  V30 26966 H 2439.07 4.24063 -6.54057 0
M  V30 26967 N 2443.3 1.57178 0.115204 0
M  V30 26968 C 2444.53 1.8924 0.836403 0
M  V30 26969 C 2444.94 0.750206 1.73255 0
M  V30 26970 O 2444.3 -0.2788 1.80358 0
M  V30 26971 C 2444.35 3.20788 1.66665 0
M  V30 26972 O 2444.07 4.30611 0.806576 0
M  V30 26973 C 2445.57 3.6658 2.49267 0
M  V30 26974 H 2442.79 0.626518 0.240242 0
M  V30 26975 H 2445.34 2.04263 0.0984573 0
M  V30 26976 H 2443.49 3.07424 2.35731 0
M  V30 26977 H 2443.91 5.06031 1.37961 0
M  V30 26978 H 2445.38 4.61375 3.03046 0
M  V30 26979 H 2445.86 2.93423 3.26802 0
M  V30 26980 H 2446.46 3.82745 1.85436 0
M  V30 26981 N 2444.78 -0.38549 1.52813 0
M  V30 26982 C 2446 -1.1558 1.72209 0
M  V30 26983 C 2446.43 -1.82856 0.441066 0
M  V30 26984 O 2445.79 -1.70963 -0.603435 0
M  V30 26985 C 2445.83 -2.17687 2.8748 0
M  V30 26986 O 2444.94 -3.24349 2.54699 0
M  V30 26987 H 2444.28 -0.336309 0.572532 0
M  V30 26988 H 2446.81 -0.448709 1.99619 0
M  V30 26989 H 2446.82 -2.61624 3.13076 0
M  V30 26990 H 2445.49 -1.68108 3.80411 0
M  V30 26991 H 2444.07 -2.85524 2.39855 0
M  V30 26992 N 2446.26 -1.43835 -0.644143 0
M  V30 26993 C 2447.67 -1.27435 -0.960853 0
M  V30 26994 C 2447.87 -0.200653 -2.00498 0
M  V30 26995 O 2446.93 0.417863 -2.49018 0
M  V30 26996 C 2448.24 -2.64169 -1.43649 0
M  V30 26997 C 2449.79 -2.71775 -1.55266 0
M  V30 26998 C 2450.26 -4.08948 -2.06217 0
M  V30 26999 N 2451.75 -4.11059 -2.13506 0
M  V30 27000 C 2452.49 -5.14038 -2.54072 0
M  V30 27001 N 2451.99 -6.27386 -2.93869 0
M  V30 27002 N 2453.78 -5.01392 -2.54092 0
M  V30 27003 H 2445.93 -2.12349 0.0466152 0
M  V30 27004 H 2448.19 -0.94708 -0.0417472 0
M  V30 27005 H 2447.9 -3.43748 -0.743646 0
M  V30 27006 H 2447.77 -2.9018 -2.40988 0
M  V30 27007 H 2450.16 -1.92523 -2.23649 0
M  V30 27008 H 2450.24 -2.4952 -0.563351 0
M  V30 27009 H 2449.88 -4.8867 -1.38433 0
M  V30 27010 H 2449.81 -4.28573 -3.05995 0
M  V30 27011 H 2452.31 -3.29246 -1.85488 0
M  V30 27012 H 2452.62 -7.01786 -3.23598 0
M  V30 27013 H 2450.96 -6.30844 -2.91651 0
M  V30 27014 H 2454.15 -4.11902 -2.22383 0
M  V30 27015 H 2454.33 -5.81773 -2.85383 0
M  V30 27016 N 2447.73 0.883355 -1.30517 0
M  V30 27017 C 2448.7 1.9708 -1.17014 0
M  V30 27018 C 2449.7 1.60483 -0.100918 0
M  V30 27019 O 2450.89 1.70665 -0.349157 0
M  V30 27020 C 2448.02 3.31546 -0.793103 0
M  V30 27021 H 2449.21 2.10486 -2.13625 0
M  V30 27022 H 2446.76 1.06996 -1.13936 0
M  V30 27023 H 2447.5 3.23841 0.172442 0
M  V30 27024 H 2447.28 3.59478 -1.56583 0
M  V30 27025 H 2448.77 4.11309 -0.722146 0
M  V30 27026 N 2449.21 1.13259 1.09591 0
M  V30 27027 C 2450.14 0.830984 2.18213 0
M  V30 27028 C 2451.12 -0.208936 1.68812 0
M  V30 27029 O 2452.31 -0.0682324 1.9408 0
M  V30 27030 C 2449.44 0.294357 3.4605 0
M  V30 27031 C 2448.39 1.26833 4.08775 0
M  V30 27032 C 2447.72 0.591542 5.31418 0
M  V30 27033 C 2449.02 2.62623 4.51472 0
M  V30 27034 H 2450.71 1.73927 2.437 0
M  V30 27035 H 2448.26 0.837695 1.17127 0
M  V30 27036 H 2450.21 0.0710347 4.2134 0
M  V30 27037 H 2448.93 -0.64931 3.20081 0
M  V30 27038 H 2447.59 1.47762 3.35503 0
M  V30 27039 H 2447.24 -0.357544 5.01728 0
M  V30 27040 H 2446.94 1.24133 5.74339 0
M  V30 27041 H 2448.47 0.377462 6.09432 0
M  V30 27042 H 2449.88 2.45672 5.17994 0
M  V30 27043 H 2448.28 3.23761 5.05271 0
M  V30 27044 H 2449.35 3.20412 3.63956 0
M  V30 27045 N 2450.69 -1.27539 0.925834 0
M  V30 27046 C 2451.94 -1.94738 0.566126 0
M  V30 27047 C 2452.27 -1.72604 -0.890026 0
M  V30 27048 O 2451.54 -1.05402 -1.63465 0
M  V30 27049 C 2451.83 -3.48913 0.890601 0
M  V30 27050 C 2451.68 -3.80398 2.40037 0
M  V30 27051 C 2453 -4.38322 0.395178 0
M  V30 27052 H 2450.12 -0.707288 0.207152 0
M  V30 27053 H 2452.76 -1.50689 1.15727 0
M  V30 27054 H 2450.91 -3.86562 0.38752 0
M  V30 27055 H 2452.58 -3.5255 2.975 0
M  V30 27056 H 2450.82 -3.27015 2.85033 0
M  V30 27057 H 2451.5 -4.88105 2.57793 0
M  V30 27058 H 2453.97 -4.07813 0.826312 0
M  V30 27059 H 2452.85 -5.45024 0.651181 0
M  V30 27060 H 2453.11 -4.36447 -0.704721 0
M  V30 27061 N 2452.17 -0.691135 -1.41637 0
M  V30 27062 C 2453.13 -0.0320188 -2.29178 0
M  V30 27063 C 2454.13 0.71247 -1.44154 0
M  V30 27064 O 2455.32 0.548024 -1.65355 0
M  V30 27065 C 2452.45 0.965104 -3.26953 0
M  V30 27066 H 2453.65 -0.802732 -2.88957 0
M  V30 27067 H 2451.2 -0.454382 -1.4955 0
M  V30 27068 H 2451.93 1.76374 -2.72145 0
M  V30 27069 H 2451.72 0.434454 -3.89686 0
M  V30 27070 H 2453.21 1.42421 -3.92563 0
M  V30 27071 N 2453.65 1.51461 -0.435577 0
M  V30 27072 C 2454.92 1.94662 0.19133 0
M  V30 27073 C 2455.3 1.37414 1.60252 0
M  V30 27074 O 2454.65 0.560497 2.21519 0
M  V30 27075 C 2454.86 3.48582 0.170849 0
M  V30 27076 C 2456.21 4.2292 0.377283 0
M  V30 27077 O 2457.23 3.55328 0.249042 0
M  V30 27078 O 2456.09 5.42829 0.632375 0
M  V30 27079 H 2453.19 0.816572 0.130918 0
M  V30 27080 H 2455.73 1.62368 -0.493429 0
M  V30 27081 H 2454.5 3.82701 -0.815805 0
M  V30 27082 H 2454.13 3.87313 0.898591 0
M  V30 27083 N 2455.12 0.166873 1.56714 0
M  V30 27084 C 2456.35 -0.488798 2.01558 0
M  V30 27085 C 2456.77 -1.56313 1.04633 0
M  V30 27086 O 2456.13 -1.81283 0.0251623 0
M  V30 27087 C 2456.18 -1.04812 3.45032 0
M  V30 27088 O 2455.28 -2.1623 3.51167 0
M  V30 27089 H 2454.63 -0.117515 0.653518 0
M  V30 27090 H 2457.16 0.269457 2.02818 0
M  V30 27091 H 2457.17 -1.37184 3.84245 0
M  V30 27092 H 2455.84 -0.261499 4.15077 0
M  V30 27093 H 2454.42 -1.84936 3.2381 0
M  V30 27094 N 2456.6 -1.57237 -0.106866 0
M  V30 27095 C 2457.55 -1.97652 -1.13657 0
M  V30 27096 C 2458.54 -0.853227 -1.36414 0
M  V30 27097 O 2459.73 -1.117 -1.37303 0
M  V30 27098 C 2456.86 -2.3946 -2.45996 0
M  V30 27099 C 2455.94 -3.58448 -2.26662 0
M  V30 27100 N 2456.33 -4.73757 -1.77167 0
M  V30 27101 C 2454.63 -3.64317 -2.57273 0
M  V30 27102 C 2455.33 -5.55743 -1.71827 0
M  V30 27103 N 2454.31 -4.98577 -2.16615 0
M  V30 27104 H 2458.11 -2.84258 -0.74664 0
M  V30 27105 H 2455.63 -1.59327 -0.314455 0
M  V30 27106 H 2457.62 -2.66636 -3.20486 0
M  V30 27107 H 2456.28 -1.54224 -2.85736 0
M  V30 27108 H 2457.29 -4.96737 -1.46536 0
M  V30 27109 H 2453.97 -2.89717 -3.00617 0
M  V30 27110 H 2455.36 -6.58257 -1.34711 0
M  V30 27111 N 2458.08 0.377381 -1.53015 0
M  V30 27112 C 2459.49 0.95477 -1.6044 0
M  V30 27113 C 2459.84 1.90623 -0.464451 0
M  V30 27114 O 2458.97 2.12464 0.410833 0
M  V30 27115 C 2459.56 1.73842 -2.908 0
M  V30 27116 C 2458.12 2.26533 -3.00599 0
M  V30 27117 C 2457.27 1.07425 -2.55647 0
M  V30 27118 H 2460.22 0.156548 -1.57926 0
M  V30 27119 H 2460.24 2.59865 -2.77939 0
M  V30 27120 H 2459.75 1.04567 -3.73748 0
M  V30 27121 H 2457.85 2.99085 -2.22214 0
M  V30 27122 H 2457.97 2.55223 -4.0546 0
M  V30 27123 H 2456.33 1.43773 -2.10241 0
M  V30 27124 H 2457.11 0.396669 -3.41001 0
M  V30 27125 N 2459.56 1.44175 0.636506 0
M  V30 27126 C 2460.47 1.53107 1.77751 0
M  V30 27127 C 2461.48 0.417063 1.68928 0
M  V30 27128 O 2462.66 0.673633 1.898 0
M  V30 27129 C 2459.73 1.46747 3.14112 0
M  V30 27130 C 2458.79 2.68954 3.34607 0
M  V30 27131 C 2458.02 2.62888 4.64463 0
M  V30 27132 O 2458.24 1.68591 5.44916 0
M  V30 27133 O 2457.18 3.53656 4.87043 0
M  V30 27134 H 2461 2.49492 1.73169 0
M  V30 27135 H 2458.59 1.26361 0.797068 0
M  V30 27136 H 2460.47 1.45703 3.95409 0
M  V30 27137 H 2459.14 0.535032 3.19248 0
M  V30 27138 H 2458.05 2.75567 2.53009 0
M  V30 27139 H 2459.38 3.61226 3.3433 0
M  V30 27140 N 2461.04 -0.876421 1.30983 0
M  V30 27141 C 2462.26 -1.66713 1.23376 0
M  V30 27142 C 2462.69 -1.87046 -0.198817 0
M  V30 27143 O 2462.04 -1.40758 -1.14267 0
M  V30 27144 C 2462.09 -3.01608 1.97649 0
M  V30 27145 O 2461.2 -3.9106 1.30942 0
M  V30 27146 H 2460.54 -0.509092 0.426288 0
M  V30 27147 H 2463.07 -1.0932 1.72946 0
M  V30 27148 H 2463.08 -3.5159 2.06998 0
M  V30 27149 H 2461.75 -2.86128 3.01834 0
M  V30 27150 H 2460.33 -3.49505 1.30003 0
M  V30 27151 N 2462.51 -1.13839 -1.08989 0
M  V30 27152 C 2463.42 -0.833371 -2.19299 0
M  V30 27153 C 2464.44 0.183816 -1.73026 0
M  V30 27154 O 2465.62 0.0137738 -2.01395 0
M  V30 27155 C 2462.68 -0.308711 -3.45323 0
M  V30 27156 C 2461.74 -1.38771 -4.06253 0
M  V30 27157 C 2460.98 -0.887989 -5.26261 0
M  V30 27158 O 2461.2 0.27277 -5.69747 0
M  V30 27159 O 2460.13 -1.66432 -5.78432 0
M  V30 27160 H 2463.96 -1.7551 -2.47851 0
M  V30 27161 H 2461.54 -0.916186 -1.1801 0
M  V30 27162 H 2463.43 -0.0217479 -4.21394 0
M  V30 27163 H 2462.1 0.585375 -3.18363 0
M  V30 27164 H 2461.01 -1.72805 -3.31797 0
M  V30 27165 H 2462.34 -2.2561 -4.37448 0
M  V30 27166 N 2463.99 1.27046 -0.932584 0
M  V30 27167 C 2465.41 1.46486 -0.63357 0
M  V30 27168 C 2465.61 1.84251 0.815714 0
M  V30 27169 O 2464.66 1.95895 1.59316 0
M  V30 27170 C 2465.98 2.55372 -1.58763 0
M  V30 27171 C 2467.53 2.69229 -1.59639 0
M  V30 27172 C 2468 3.81278 -2.53753 0
M  V30 27173 N 2469.49 3.88659 -2.51989 0
M  V30 27174 C 2470.23 4.74791 -3.21499 0
M  V30 27175 N 2469.72 5.65374 -4.00405 0
M  V30 27176 N 2471.52 4.68562 -3.10493 0
M  V30 27177 H 2463.67 1.00818 -1.86948 0
M  V30 27178 H 2465.93 0.50403 -0.802906 0
M  V30 27179 H 2465.64 2.34428 -2.62177 0
M  V30 27180 H 2465.51 3.52858 -1.33307 0
M  V30 27181 H 2467.9 2.89552 -0.569539 0
M  V30 27182 H 2467.98 1.72214 -1.89145 0
M  V30 27183 H 2467.62 3.61709 -3.56551 0
M  V30 27184 H 2467.55 4.77731 -2.21541 0
M  V30 27185 H 2470.04 3.23891 -1.94686 0
M  V30 27186 H 2470.36 6.27968 -4.50417 0
M  V30 27187 H 2468.7 5.65154 -4.04508 0
M  V30 27188 H 2471.89 3.96795 -2.48338 0
M  V30 27189 H 2472.06 5.35469 -3.64934 0
M  V30 27190 N 2465.47 0.698636 1.41269 0
M  V30 27191 C 2466.72 0.227984 2.00407 0
M  V30 27192 C 2467.03 -1.1802 1.55983 0
M  V30 27193 O 2468.24 -1.74848 2.07702 0
M  V30 27194 C 2466.69 0.356699 3.58128 0
M  V30 27195 C 2466.3 1.77045 4.11533 0
M  V30 27196 C 2468.05 -0.0540223 4.24466 0
M  V30 27197 C 2465.95 1.85065 5.61698 0
M  V30 27198 H 2464.88 0.0814788 0.749585 0
M  V30 27199 H 2467.53 0.867277 1.61711 0
M  V30 27200 H 2465.92 -0.350896 3.94442 0
M  V30 27201 H 2467.09 2.50705 3.86631 0
M  V30 27202 H 2465.41 2.13112 3.57732 0
M  V30 27203 H 2468 -0.0145783 5.34698 0
M  V30 27204 H 2468.35 -1.09325 4.01689 0
M  V30 27205 H 2468.88 0.603406 3.93197 0
M  V30 27206 H 2465.62 2.87051 5.89307 0
M  V30 27207 H 2465.14 1.15794 5.88517 0
M  V30 27208 H 2466.82 1.61495 6.26521 0
M  V30 27209 N 2466.95 -1.51228 0.443603 0
M  V30 27210 C 2468.17 -2.07043 -0.121612 0
M  V30 27211 C 2468.6 -1.30825 -1.35153 0
M  V30 27212 O 2467.96 -0.347965 -1.77929 0
M  V30 27213 C 2468 -3.5819 -0.416177 0
M  V30 27214 O 2467.11 -3.84092 -1.50156 0
M  V30 27215 H 2466.45 -0.663999 0.000883038 0
M  V30 27216 H 2468.98 -1.94764 0.626741 0
M  V30 27217 H 2468.99 -4.02547 -0.664797 0
M  V30 27218 H 2467.66 -4.13089 0.482725 0
M  V30 27219 H 2466.24 -3.51594 -1.24241 0
M  V30 27220 N 2468.43 -0.175182 -1.56623 0
M  V30 27221 C 2469.36 0.792375 -2.14002 0
M  V30 27222 C 2470.34 1.22331 -1.07116 0
M  V30 27223 O 2471.52 1.3144 -1.35114 0
M  V30 27224 C 2468.65 2.06755 -2.68272 0
M  V30 27225 C 2467.69 1.78033 -3.87565 0
M  V30 27226 S 2468.53 0.946129 -5.27076 0
M  V30 27227 C 2469.68 2.23189 -5.84754 0
M  V30 27228 H 2469.92 0.304536 -2.95736 0
M  V30 27229 H 2467.45 0.0395434 -1.54349 0
M  V30 27230 H 2469.41 2.79997 -3.00186 0
M  V30 27231 H 2468.07 2.52653 -1.86616 0
M  V30 27232 H 2467.26 2.72659 -4.23879 0
M  V30 27233 H 2466.86 1.12885 -3.56557 0
M  V30 27234 H 2469.16 3.18618 -5.97904 0
M  V30 27235 H 2470.1 1.91338 -6.81759 0
M  V30 27236 H 2470.51 2.35125 -5.13202 0
M  V30 27237 N 2469.91 1.57292 0.0985263 0
M  V30 27238 C 2471.32 1.53047 0.452643 0
M  V30 27239 C 2471.52 0.891374 1.80712 0
M  V30 27240 O 2470.58 0.482419 2.47849 0
M  V30 27241 C 2471.89 2.97776 0.418288 0
M  V30 27242 C 2473.44 3.08974 0.500388 0
M  V30 27243 C 2473.91 4.55304 0.496217 0
M  V30 27244 N 2475.4 4.59838 0.55707 0
M  V30 27245 C 2476.14 5.70503 0.575625 0
M  V30 27246 N 2475.64 6.90609 0.550593 0
M  V30 27247 N 2477.43 5.58668 0.620178 0
M  V30 27248 H 2469.58 1.97213 -0.788708 0
M  V30 27249 H 2471.84 0.901519 -0.293203 0
M  V30 27250 H 2471.55 3.47987 -0.50972 0
M  V30 27251 H 2471.42 3.56286 1.23854 0
M  V30 27252 H 2473.81 2.58754 1.41882 0
M  V30 27253 H 2473.89 2.53423 -0.347938 0
M  V30 27254 H 2473.53 5.06175 -0.418251 0
M  V30 27255 H 2473.46 5.08689 1.36171 0
M  V30 27256 H 2475.96 3.73395 0.58175 0
M  V30 27257 H 2476.27 7.7071 0.56794 0
M  V30 27258 H 2474.61 6.93069 0.517694 0
M  V30 27259 H 2477.8 4.63742 0.637241 0
M  V30 27260 H 2477.98 6.44919 0.63117 0
M  V30 27261 N 2471.38 -0.369261 1.53213 0
M  V30 27262 C 2472.32 -1.47216 1.7567 0
M  V30 27263 C 2473.33 -1.49803 0.637413 0
M  V30 27264 O 2474.52 -1.53349 0.913588 0
M  V30 27265 C 2471.62 -2.85996 1.81823 0
M  V30 27266 C 2470.79 -3.07148 3.11414 0
M  V30 27267 C 2469.85 -4.26021 3.08857 0
M  V30 27268 O 2468.88 -4.21373 3.82666 0
M  V30 27269 N 2470.08 -5.33242 2.29419 0
M  V30 27270 H 2472.84 -1.28332 2.70834 0
M  V30 27271 H 2470.4 -0.558954 1.51945 0
M  V30 27272 H 2472.4 -3.63651 1.77594 0
M  V30 27273 H 2470.97 -2.98145 0.939597 0
M  V30 27274 H 2470.19 -2.17184 3.28975 0
M  V30 27275 H 2471.47 -3.18147 3.97064 0
M  V30 27276 H 2470.87 -5.3988 1.68956 0
M  V30 27277 H 2469.43 -6.09489 2.31012 0
M  V30 27278 N 2472.86 -1.4451 -0.628851 0
M  V30 27279 C 2474.09 -1.51122 -1.42045 0
M  V30 27280 C 2474.51 -0.13785 -1.87594 0
M  V30 27281 O 2473.87 0.873409 -1.58875 0
M  V30 27282 C 2473.92 -2.48256 -2.61537 0
M  V30 27283 O 2473.02 -1.98566 -3.61449 0
M  V30 27284 H 2472.36 -0.510224 -0.424933 0
M  V30 27285 H 2474.89 -1.89666 -0.767341 0
M  V30 27286 H 2474.9 -2.66366 -3.09052 0
M  V30 27287 H 2473.58 -3.48011 -2.2773 0
M  V30 27288 H 2472.15 -1.90232 -3.20727 0
M  V30 27289 N 2474.34 0.869463 -1.31446 0
M  V30 27290 C 2475.29 1.97673 -1.19139 0
M  V30 27291 C 2476.26 1.65921 -0.0770558 0
M  V30 27292 O 2477.44 1.89155 -0.250005 0
M  V30 27293 C 2474.58 3.33017 -0.905207 0
M  V30 27294 C 2473.69 3.77361 -2.10292 0
M  V30 27295 C 2472.83 5.01424 -1.75348 0
M  V30 27296 C 2471.87 5.38219 -2.91525 0
M  V30 27297 N 2471.01 6.53462 -2.56773 0
M  V30 27298 H 2475.85 2.07531 -2.13857 0
M  V30 27299 H 2473.38 1.01595 -1.06381 0
M  V30 27300 H 2475.34 4.10943 -0.719837 0
M  V30 27301 H 2473.97 3.228 0.0051395 0
M  V30 27302 H 2473.02 2.95212 -2.39904 0
M  V30 27303 H 2474.33 4.00559 -2.97244 0
M  V30 27304 H 2473.49 5.87019 -1.53277 0
M  V30 27305 H 2472.23 4.80131 -0.855886 0
M  V30 27306 H 2471.23 4.51143 -3.14245 0
M  V30 27307 H 2472.46 5.61477 -3.81995 0
M  V30 27308 H 2470.4 6.33714 -1.69537 0
M  V30 27309 H 2470.32 6.76606 -3.37255 0
M  V30 27310 H 2471.59 7.42247 -2.38096 0
M  V30 27311 N 2475.82 1.14415 1.08383 0
M  V30 27312 C 2477.06 0.913865 1.81042 0
M  V30 27313 C 2477.4 -0.558177 1.86005 0
M  V30 27314 O 2476.67 -1.41347 1.33609 0
M  V30 27315 C 2476.95 1.51575 3.26645 0
M  V30 27316 C 2476.81 3.05766 3.2989 0
M  V30 27317 C 2478.13 1.19281 4.23627 0
M  V30 27318 H 2475.25 0.333425 0.657265 0
M  V30 27319 H 2477.89 1.41414 1.26894 0
M  V30 27320 H 2476.04 1.0903 3.72887 0
M  V30 27321 H 2477.71 3.57143 2.91971 0
M  V30 27322 H 2475.95 3.40202 2.69157 0
M  V30 27323 H 2476.62 3.42985 4.3251 0
M  V30 27324 H 2479.1 1.56063 3.85725 0
M  V30 27325 H 2477.98 1.64027 5.23819 0
M  V30 27326 H 2478.24 0.108145 4.41968 0
M  V30 27327 N 2477.3 -1.26549 0.939309 0
M  V30 27328 C 2478.57 -1.89 0.503833 0
M  V30 27329 C 2478.95 -1.84904 -1.01851 0
M  V30 27330 O 2478.3 -1.3021 -1.8777 0
M  V30 27331 C 2478.51 -3.32415 1.06306 0
M  V30 27332 C 2479.86 -4.09271 1.13058 0
M  V30 27333 O 2480.88 -3.41477 1.01351 0
M  V30 27334 O 2479.74 -5.30507 1.31242 0
M  V30 27335 H 2476.84 -0.810594 0.163911 0
M  V30 27336 H 2479.38 -1.34733 1.03175 0
M  V30 27337 H 2478.15 -3.29748 2.1067 0
M  V30 27338 H 2477.78 -3.94218 0.517477 0
M  V30 27339 N 2478.77 -0.706118 -1.40896 0
M  V30 27340 C 2479.72 -0.0474879 -2.30751 0
M  V30 27341 C 2480.69 0.760264 -1.47679 0
M  V30 27342 O 2481.88 0.726146 -1.76442 0
M  V30 27343 C 2479.02 0.875251 -3.33816 0
M  V30 27344 C 2478.13 0.0579864 -4.31961 0
M  V30 27345 C 2477.26 0.979333 -5.22094 0
M  V30 27346 C 2476.3 0.155599 -6.11902 0
M  V30 27347 N 2475.44 1.03131 -6.94484 0
M  V30 27348 H 2480.28 -0.819463 -2.86511 0
M  V30 27349 H 2477.82 -0.415808 -1.41101 0
M  V30 27350 H 2479.77 1.42439 -3.92131 0
M  V30 27351 H 2478.4 1.61351 -2.79581 0
M  V30 27352 H 2477.46 -0.608213 -3.75506 0
M  V30 27353 H 2478.77 -0.580169 -4.95414 0
M  V30 27354 H 2477.92 1.59733 -5.85295 0
M  V30 27355 H 2476.66 1.65133 -4.58893 0
M  V30 27356 H 2475.67 -0.475405 -5.47741 0
M  V30 27357 H 2476.89 -0.512754 -6.77161 0
M  V30 27358 H 2474.84 1.68913 -6.3388 0
M  V30 27359 H 2474.75 0.448975 -7.54666 0
M  V30 27360 H 2476.02 1.63579 -7.62143 0
M  V30 27361 N 2480.25 1.50991 -0.451617 0
M  V30 27362 C 2481.18 2.30969 0.342857 0
M  V30 27363 C 2482.16 1.37007 1.00813 0
M  V30 27364 O 2483.35 1.65928 1.00904 0
M  V30 27365 C 2480.48 3.16208 1.43631 0
M  V30 27366 C 2479.43 4.18564 0.893744 0
M  V30 27367 C 2478.76 4.92415 2.08403 0
M  V30 27368 C 2480.06 5.22236 -0.0816486 0
M  V30 27369 H 2481.75 2.97635 -0.324608 0
M  V30 27370 H 2479.3 1.43135 -0.157556 0
M  V30 27371 H 2481.25 3.70945 1.99944 0
M  V30 27372 H 2479.97 2.4739 2.13227 0
M  V30 27373 H 2478.63 3.64899 0.352734 0
M  V30 27374 H 2478.28 4.20087 2.76651 0
M  V30 27375 H 2477.98 5.61639 1.72731 0
M  V30 27376 H 2479.51 5.49981 2.65242 0
M  V30 27377 H 2480.92 5.71961 0.391642 0
M  V30 27378 H 2479.32 5.99069 -0.351656 0
M  V30 27379 H 2480.39 4.74183 -1.01382 0
M  V30 27380 N 2481.73 0.183486 1.56528 0
M  V30 27381 C 2482.96 -0.463577 2.01332 0
M  V30 27382 C 2483.37 -1.56528 1.06281 0
M  V30 27383 O 2482.71 -1.83609 0.0578299 0
M  V30 27384 C 2482.77 -1.0909 3.42549 0
M  V30 27385 C 2482.44 -0.129362 4.56817 0
M  V30 27386 C 2483.43 0.656898 5.15733 0
M  V30 27387 C 2481.12 -0.0216517 5.02295 0
M  V30 27388 C 2483.11 1.53795 6.18568 0
M  V30 27389 C 2480.8 0.86297 6.04976 0
M  V30 27390 C 2481.8 1.64135 6.62985 0
M  V30 27391 O 2481.49 2.51116 7.63673 0
M  V30 27392 H 2481.22 -0.121895 0.664919 0
M  V30 27393 H 2483.77 0.28599 2.03399 0
M  V30 27394 H 2482 -1.88883 3.37432 0
M  V30 27395 H 2483.69 -1.64141 3.71231 0
M  V30 27396 H 2484.46 0.583924 4.81472 0
M  V30 27397 H 2480.34 -0.617312 4.56848 0
M  V30 27398 H 2483.88 2.14595 6.63773 0
M  V30 27399 H 2479.78 0.937102 6.38662 0
M  V30 27400 H 2480.54 2.44767 7.81045 0
M  V30 27401 N 2483.21 -1.57342 -0.0901833 0
M  V30 27402 C 2484.17 -2.01443 -1.09332 0
M  V30 27403 C 2485.17 -0.908664 -1.32665 0
M  V30 27404 O 2486.36 -1.17402 -1.28695 0
M  V30 27405 C 2483.49 -2.37934 -2.44132 0
M  V30 27406 H 2484.69 -2.91286 -0.713611 0
M  V30 27407 H 2482.24 -1.52659 -0.335377 0
M  V30 27408 H 2482.97 -1.5106 -2.86969 0
M  V30 27409 H 2482.76 -3.18607 -2.28543 0
M  V30 27410 H 2484.25 -2.72694 -3.16272 0
M  V30 27411 N 2484.69 0.36113 -1.53407 0
M  V30 27412 C 2485.93 1.10112 -1.69469 0
M  V30 27413 C 2486.26 1.89704 -0.451385 0
M  V30 27414 O 2485.53 1.88464 0.534602 0
M  V30 27415 H 2484.11 0.409498 -0.624757 0
M  V30 27416 H 2486.77 0.406666 -1.9061 0
M  V30 27417 H 2485.86 1.78843 -2.55777 0
M  V30 27418 N 2486.16 1.44842 0.621179 0
M  V30 27419 C 2487.09 1.55306 1.74363 0
M  V30 27420 C 2488.08 0.405414 1.65198 0
M  V30 27421 O 2489.26 0.62682 1.83806 0
M  V30 27422 C 2486.39 1.50643 3.12928 0
M  V30 27423 C 2485.34 2.63985 3.36892 0
M  V30 27424 C 2484.67 2.44375 4.75589 0
M  V30 27425 C 2485.97 4.0608 3.28476 0
M  V30 27426 H 2487.66 2.49259 1.65863 0
M  V30 27427 H 2485.21 1.19964 0.796537 0
M  V30 27428 H 2487.16 1.56562 3.91237 0
M  V30 27429 H 2485.89 0.532114 3.22236 0
M  V30 27430 H 2484.55 2.57471 2.60967 0
M  V30 27431 H 2484.19 1.45113 4.81613 0
M  V30 27432 H 2483.89 3.20373 4.9258 0
M  V30 27433 H 2485.42 2.52127 5.56115 0
M  V30 27434 H 2486.83 4.13909 3.96676 0
M  V30 27435 H 2485.23 4.8236 3.57 0
M  V30 27436 H 2486.3 4.28947 2.26125 0
M  V30 27437 N 2487.64 -0.862479 1.31905 0
M  V30 27438 C 2488.59 -1.97038 1.20186 0
M  V30 27439 C 2489.56 -1.65878 0.0858539 0
M  V30 27440 O 2490.74 -1.8902 0.260033 0
M  V30 27441 C 2487.88 -3.32532 0.922855 0
M  V30 27442 C 2487 -3.7624 2.1229 0
M  V30 27443 C 2486.13 -5.00487 1.78005 0
M  V30 27444 C 2485.17 -5.36665 2.94375 0
M  V30 27445 N 2484.31 -6.52091 2.60235 0
M  V30 27446 H 2489.15 -2.06394 2.14954 0
M  V30 27447 H 2486.69 -1.01029 1.06918 0
M  V30 27448 H 2488.64 -4.10556 0.74162 0
M  V30 27449 H 2487.27 -3.22798 0.0119794 0
M  V30 27450 H 2486.33 -2.93935 2.41467 0
M  V30 27451 H 2487.64 -3.98977 2.99364 0
M  V30 27452 H 2486.79 -5.86198 1.56388 0
M  V30 27453 H 2485.53 -4.7967 0.881336 0
M  V30 27454 H 2484.54 -4.49471 3.16633 0
M  V30 27455 H 2485.76 -5.59444 3.84967 0
M  V30 27456 H 2483.71 -6.32806 1.72896 0
M  V30 27457 H 2483.62 -6.74808 3.40838 0
M  V30 27458 H 2484.89 -7.40974 2.42029 0
M  V30 27459 N 2489.12 -1.14988 -1.07775 0
M  V30 27460 C 2490.4 -0.832726 -1.76989 0
M  V30 27461 C 2490.78 0.672525 -2.00101 0
M  V30 27462 O 2490.13 1.61547 -1.61601 0
M  V30 27463 C 2490.34 -1.63869 -3.08136 0
M  V30 27464 C 2491.68 -1.84215 -3.82557 0
M  V30 27465 O 2492.71 -1.60609 -3.17936 0
M  V30 27466 O 2491.57 -2.23723 -4.98608 0
M  V30 27467 H 2488.66 -0.305804 -0.768383 0
M  V30 27468 H 2491.21 -1.25543 -1.14179 0
M  V30 27469 H 2489.98 -2.66085 -2.86905 0
M  V30 27470 H 2489.6 -1.21203 -3.78676 0
M  V30 27471 N 2490.6 1.26049 -0.946007 0
M  V30 27472 C 2491.53 2.28572 -0.477212 0
M  V30 27473 C 2492.51 1.6342 0.472003 0
M  V30 27474 O 2493.69 1.90588 0.372819 0
M  V30 27475 C 2490.82 3.46371 0.253914 0
M  V30 27476 C 2489.78 4.23642 -0.60921 0
M  V30 27477 C 2489.1 5.34105 0.252158 0
M  V30 27478 C 2490.4 4.87176 -1.88299 0
M  V30 27479 H 2492.1 2.68035 -1.33407 0
M  V30 27480 H 2489.64 1.28851 -0.642926 0
M  V30 27481 H 2491.6 4.17208 0.592942 0
M  V30 27482 H 2490.32 3.05873 1.14495 0
M  V30 27483 H 2488.98 3.54576 -0.9312 0
M  V30 27484 H 2488.63 4.89848 1.14269 0
M  V30 27485 H 2488.33 5.86717 -0.321983 0
M  V30 27486 H 2489.85 6.07778 0.586347 0
M  V30 27487 H 2491.27 5.50202 -1.61091 0
M  V30 27488 H 2489.66 5.49927 -2.40209 0
M  V30 27489 H 2490.73 4.09846 -2.59141 0
M  V30 27490 N 2492.08 0.71358 1.4052 0
M  V30 27491 C 2493.04 0.068475 2.29098 0
M  V30 27492 C 2494.04 -0.689446 1.4527 0
M  V30 27493 O 2495.23 -0.521648 1.66206 0
M  V30 27494 C 2492.36 -0.912966 3.28447 0
M  V30 27495 H 2493.55 0.848601 2.87643 0
M  V30 27496 H 2491.11 0.478116 1.48808 0
M  V30 27497 H 2491.84 -1.72022 2.74916 0
M  V30 27498 H 2491.63 -0.372403 3.90328 0
M  V30 27499 H 2493.12 -1.36158 3.9478 0
M  V30 27500 N 2493.55 -1.50749 0.459618 0
M  V30 27501 C 2494.46 -2.32033 -0.346089 0
M  V30 27502 C 2495.48 -1.41911 -1.00684 0
M  V30 27503 O 2496.66 -1.74972 -0.99733 0
M  V30 27504 C 2493.72 -3.16276 -1.42024 0
M  V30 27505 C 2492.78 -4.22205 -0.777288 0
M  V30 27506 C 2492.02 -5.02421 -1.80025 0
M  V30 27507 O 2492.24 -4.83558 -3.02536 0
M  V30 27508 O 2491.17 -5.85904 -1.37843 0
M  V30 27509 H 2495 -3.02029 0.318107 0
M  V30 27510 H 2492.58 -1.47746 0.221689 0
M  V30 27511 H 2494.47 -3.68581 -2.04269 0
M  V30 27512 H 2493.14 -2.4902 -2.06811 0
M  V30 27513 H 2492.05 -3.7392 -0.11619 0
M  V30 27514 H 2493.38 -4.91897 -0.172548 0
M  V30 27515 N 2495.03 -0.191784 -1.56429 0
M  V30 27516 C 2495.94 0.742442 -2.22542 0
M  V30 27517 C 2496.96 1.23725 -1.22345 0
M  V30 27518 O 2498.13 1.2851 -1.55071 0
M  V30 27519 C 2495.2 1.94617 -2.86923 0
M  V30 27520 C 2494.26 1.49626 -4.02381 0
M  V30 27521 C 2493.49 2.64261 -4.63683 0
M  V30 27522 O 2493.72 3.81659 -4.23902 0
M  V30 27523 O 2492.65 2.37164 -5.53206 0
M  V30 27524 H 2496.48 0.209409 -3.02977 0
M  V30 27525 H 2494.06 0.037357 -1.49353 0
M  V30 27526 H 2495.94 2.64976 -3.27667 0
M  V30 27527 H 2494.62 2.46787 -2.0947 0
M  V30 27528 H 2493.53 0.761571 -3.66266 0
M  V30 27529 H 2494.86 1.02126 -4.81488 0
M  V30 27530 N 2496.51 1.57387 0.0818378 0
M  V30 27531 C 2497.93 1.53518 0.436385 0
M  V30 27532 C 2498.13 0.910491 1.79756 0
M  V30 27533 O 2497.18 0.508679 2.47323 0
M  V30 27534 C 2498.5 2.98203 0.386682 0
M  V30 27535 C 2500.04 3.09488 0.467589 0
M  V30 27536 C 2500.52 4.55805 0.447898 0
M  V30 27537 N 2502.01 4.60403 0.508267 0
M  V30 27538 C 2502.74 5.71082 0.515083 0
M  V30 27539 N 2502.24 6.91154 0.477314 0
M  V30 27540 N 2504.03 5.59295 0.560889 0
M  V30 27541 H 2496.18 1.96366 -0.809581 0
M  V30 27542 H 2498.45 0.898358 -0.302749 0
M  V30 27543 H 2498.15 3.47427 -0.5466 0
M  V30 27544 H 2498.03 3.5758 1.20068 0
M  V30 27545 H 2500.41 2.60244 1.39129 0
M  V30 27546 H 2500.5 2.53039 -0.374797 0
M  V30 27547 H 2500.14 5.05703 -0.471915 0
M  V30 27548 H 2500.07 5.10105 1.30768 0
M  V30 27549 H 2502.56 3.73991 0.542114 0
M  V30 27550 H 2502.87 7.71269 0.486164 0
M  V30 27551 H 2501.22 6.93579 0.444156 0
M  V30 27552 H 2504.41 4.64392 0.588019 0
M  V30 27553 H 2504.58 6.45552 0.562732 0
M  V30 27554 N 2497.99 -0.35299 1.53596 0
M  V30 27555 C 2499.4 -0.69549 1.43649 0
M  V30 27556 C 2499.6 -1.92801 0.585651 0
M  V30 27557 O 2498.66 -2.52395 0.0729667 0
M  V30 27558 C 2499.97 -0.896941 2.87011 0
M  V30 27559 C 2501.52 -0.996157 2.96725 0
M  V30 27560 C 2502 -1.22999 4.41175 0
M  V30 27561 N 2503.49 -1.29741 4.44659 0
M  V30 27562 C 2504.22 -1.49567 5.5355 0
M  V30 27563 N 2503.72 -1.66628 6.72463 0
M  V30 27564 N 2505.51 -1.52038 5.41148 0
M  V30 27565 H 2497.66 0.457518 2.07414 0
M  V30 27566 H 2499.93 0.142703 0.937198 0
M  V30 27567 H 2499.63 -0.062932 3.51644 0
M  V30 27568 H 2499.51 -1.80142 3.31404 0
M  V30 27569 H 2501.89 -1.8207 2.32238 0
M  V30 27570 H 2501.97 -0.0687881 2.55707 0
M  V30 27571 H 2501.62 -0.410416 5.06239 0
M  V30 27572 H 2501.55 -2.17078 4.79776 0
M  V30 27573 H 2504.04 -1.18119 3.58966 0
M  V30 27574 H 2504.35 -1.81365 7.51217 0
M  V30 27575 H 2502.7 -1.63782 6.75426 0
M  V30 27576 H 2505.89 -1.38286 4.47208 0
M  V30 27577 H 2506.06 -1.67148 6.26071 0
M  V30 27578 N 2499.47 -1.45169 -0.613489 0
M  V30 27579 C 2500.72 -1.48583 -1.36994 0
M  V30 27580 C 2501.04 -0.126579 -1.94589 0
M  V30 27581 O 2500.31 0.843341 -1.76818 0
M  V30 27582 H 2498.89 -0.547163 -0.508549 0
M  V30 27583 H 2501.55 -1.81081 -0.720821 0
M  V30 27584 H 2500.64 -2.22131 -2.19236 0
M  V30 27585 N 2500.95 0.855472 -1.32361 0
M  V30 27586 C 2501.89 1.96398 -1.21229 0
M  V30 27587 C 2502.86 1.6583 -0.0946496 0
M  V30 27588 O 2504.05 1.88879 -0.270054 0
M  V30 27589 C 2501.19 3.32038 -0.940477 0
M  V30 27590 C 2500.3 3.75109 -2.14283 0
M  V30 27591 C 2499.44 4.99536 -1.80657 0
M  V30 27592 C 2498.47 5.35097 -2.97217 0
M  V30 27593 N 2497.61 6.50701 -2.63689 0
M  V30 27594 H 2502.45 2.05251 -2.16046 0
M  V30 27595 H 2499.99 1.00461 -1.07453 0
M  V30 27596 H 2501.95 4.10156 -0.763383 0
M  V30 27597 H 2500.58 3.22787 -0.029098 0
M  V30 27598 H 2499.63 2.92651 -2.43022 0
M  V30 27599 H 2500.94 3.97384 -3.01475 0
M  V30 27600 H 2500.09 5.8536 -1.59494 0
M  V30 27601 H 2498.83 4.79196 -0.906762 0
M  V30 27602 H 2497.84 4.47785 -3.19012 0
M  V30 27603 H 2499.06 5.57394 -3.87928 0
M  V30 27604 H 2497.01 6.3188 -1.76249 0
M  V30 27605 H 2496.93 6.7299 -3.44412 0
M  V30 27606 H 2498.19 7.3968 -2.45955 0
M  V30 27607 N 2502.42 1.15558 1.07164 0
M  V30 27608 C 2503.35 0.877084 2.16401 0
M  V30 27609 C 2504.33 -0.173082 1.69217 0
M  V30 27610 O 2505.52 -0.0270498 1.94181 0
M  V30 27611 C 2502.65 0.367693 3.45348 0
M  V30 27612 C 2501.6 1.35475 4.05993 0
M  V30 27613 C 2500.93 0.704131 5.30043 0
M  V30 27614 C 2502.23 2.7214 4.45799 0
M  V30 27615 H 2503.92 1.79057 2.39956 0
M  V30 27616 H 2501.47 0.862351 1.15323 0
M  V30 27617 H 2503.42 0.160391 4.21095 0
M  V30 27618 H 2502.15 -0.58127 3.21386 0
M  V30 27619 H 2500.81 1.54845 3.32293 0
M  V30 27620 H 2500.45 -0.25104 5.02373 0
M  V30 27621 H 2500.15 1.36287 5.71576 0
M  V30 27622 H 2501.68 0.506647 6.08494 0
M  V30 27623 H 2503.09 2.56604 5.12667 0
M  V30 27624 H 2501.49 3.34406 4.9829 0
M  V30 27625 H 2502.56 3.2806 3.57078 0
M  V30 27626 N 2503.9 -1.25546 0.952678 0
M  V30 27627 C 2505.18 -1.88455 0.523851 0
M  V30 27628 C 2505.56 -1.85974 -0.998838 0
M  V30 27629 O 2504.91 -1.32194 -1.86379 0
M  V30 27630 C 2505.12 -3.31269 1.09826 0
M  V30 27631 C 2506.46 -4.08049 1.17392 0
M  V30 27632 O 2507.49 -3.40383 1.04967 0
M  V30 27633 O 2506.35 -5.29085 1.36861 0
M  V30 27634 H 2503.44 -0.80881 0.172499 0
M  V30 27635 H 2505.99 -1.33631 1.04598 0
M  V30 27636 H 2504.76 -3.27495 2.14156 0
M  V30 27637 H 2504.38 -3.93647 0.55926 0
M  V30 27638 N 2505.38 -0.721022 -1.40139 0
M  V30 27639 C 2506.29 -0.0731443 -2.34486 0
M  V30 27640 C 2507.31 0.737696 -1.57588 0
M  V30 27641 O 2508.48 0.669396 -1.8995 0
M  V30 27642 C 2505.55 0.833597 -3.36529 0
M  V30 27643 C 2504.61 0.0120918 -4.29298 0
M  V30 27644 C 2503.84 0.875649 -5.26468 0
M  V30 27645 O 2504.06 2.11476 -5.29749 0
M  V30 27646 O 2503 0.311745 -6.01092 0
M  V30 27647 H 2506.82 -0.851495 -2.91519 0
M  V30 27648 H 2504.41 -0.481552 -1.41426 0
M  V30 27649 H 2506.29 1.35282 -3.99095 0
M  V30 27650 H 2504.97 1.591 -2.81902 0
M  V30 27651 H 2503.87 -0.552327 -3.7 0
M  V30 27652 H 2505.21 -0.707214 -4.87093 0
M  V30 27653 N 2506.86 1.50503 -0.467606 0
M  V30 27654 C 2508.27 1.59136 -0.121561 0
M  V30 27655 C 2508.47 1.47605 1.37167 0
M  V30 27656 O 2507.53 1.33275 2.14462 0
M  V30 27657 C 2508.84 2.93172 -0.668652 0
M  V30 27658 C 2510.39 3.06558 -0.63177 0
M  V30 27659 C 2510.87 4.43162 -1.15635 0
M  V30 27660 N 2512.36 4.49565 -1.11561 0
M  V30 27661 C 2513.09 5.53648 -1.49204 0
M  V30 27662 N 2512.59 6.65002 -1.9428 0
M  V30 27663 N 2514.38 5.44172 -1.40829 0
M  V30 27664 H 2506.53 1.56242 -1.43882 0
M  V30 27665 H 2508.79 0.738187 -0.594797 0
M  V30 27666 H 2508.5 3.07075 -1.71459 0
M  V30 27667 H 2508.37 3.77039 -0.110276 0
M  V30 27668 H 2510.76 2.92304 0.405246 0
M  V30 27669 H 2510.84 2.24456 -1.22691 0
M  V30 27670 H 2510.49 4.58165 -2.19198 0
M  V30 27671 H 2510.42 5.2385 -0.537457 0
M  V30 27672 H 2512.91 3.69658 -0.78496 0
M  V30 27673 H 2513.22 7.40478 -2.21161 0
M  V30 27674 H 2511.57 6.6613 -1.9823 0
M  V30 27675 H 2514.76 4.56066 -1.05458 0
M  V30 27676 H 2514.93 6.25169 -1.70492 0
M  V30 27677 N 2508.34 0.200077 1.56325 0
M  V30 27678 C 2509.29 -0.731705 2.1594 0
M  V30 27679 C 2510.27 -1.17279 1.10157 0
M  V30 27680 O 2511.46 -1.13036 1.36205 0
M  V30 27681 C 2508.59 -1.9489 2.82618 0
M  V30 27682 C 2507.68 -1.52849 3.95598 0
M  V30 27683 N 2508.07 -0.819331 4.9912 0
M  V30 27684 C 2506.37 -1.81741 4.07291 0
M  V30 27685 C 2507.07 -0.607951 5.78514 0
M  V30 27686 N 2506.04 -1.15818 5.31119 0
M  V30 27687 H 2509.84 -0.181233 2.93341 0
M  V30 27688 H 2507.36 0.000480717 1.624 0
M  V30 27689 H 2509.36 -2.62696 3.23723 0
M  V30 27690 H 2508.02 -2.50404 2.06707 0
M  V30 27691 H 2509.03 -0.47427 5.15724 0
M  V30 27692 H 2505.7 -2.38728 3.42513 0
M  V30 27693 H 2507.09 -0.0450438 6.71885 0
M  V30 27694 N 2509.81 -1.57429 -0.0734901 0
M  V30 27695 C 2511.23 -1.53747 -0.428237 0
M  V30 27696 C 2511.43 -0.920011 -1.79271 0
M  V30 27697 O 2510.49 -0.521788 -2.4705 0
M  V30 27698 C 2511.8 -2.98404 -0.370862 0
M  V30 27699 C 2513.35 -3.09731 -0.45117 0
M  V30 27700 C 2513.82 -4.56036 -0.42372 0
M  V30 27701 N 2515.31 -4.60666 -0.483844 0
M  V30 27702 C 2516.05 -5.71347 -0.48479 0
M  V30 27703 N 2515.54 -6.91397 -0.440653 0
M  V30 27704 N 2517.34 -5.59584 -0.531221 0
M  V30 27705 H 2509.49 -1.95934 0.819983 0
M  V30 27706 H 2511.75 -0.89674 0.307509 0
M  V30 27707 H 2511.46 -3.47132 0.565017 0
M  V30 27708 H 2511.33 -3.58212 -1.1817 0
M  V30 27709 H 2513.72 -2.60978 -1.37747 0
M  V30 27710 H 2513.8 -2.52837 0.388211 0
M  V30 27711 H 2513.44 -5.05445 0.498727 0
M  V30 27712 H 2513.37 -5.10791 -1.28061 0
M  V30 27713 H 2515.86 -3.74274 -0.522272 0
M  V30 27714 H 2516.18 -7.71516 -0.445254 0
M  V30 27715 H 2514.52 -6.93805 -0.407368 0
M  V30 27716 H 2517.71 -4.64697 -0.563383 0
M  V30 27717 H 2517.89 -6.45841 -0.528489 0
M  V30 27718 N 2511.29 0.344839 -1.53781 0
M  V30 27719 C 2512.22 1.42903 -1.84665 0
M  V30 27720 C 2513.2 1.54953 -0.701675 0
M  V30 27721 O 2514.39 1.69182 -0.953467 0
M  V30 27722 C 2511.52 2.79971 -2.05508 0
M  V30 27723 C 2510.47 2.82728 -3.21323 0
M  V30 27724 C 2509.8 4.22669 -3.27498 0
M  V30 27725 C 2511.1 2.48381 -4.59461 0
M  V30 27726 H 2512.79 1.17306 -2.75463 0
M  V30 27727 H 2510.34 0.562872 -1.32543 0
M  V30 27728 H 2512.29 3.55863 -2.25697 0
M  V30 27729 H 2511.01 3.07 -1.1144 0
M  V30 27730 H 2509.67 2.09289 -3.00988 0
M  V30 27731 H 2509.32 4.46806 -2.31027 0
M  V30 27732 H 2509.02 4.25426 -4.05323 0
M  V30 27733 H 2510.55 5.00405 -3.49895 0
M  V30 27734 H 2511.96 3.13986 -4.79672 0
M  V30 27735 H 2510.36 2.62422 -5.3968 0
M  V30 27736 H 2511.43 1.43572 -4.63158 0
M  V30 27737 N 2512.77 1.45492 0.605781 0
M  V30 27738 C 2514.02 1.49603 1.36474 0
M  V30 27739 C 2514.34 0.138486 1.94006 0
M  V30 27740 O 2513.6 -0.863083 1.7564 0
M  V30 27741 C 2513.9 2.52432 2.53007 0
M  V30 27742 C 2513.56 3.97091 2.1361 0
M  V30 27743 C 2512.23 4.3648 2.0258 0
M  V30 27744 C 2514.58 4.88058 1.82891 0
M  V30 27745 C 2511.91 5.64729 1.59054 0
M  V30 27746 C 2514.26 6.1672 1.4085 0
M  V30 27747 C 2512.92 6.55038 1.2838 0
M  V30 27748 H 2512.19 0.547437 0.499393 0
M  V30 27749 H 2514.84 1.78848 0.684515 0
M  V30 27750 H 2513.14 2.16764 3.26375 0
M  V30 27751 H 2514.84 2.5285 3.11236 0
M  V30 27752 H 2511.43 3.65943 2.23122 0
M  V30 27753 H 2515.62 4.58362 1.90309 0
M  V30 27754 H 2510.87 5.93211 1.48023 0
M  V30 27755 H 2515.05 6.8665 1.16126 0
M  V30 27756 H 2512.67 7.54313 0.94427 0
M  V30 27757 N 2514.25 -0.848441 1.32813 0
M  V30 27758 C 2515.18 -1.96431 1.18099 0
M  V30 27759 C 2516.19 -1.62398 0.114383 0
M  V30 27760 O 2517.38 -1.74751 0.363922 0
M  V30 27761 C 2514.48 -3.29639 0.786856 0
M  V30 27762 C 2513.66 -3.91872 1.94307 0
M  V30 27763 C 2512.71 -5.03421 1.53147 0
M  V30 27764 O 2511.74 -5.23082 2.24442 0
M  V30 27765 N 2512.94 -5.78898 0.431017 0
M  V30 27766 H 2515.71 -2.09593 2.14221 0
M  V30 27767 H 2513.27 -1.02364 1.25432 0
M  V30 27768 H 2515.26 -4.01676 0.493786 0
M  V30 27769 H 2513.83 -3.12489 -0.0833992 0
M  V30 27770 H 2513.05 -3.12543 2.4023 0
M  V30 27771 H 2514.34 -4.30184 2.71696 0
M  V30 27772 H 2513.74 -5.65467 -0.162234 0
M  V30 27773 H 2512.29 -6.515 0.19758 0
M  V30 27774 N 2515.73 -1.16125 -1.06549 0
M  V30 27775 C 2516.66 -0.888548 -2.15933 0
M  V30 27776 C 2517.64 0.164105 -1.69307 0
M  V30 27777 O 2518.82 0.0167515 -1.94193 0
M  V30 27778 C 2515.95 -0.386003 -3.45148 0
M  V30 27779 C 2514.91 -1.37627 -4.05269 0
M  V30 27780 C 2514.23 -0.73223 -5.29663 0
M  V30 27781 C 2515.53 -2.745 -4.4435 0
M  V30 27782 H 2517.23 -1.80327 -2.39003 0
M  V30 27783 H 2514.77 -0.868455 -1.14865 0
M  V30 27784 H 2516.73 -0.182721 -4.21004 0
M  V30 27785 H 2515.45 0.564218 -3.2169 0
M  V30 27786 H 2514.11 -1.56605 -3.31467 0
M  V30 27787 H 2513.76 0.224394 -5.02499 0
M  V30 27788 H 2513.46 -1.39317 -5.70846 0
M  V30 27789 H 2514.98 -0.538909 -6.08217 0
M  V30 27790 H 2516.39 -2.5932 -5.11299 0
M  V30 27791 H 2514.79 -3.37044 -4.96509 0
M  V30 27792 H 2515.86 -3.29949 -3.55333 0
M  V30 27793 N 2517.2 1.25039 -0.959323 0
M  V30 27794 C 2518.15 2.27709 -0.474477 0
M  V30 27795 C 2519.15 1.631 0.457668 0
M  V30 27796 O 2520.35 1.76876 0.333881 0
M  V30 27797 H 2516.73 0.739792 -0.134949 0
M  V30 27798 H 2518.7 2.65986 -1.35256 0
M  V30 27799 C 2517.45 3.46953 0.227823 0
M  V30 27800 H 2516.77 3.96904 -0.480317 0
M  V30 27801 H 2518.21 4.20662 0.531017 0
M  V30 27802 C 2516.67 3.04007 1.45194 0
M  V30 27803 O 2517.2 3.1043 2.54943 0
M  V30 27804 N 2515.41 2.59146 1.31497 0
M  V30 27805 H 2514.95 2.5412 0.422021 0
M  V30 27806 H 2514.91 2.30777 2.13517 0
M  V30 27807 N 2518.68 0.728444 1.39755 0
M  V30 27808 C 2520.1 0.403335 1.54419 0
M  V30 27809 C 2520.3 -1.08653 1.69696 0
M  V30 27810 O 2519.35 -1.87264 1.69376 0
M  V30 27811 C 2520.67 1.18063 2.76553 0
M  V30 27812 C 2522.22 1.16821 2.90382 0
M  V30 27813 C 2522.69 1.92793 4.15446 0
M  V30 27814 N 2524.18 1.89926 4.22472 0
M  V30 27815 C 2524.92 2.45523 5.18176 0
M  V30 27816 N 2524.41 3.0973 6.19709 0
M  V30 27817 N 2526.21 2.35593 5.10345 0
M  V30 27818 H 2518.36 1.69433 1.28086 0
M  V30 27819 H 2520.62 0.716878 0.620314 0
M  V30 27820 H 2520.33 2.23459 2.71586 0
M  V30 27821 H 2520.2 0.780727 3.69032 0
M  V30 27822 H 2522.59 0.122392 2.94846 0
M  V30 27823 H 2522.67 1.60743 1.98986 0
M  V30 27824 H 2522.31 2.97371 4.11744 0
M  V30 27825 H 2522.24 1.46281 5.05875 0
M  V30 27826 H 2524.73 1.43144 3.4974 0
M  V30 27827 H 2525.05 3.49637 6.89184 0
M  V30 27828 H 2523.39 3.13818 6.20116 0
M  V30 27829 H 2526.58 1.8508 4.29957 0
M  V30 27830 H 2526.75 2.79221 5.84756 0
M  V30 27831 N 2520.16 -1.50253 0.475581 0
M  V30 27832 C 2521.07 -2.32387 -0.32146 0
M  V30 27833 C 2522.09 -1.42971 -0.99173 0
M  V30 27834 O 2523.26 -1.7602 -0.978716 0
M  V30 27835 C 2520.33 -3.17764 -1.38661 0
M  V30 27836 C 2519.39 -4.23005 -0.732464 0
M  V30 27837 C 2518.62 -5.04302 -1.74686 0
M  V30 27838 O 2518.84 -4.86739 -2.9739 0
M  V30 27839 O 2517.78 -5.87333 -1.31621 0
M  V30 27840 H 2521.6 -3.01675 0.350124 0
M  V30 27841 H 2519.19 -1.47503 0.237347 0
M  V30 27842 H 2521.07 -3.70727 -2.00348 0
M  V30 27843 H 2519.75 -2.51199 -2.04158 0
M  V30 27844 H 2518.65 -3.74022 -0.0765245 0
M  V30 27845 H 2519.99 -4.92053 -0.120366 0
M  V30 27846 N 2521.64 -0.208365 -1.56217 0
M  V30 27847 C 2522.88 0.427517 -1.98243 0
M  V30 27848 C 2523.22 1.60346 -1.09557 0
M  V30 27849 O 2522.49 1.93918 -0.150384 0
M  V30 27850 C 2522.78 0.874845 -3.49311 0
M  V30 27851 C 2522.63 -0.30383 -4.48773 0
M  V30 27852 C 2523.95 1.7357 -4.04427 0
M  V30 27853 H 2521.07 0.153924 -0.720747 0
M  V30 27854 H 2523.71 -0.301953 -1.87585 0
M  V30 27855 H 2521.86 1.49642 -3.58524 0
M  V30 27856 H 2523.53 -0.941762 -4.51584 0
M  V30 27857 H 2521.77 -0.953449 -4.23192 0
M  V30 27858 H 2522.44 0.0518912 -5.51976 0
M  V30 27859 H 2524.92 1.21136 -3.98077 0
M  V30 27860 H 2523.8 2.01762 -5.10474 0
M  V30 27861 H 2524.06 2.6945 -3.50499 0
M  V30 27862 N 2523.12 1.57465 0.0651402 0
M  V30 27863 C 2524.39 1.78652 0.796408 0
M  V30 27864 C 2524.77 0.7976 1.95452 0
M  V30 27865 O 2524.12 -0.167906 2.27882 0
M  V30 27866 C 2524.33 3.25339 1.26316 0
M  V30 27867 C 2525.68 3.89351 1.69384 0
M  V30 27868 O 2526.7 3.2927 1.35866 0
M  V30 27869 O 2525.56 4.95063 2.31462 0
M  V30 27870 H 2522.66 0.733413 0.382144 0
M  V30 27871 H 2525.2 1.69641 0.0447013 0
M  V30 27872 H 2523.97 3.88877 0.434791 0
M  V30 27873 H 2523.6 3.391 2.07598 0
M  V30 27874 N 2524.59 -0.336679 1.53962 0
M  V30 27875 C 2525.87 -1.09358 1.62173 0
M  V30 27876 C 2526.25 -2.06307 0.447299 0
M  V30 27877 O 2525.6 -2.21538 -0.559763 0
M  V30 27878 C 2525.81 -1.80715 2.98568 0
M  V30 27879 C 2527.16 -2.34212 3.54161 0
M  V30 27880 O 2528.18 -1.90802 3.00788 0
M  V30 27881 O 2527.04 -3.13649 4.47534 0
M  V30 27882 H 2524.13 -0.503308 0.656209 0
M  V30 27883 H 2526.68 -0.337621 1.66308 0
M  V30 27884 H 2525.45 -1.10125 3.75484 0
M  V30 27885 H 2525.08 -2.63153 2.98054 0
M  V30 27886 N 2526.07 -1.45812 -0.598057 0
M  V30 27887 C 2527 -1.5806 -1.7187 0
M  V30 27888 C 2527.98 -0.431644 -1.64532 0
M  V30 27889 O 2529.17 -0.655982 -1.82785 0
M  V30 27890 C 2526.3 -1.55602 -3.10492 0
M  V30 27891 C 2525.25 -2.69311 -3.32649 0
M  V30 27892 C 2524.58 -2.5191 -4.71641 0
M  V30 27893 C 2525.88 -4.11254 -3.21974 0
M  V30 27894 H 2527.57 -2.51866 -1.61876 0
M  V30 27895 H 2525.12 -1.21216 -0.777351 0
M  V30 27896 H 2527.07 -1.62767 -3.88697 0
M  V30 27897 H 2525.8 -0.583311 -3.21349 0
M  V30 27898 H 2524.45 -2.61591 -2.56838 0
M  V30 27899 H 2524.1 -1.52757 -4.79244 0
M  V30 27900 H 2523.8 -3.28169 -4.87421 0
M  V30 27901 H 2525.33 -2.60943 -5.52034 0
M  V30 27902 H 2526.74 -4.20168 -3.90041 0
M  V30 27903 H 2525.14 -4.87979 -3.49281 0
M  V30 27904 H 2526.21 -4.3249 -2.19272 0
M  V30 27905 N 2527.55 0.841385 -1.33261 0
M  V30 27906 C 2528.46 1.98314 -1.25335 0
M  V30 27907 C 2529.48 1.73222 -0.164395 0
M  V30 27908 O 2530.65 1.97637 -0.387521 0
M  V30 27909 C 2527.72 3.32261 -0.990137 0
M  V30 27910 C 2526.78 3.70485 -2.16885 0
M  V30 27911 C 2526.01 4.98041 -1.9181 0
M  V30 27912 O 2526.23 5.6377 -0.867174 0
M  V30 27913 O 2525.17 5.3371 -2.78276 0
M  V30 27914 H 2528.99 2.0794 -2.21348 0
M  V30 27915 H 2526.58 0.974038 -1.13282 0
M  V30 27916 H 2528.46 4.12523 -0.860394 0
M  V30 27917 H 2527.14 3.23644 -0.0602724 0
M  V30 27918 H 2526.04 2.90744 -2.35412 0
M  V30 27919 H 2527.38 3.83765 -3.08197 0
M  V30 27920 N 2529.03 1.16688 1.05932 0
M  V30 27921 C 2529.96 0.834541 2.13467 0
M  V30 27922 C 2530.97 -0.159812 1.62014 0
M  V30 27923 O 2532.16 0.0654542 1.7838 0
M  V30 27924 C 2529.26 0.22242 3.38169 0
M  V30 27925 C 2528.44 1.25778 4.18926 0
M  V30 27926 C 2527.5 0.664794 5.21984 0
M  V30 27927 O 2526.52 1.33462 5.53332 0
M  V30 27928 N 2527.72 -0.546732 5.7792 0
M  V30 27929 H 2530.49 1.76004 2.42575 0
M  V30 27930 H 2528.05 1.06471 1.21965 0
M  V30 27931 H 2530.04 -0.187401 4.04266 0
M  V30 27932 H 2528.61 -0.606704 3.06656 0
M  V30 27933 H 2527.83 1.84364 3.4843 0
M  V30 27934 H 2529.12 1.95639 4.69684 0
M  V30 27935 H 2528.52 -1.10903 5.54723 0
M  V30 27936 H 2527.07 -0.898715 6.45574 0
M  V30 27937 N 2530.51 -1.24529 0.96594 0
M  V30 27938 C 2531.75 -1.93155 0.637383 0
M  V30 27939 C 2532.11 -1.74134 -0.81823 0
M  V30 27940 O 2531.4 -1.08269 -1.58077 0
M  V30 27941 C 2531.6 -3.44667 0.945489 0
M  V30 27942 C 2531.42 -3.78425 2.4295 0
M  V30 27943 C 2530.19 -3.99884 3.08902 0
M  V30 27944 C 2532.39 -3.85044 3.40948 0
M  V30 27945 N 2530.37 -4.20727 4.47059 0
M  V30 27946 C 2531.75 -4.10709 4.64455 0
M  V30 27947 C 2533.8 -3.67773 3.3563 0
M  V30 27948 C 2532.5 -4.20897 5.83299 0
M  V30 27949 C 2534.53 -3.79206 4.53824 0
M  V30 27950 C 2533.89 -4.05294 5.76121 0
M  V30 27951 H 2529.99 -0.728589 0.284047 0
M  V30 27952 H 2532.57 -1.50071 1.24044 0
M  V30 27953 H 2530.75 -3.86622 0.371261 0
M  V30 27954 H 2532.48 -4.00585 0.575683 0
M  V30 27955 H 2529.23 -3.96218 2.59439 0
M  V30 27956 H 2529.66 -4.35131 5.18642 0
M  V30 27957 H 2534.3 -3.46612 2.42116 0
M  V30 27958 H 2532.02 -4.40871 6.77243 0
M  V30 27959 H 2535.6 -3.67216 4.51269 0
M  V30 27960 H 2534.48 -4.13937 6.66052 0
M  V30 27961 N 2531.99 -0.735845 -1.39367 0
M  V30 27962 C 2533.23 -0.281039 -1.99732 0
M  V30 27963 C 2533.55 1.13843 -1.59057 0
M  V30 27964 O 2534.75 1.6928 -2.12265 0
M  V30 27965 C 2533.21 -0.451525 -3.57056 0
M  V30 27966 C 2532.82 -1.87893 -4.06694 0
M  V30 27967 C 2534.56 -0.0585362 -4.2446 0
M  V30 27968 C 2532.47 -1.99893 -5.56594 0
M  V30 27969 H 2531.4 -0.101324 -0.747161 0
M  V30 27970 H 2534.05 -0.909847 -1.59355 0
M  V30 27971 H 2532.43 0.246193 -3.95234 0
M  V30 27972 H 2533.61 -2.60868 -3.79848 0
M  V30 27973 H 2531.92 -2.22521 -3.51956 0
M  V30 27974 H 2534.52 -0.127193 -5.34549 0
M  V30 27975 H 2534.86 0.986362 -4.04446 0
M  V30 27976 H 2535.39 -0.707443 -3.91459 0
M  V30 27977 H 2532.13 -3.02574 -5.81489 0
M  V30 27978 H 2531.65 -1.31356 -5.8524 0
M  V30 27979 H 2533.33 -1.7805 -6.22019 0
M  V30 27980 N 2533.46 1.49999 -0.483543 0
M  V30 27981 C 2534.43 2.2732 0.292925 0
M  V30 27982 C 2535.43 1.32609 0.909476 0
M  V30 27983 O 2536.62 1.55925 0.776718 0
M  V30 27984 C 2533.75 3.09987 1.41849 0
M  V30 27985 H 2534.94 2.97414 -0.385342 0
M  V30 27986 H 2532.49 1.54478 -0.23797 0
M  V30 27987 H 2533.23 2.44418 2.13144 0
M  V30 27988 H 2533.01 3.79603 0.982048 0
M  V30 27989 H 2534.5 3.68432 1.9659 0
M  V30 27990 N 2534.94 0.216646 1.56104 0
M  V30 27991 C 2535.85 -0.706943 2.23695 0
M  V30 27992 C 2536.87 -1.21763 1.24297 0
M  V30 27993 O 2538.04 -1.26027 1.57096 0
M  V30 27994 C 2535.11 -1.90028 2.89983 0
M  V30 27995 C 2534.17 -1.43205 4.04711 0
M  V30 27996 C 2533.4 -2.56851 4.67828 0
M  V30 27997 O 2533.63 -3.74867 4.2992 0
M  V30 27998 O 2532.56 -2.28333 5.56909 0
M  V30 27999 H 2536.39 -0.161181 3.03272 0
M  V30 28000 H 2533.97 -0.0135914 1.49394 0
M  V30 28001 H 2535.85 -2.59729 3.31841 0
M  V30 28002 H 2534.53 -2.43424 2.1337 0
M  V30 28003 H 2533.43 -0.703205 3.67431 0
M  V30 28004 H 2534.77 -0.94453 4.83052 0
M  V30 28005 N 2536.42 -1.57498 -0.0567885 0
M  V30 28006 C 2537.84 -1.54193 -0.411906 0
M  V30 28007 C 2538.04 -0.938973 -1.78285 0
M  V30 28008 O 2537.09 -0.547962 -2.46483 0
M  V30 28009 C 2538.4 -2.98781 -0.339191 0
M  V30 28010 C 2539.95 -3.10192 -0.418294 0
M  V30 28011 C 2540.43 -4.5646 -0.375327 0
M  V30 28012 N 2541.92 -4.61153 -0.434957 0
M  V30 28013 C 2542.65 -5.71829 -0.424164 0
M  V30 28014 N 2542.15 -6.91826 -0.367297 0
M  V30 28015 N 2543.94 -5.60116 -0.471839 0
M  V30 28016 H 2536.09 -1.95053 0.840718 0
M  V30 28017 H 2538.36 -0.893428 0.317003 0
M  V30 28018 H 2538.06 -3.46513 0.601803 0
M  V30 28019 H 2537.94 -3.59445 -1.14364 0
M  V30 28020 H 2540.32 -2.62425 -1.34971 0
M  V30 28021 H 2540.4 -2.52411 0.415006 0
M  V30 28022 H 2540.05 -5.04888 0.552308 0
M  V30 28023 H 2539.98 -5.12121 -1.22636 0
M  V30 28024 H 2542.47 -3.74806 -0.482546 0
M  V30 28025 H 2542.78 -7.71945 -0.3634 0
M  V30 28026 H 2541.13 -6.94198 -0.333757 0
M  V30 28027 H 2544.32 -4.65269 -0.514064 0
M  V30 28028 H 2544.49 -6.46366 -0.459959 0
M  V30 28029 N 2537.9 0.328509 -1.54138 0
M  V30 28030 C 2538.81 1.4272 -1.86194 0
M  V30 28031 C 2539.82 1.56843 -0.753409 0
M  V30 28032 O 2541 1.72033 -1.04721 0
M  V30 28033 C 2538.06 2.77503 -2.07829 0
M  V30 28034 C 2537.13 2.72598 -3.31646 0
M  V30 28035 C 2536.36 4.00953 -3.52239 0
M  V30 28036 O 2536.58 4.98975 -2.76369 0
M  V30 28037 O 2535.52 4.04512 -4.45706 0
M  V30 28038 H 2539.34 1.18542 -2.7961 0
M  V30 28039 H 2536.93 0.522079 -1.39981 0
M  V30 28040 H 2538.81 3.57299 -2.23417 0
M  V30 28041 H 2537.48 3.01582 -1.17601 0
M  V30 28042 H 2536.39 1.9137 -3.21447 0
M  V30 28043 H 2537.72 2.53473 -4.21915 0
M  V30 28044 N 2539.38 1.46127 0.590316 0
M  V30 28045 C 2540.62 1.51266 1.35079 0
M  V30 28046 C 2540.95 0.160745 1.93534 0
M  V30 28047 O 2540.23 -0.826925 1.76046 0
M  V30 28048 C 2540.51 2.60535 2.48584 0
M  V30 28049 C 2540.37 4.05231 1.95213 0
M  V30 28050 C 2541.68 2.65946 3.50658 0
M  V30 28051 H 2538.8 0.550701 0.489794 0
M  V30 28052 H 2541.45 1.78025 0.663856 0
M  V30 28053 H 2539.6 2.37848 3.07181 0
M  V30 28054 H 2541.27 4.39181 1.41131 0
M  V30 28055 H 2539.51 4.1507 1.26093 0
M  V30 28056 H 2540.18 4.77402 2.77113 0
M  V30 28057 H 2542.66 2.86319 3.01929 0
M  V30 28058 H 2541.53 3.44234 4.27545 0
M  V30 28059 H 2541.79 1.71701 4.07396 0
M  V30 28060 N 2540.85 -0.834306 1.33705 0
M  V30 28061 C 2542.1 -1.5922 1.25606 0
M  V30 28062 C 2542.43 -1.93395 -0.176625 0
M  V30 28063 O 2541.71 -1.59078 -1.11913 0
M  V30 28064 C 2541.99 -2.89923 2.13581 0
M  V30 28065 C 2541.84 -2.624 3.6533 0
M  V30 28066 C 2543.16 -3.91393 2.01245 0
M  V30 28067 H 2540.28 -0.577711 0.457623 0
M  V30 28068 H 2542.92 -0.961943 1.6385 0
M  V30 28069 H 2541.07 -3.4371 1.81096 0
M  V30 28070 H 2542.75 -2.1501 4.08128 0
M  V30 28071 H 2540.99 -1.96026 3.86984 0
M  V30 28072 H 2541.66 -3.55554 4.22238 0
M  V30 28073 H 2544.14 -3.46925 2.29744 0
M  V30 28074 H 2543.01 -4.80669 2.65045 0
M  V30 28075 H 2543.27 -4.30964 0.986026 0
M  V30 28076 N 2542.33 -1.17248 -1.05312 0
M  V30 28077 C 2543.29 -0.890394 -2.11198 0
M  V30 28078 C 2544.29 0.118915 -1.6036 0
M  V30 28079 O 2545.48 -0.113116 -1.73832 0
M  V30 28080 C 2542.62 -0.333481 -3.39265 0
M  V30 28081 H 2543.81 -1.8292 -2.37656 0
M  V30 28082 H 2541.36 -0.98278 -1.21537 0
M  V30 28083 H 2542.1 0.612531 -3.18463 0
M  V30 28084 H 2541.88 -1.06089 -3.77475 0
M  V30 28085 H 2543.37 -0.154395 -4.17314 0
M  V30 28086 N 2543.81 1.24015 -0.972531 0
M  V30 28087 C 2545.06 1.91838 -0.63581 0
M  V30 28088 C 2545.38 1.76346 0.832281 0
M  V30 28089 O 2544.65 1.13798 1.59458 0
M  V30 28090 H 2543.23 0.710005 -0.232169 0
M  V30 28091 H 2545.89 1.50806 -1.23464 0
M  V30 28092 H 2544.99 2.99419 -0.880597 0
M  V30 28093 N 2545.29 0.743226 1.38974 0
M  V30 28094 C 2546.51 0.303972 2.0516 0
M  V30 28095 C 2546.94 -1.05573 1.55679 0
M  V30 28096 O 2546.3 -1.67067 0.704161 0
M  V30 28097 C 2546.34 0.324437 3.59138 0
M  V30 28098 O 2545.45 -0.685132 4.06669 0
M  V30 28099 H 2544.79 0.136529 0.649812 0
M  V30 28100 H 2547.32 1.01145 1.77851 0
M  V30 28101 H 2547.33 0.171689 4.07639 0
M  V30 28102 H 2546 1.31654 3.94512 0
M  V30 28103 H 2544.58 -0.497848 3.69562 0
M  V30 28104 N 2546.77 -1.4974 0.491491 0
M  V30 28105 C 2547.72 -2.25868 -0.311046 0
M  V30 28106 C 2548.7 -1.3031 -0.943835 0
M  V30 28107 O 2549.89 -1.5509 -0.853008 0
M  V30 28108 C 2547.02 -3.14318 -1.38054 0
M  V30 28109 C 2546.11 -4.17335 -0.754468 0
M  V30 28110 N 2546.5 -5.05614 0.137305 0
M  V30 28111 C 2544.8 -4.3427 -1.01613 0
M  V30 28112 C 2545.5 -5.79592 0.494716 0
M  V30 28113 N 2544.47 -5.43432 -0.135073 0
M  V30 28114 H 2548.28 -2.9149 0.375601 0
M  V30 28115 H 2545.79 -1.59473 0.306945 0
M  V30 28116 H 2547.79 -3.67481 -1.96884 0
M  V30 28117 H 2546.45 -2.50248 -2.06897 0
M  V30 28118 H 2547.46 -5.15407 0.5075 0
M  V30 28119 H 2544.13 -3.8141 -1.69802 0
M  V30 28120 H 2545.52 -6.60662 1.22371 0
M  V30 28121 N 2548.24 -0.224922 -1.55987 0
M  V30 28122 C 2549.15 0.69507 -2.24067 0
M  V30 28123 C 2550.17 1.21102 -1.24941 0
M  V30 28124 O 2551.35 1.25192 -1.57762 0
M  V30 28125 C 2548.41 1.88488 -2.90987 0
M  V30 28126 C 2547.47 1.41057 -4.05464 0
M  V30 28127 C 2546.71 2.54367 -4.69184 0
M  V30 28128 O 2546.93 3.72581 -4.31902 0
M  V30 28129 O 2545.86 2.25376 -5.58112 0
M  V30 28130 H 2549.69 0.145096 -3.03353 0
M  V30 28131 H 2547.27 0.0056685 -1.49399 0
M  V30 28132 H 2549.16 2.57966 -3.33214 0
M  V30 28133 H 2547.83 2.42289 -2.14657 0
M  V30 28134 H 2546.74 0.68371 -3.67799 0
M  V30 28135 H 2548.07 0.9189 -4.83546 0
M  V30 28136 N 2549.72 1.57526 0.0484352 0
M  V30 28137 C 2550.65 2.08314 1.05486 0
M  V30 28138 C 2551.63 0.981488 1.38927 0
M  V30 28139 O 2552.82 1.25561 1.48149 0
M  V30 28140 C 2549.95 2.5465 2.36158 0
M  V30 28141 C 2548.9 3.68905 2.1701 0
M  V30 28142 C 2548.23 4.01377 3.53271 0
M  V30 28143 C 2549.53 4.98078 1.57211 0
M  V30 28144 H 2551.22 2.9265 0.632144 0
M  V30 28145 H 2548.77 1.40784 0.302629 0
M  V30 28146 H 2550.72 2.88799 3.06877 0
M  V30 28147 H 2549.45 1.67373 2.80453 0
M  V30 28148 H 2548.1 3.35076 1.48727 0
M  V30 28149 H 2547.75 3.11195 3.95179 0
M  V30 28150 H 2547.45 4.78324 3.41291 0
M  V30 28151 H 2548.98 4.38043 4.25384 0
M  V30 28152 H 2550.39 5.30307 2.17823 0
M  V30 28153 H 2548.79 5.79506 1.55861 0
M  V30 28154 H 2549.86 4.8193 0.535871 0
M  V30 28155 N 2551.2 -0.32033 1.5431 0
M  V30 28156 C 2552.45 -1.0558 1.72329 0
M  V30 28157 C 2552.77 -1.8844 0.501523 0
M  V30 28158 O 2552.04 -1.89816 -0.484446 0
M  V30 28159 H 2550.62 -0.392789 0.635394 0
M  V30 28160 H 2553.28 -0.355986 1.91621 0
M  V30 28161 H 2552.38 -1.71998 2.60429 0
M  V30 28162 N 2552.68 -1.46438 -0.582558 0
M  V30 28163 C 2553.61 -1.53046 -1.70615 0
M  V30 28164 C 2554.62 -0.418796 -1.57321 0
M  V30 28165 O 2555.81 -0.687165 -1.64743 0
M  V30 28166 C 2552.91 -1.3948 -3.08867 0
M  V30 28167 C 2552.09 -2.64768 -3.48162 0
M  V30 28168 C 2551.14 -2.45398 -4.65474 0
M  V30 28169 O 2550.17 -3.19122 -4.71328 0
M  V30 28170 N 2551.37 -1.51574 -5.60362 0
M  V30 28171 H 2554.14 -2.49926 -1.654 0
M  V30 28172 H 2551.7 -1.42496 -0.768542 0
M  V30 28173 H 2553.69 -1.24294 -3.8514 0
M  V30 28174 H 2552.26 -0.507812 -3.08448 0
M  V30 28175 H 2551.48 -2.94895 -2.61592 0
M  V30 28176 H 2552.77 -3.47997 -3.71182 0
M  V30 28177 H 2552.17 -0.907803 -5.58369 0
M  V30 28178 H 2550.72 -1.42351 -6.36066 0
M  V30 28179 N 2554.16 0.827204 -1.34146 0
M  V30 28180 C 2555.43 1.56863 -1.16847 0
M  V30 28181 C 2555.81 2.09485 0.260617 0
M  V30 28182 O 2555.16 1.90532 1.26134 0
M  V30 28183 C 2555.37 2.69336 -2.21943 0
M  V30 28184 C 2556.72 3.38216 -2.56701 0
M  V30 28185 O 2557.74 2.79589 -2.207 0
M  V30 28186 O 2556.6 4.44076 -3.18526 0
M  V30 28187 H 2553.7 0.692105 -0.452681 0
M  V30 28188 H 2556.24 0.868948 -1.45765 0
M  V30 28189 H 2555.01 2.28176 -3.17886 0
M  V30 28190 H 2554.64 3.46959 -1.94178 0
M  V30 28191 N 2555.63 1.17805 1.04688 0
M  V30 28192 C 2556.86 0.99282 1.81181 0
M  V30 28193 C 2557.27 -0.462066 1.83471 0
M  V30 28194 O 2556.62 -1.33269 1.26432 0
M  V30 28195 C 2556.68 1.46355 3.2836 0
M  V30 28196 C 2556.34 2.94157 3.49744 0
M  V30 28197 C 2557.34 3.92057 3.41449 0
M  V30 28198 C 2555.02 3.32447 3.76542 0
M  V30 28199 C 2557.02 5.26244 3.59647 0
M  V30 28200 C 2554.7 4.66799 3.94388 0
M  V30 28201 C 2555.7 5.63506 3.8594 0
M  V30 28202 O 2555.39 6.95427 4.03282 0
M  V30 28203 H 2555.12 0.351192 0.577616 0
M  V30 28204 H 2557.68 1.56633 1.32873 0
M  V30 28205 H 2555.91 0.83364 3.77607 0
M  V30 28206 H 2557.6 1.24319 3.86393 0
M  V30 28207 H 2558.36 3.63821 3.20717 0
M  V30 28208 H 2554.24 2.57739 3.82219 0
M  V30 28209 H 2557.78 6.01713 3.52969 0
M  V30 28210 H 2553.68 4.94738 4.14613 0
M  V30 28211 H 2554.45 7.0224 4.20478 0
M  V30 28212 N 2557.11 -1.23497 0.979094 0
M  V30 28213 C 2558.02 -2.28616 0.526472 0
M  V30 28214 C 2559.04 -1.68902 -0.418097 0
M  V30 28215 O 2560.21 -1.99325 -0.288337 0
M  V30 28216 C 2557.28 -3.46306 -0.165174 0
M  V30 28217 C 2556.34 -4.21384 0.820634 0
M  V30 28218 C 2555.57 -5.33454 0.1619 0
M  V30 28219 O 2555.8 -5.60702 -1.04732 0
M  V30 28220 O 2554.73 -5.95727 0.859813 0
M  V30 28221 H 2558.56 -2.69473 1.40065 0
M  V30 28222 H 2556.14 -1.29404 0.746665 0
M  V30 28223 H 2558.02 -4.17753 -0.553213 0
M  V30 28224 H 2556.7 -3.07404 -1.01413 0
M  V30 28225 H 2555.61 -3.52266 1.25935 0
M  V30 28226 H 2556.94 -4.64132 1.63836 0
M  V30 28227 N 2558.59 -0.750586 -1.38578 0
M  V30 28228 C 2559.54 -0.0966349 -2.27795 0
M  V30 28229 C 2560.53 0.696386 -1.45049 0
M  V30 28230 O 2561.72 0.562834 -1.67813 0
M  V30 28231 C 2558.85 0.798026 -3.33896 0
M  V30 28232 C 2557.93 -0.00168124 -4.241 0
M  V30 28233 N 2558.32 -1.03656 -4.95065 0
M  V30 28234 C 2556.62 0.225596 -4.45429 0
M  V30 28235 C 2557.32 -1.52014 -5.61486 0
M  V30 28236 N 2556.3 -0.835968 -5.37134 0
M  V30 28237 H 2560.1 -0.889277 -2.80123 0
M  V30 28238 H 2557.61 -0.586349 -1.51445 0
M  V30 28239 H 2559.61 1.28212 -3.96695 0
M  V30 28240 H 2558.27 1.58965 -2.83126 0
M  V30 28241 H 2559.28 -1.41828 -4.98102 0
M  V30 28242 H 2555.96 0.990801 -4.05573 0
M  V30 28243 H 2557.35 -2.38199 -6.2826 0
M  V30 28244 N 2560.07 1.49477 -0.499425 0
M  V30 28245 C 2561.32 2.02748 0.0457219 0
M  V30 28246 C 2561.65 1.37848 1.3679 0
M  V30 28247 O 2560.92 0.513634 1.87595 0
M  V30 28248 C 2561.21 3.59545 0.199923 0
M  V30 28249 C 2561.06 4.34975 -1.14527 0
M  V30 28250 C 2562.38 4.29916 0.941295 0
M  V30 28251 H 2559.5 0.736844 0.0151423 0
M  V30 28252 H 2562.14 1.78516 -0.650529 0
M  V30 28253 H 2560.29 3.80322 0.79294 0
M  V30 28254 H 2561.96 4.25698 -1.77705 0
M  V30 28255 H 2560.2 3.97595 -1.73495 0
M  V30 28256 H 2560.88 5.43037 -0.990702 0
M  V30 28257 H 2563.35 4.13784 0.438367 0
M  V30 28258 H 2562.23 5.39377 1.01803 0
M  V30 28259 H 2562.49 3.9505 1.98464 0
M  V30 28260 N 2561.55 0.233191 1.55865 0
M  V30 28261 C 2562.78 -0.39987 2.02999 0
M  V30 28262 C 2563.19 -1.52522 1.11277 0
M  V30 28263 O 2562.55 -1.82074 0.12456 0
M  V30 28264 C 2562.6 -0.920578 3.49582 0
M  V30 28265 O 2562.32 0.159911 4.37808 0
M  V30 28266 C 2563.82 -1.62571 4.12414 0
M  V30 28267 H 2561.04 -0.0966164 0.664008 0
M  V30 28268 H 2563.58 0.353048 2.01429 0
M  V30 28269 H 2561.74 -1.62372 3.5173 0
M  V30 28270 H 2562.15 -0.233278 5.23981 0
M  V30 28271 H 2563.63 -1.94192 5.16714 0
M  V30 28272 H 2564.1 -2.54293 3.58095 0
M  V30 28273 H 2564.71 -0.96748 4.1415 0
M  V30 28274 N 2563.03 -1.57549 -0.0400806 0
M  V30 28275 C 2563.96 -2.01194 -1.07686 0
M  V30 28276 C 2564.94 -0.894297 -1.35798 0
M  V30 28277 O 2566.12 -1.15924 -1.4864 0
M  V30 28278 C 2563.25 -2.37565 -2.41414 0
M  V30 28279 C 2562.29 -3.5966 -2.29231 0
M  V30 28280 S 2563.13 -5.09245 -1.65619 0
M  V30 28281 C 2564.28 -5.48848 -3.0086 0
M  V30 28282 H 2564.52 -2.88819 -0.705057 0
M  V30 28283 H 2562.05 -1.52368 -0.249698 0
M  V30 28284 H 2564.01 -2.59191 -3.18324 0
M  V30 28285 H 2562.67 -1.50412 -2.75745 0
M  V30 28286 H 2561.86 -3.82728 -3.27925 0
M  V30 28287 H 2561.46 -3.37828 -1.60463 0
M  V30 28288 H 2563.75 -5.48858 -3.97191 0
M  V30 28289 H 2564.7 -6.49291 -2.82537 0
M  V30 28290 H 2565.11 -4.76336 -3.02926 0
M  V30 28291 N 2564.5 0.312142 -1.54478 0
M  V30 28292 C 2565.43 1.38954 -1.87654 0
M  V30 28293 C 2566.41 1.5343 -0.734385 0
M  V30 28294 O 2567.6 1.67122 -0.989139 0
M  V30 28295 C 2564.73 2.75549 -2.11401 0
M  V30 28296 C 2563.68 2.75849 -3.27248 0
M  V30 28297 C 2563.01 4.15628 -3.36389 0
M  V30 28298 C 2564.31 2.38579 -4.64626 0
M  V30 28299 H 2566 1.11437 -2.77889 0
M  V30 28300 H 2563.55 0.534631 -1.33707 0
M  V30 28301 H 2565.5 3.50996 -2.33195 0
M  V30 28302 H 2564.23 3.04567 -1.17926 0
M  V30 28303 H 2562.89 2.02857 -3.0536 0
M  V30 28304 H 2562.53 4.41805 -2.40452 0
M  V30 28305 H 2562.23 4.16732 -4.14256 0
M  V30 28306 H 2563.76 4.92871 -3.60431 0
M  V30 28307 H 2565.17 3.03741 -4.86225 0
M  V30 28308 H 2563.57 2.50916 -5.45125 0
M  V30 28309 H 2564.64 1.33715 -4.66099 0
M  V30 28310 N 2565.98 1.46745 0.574784 0
M  V30 28311 C 2566.91 1.53949 1.69801 0
M  V30 28312 C 2567.93 0.427134 1.57097 0
M  V30 28313 O 2569.12 0.695892 1.64376 0
M  V30 28314 C 2566.22 1.41116 3.08123 0
M  V30 28315 C 2565.39 2.66611 3.46753 0
M  V30 28316 C 2564.45 2.47864 4.64166 0
M  V30 28317 O 2563.47 3.21617 4.69629 0
M  V30 28318 N 2564.68 1.54544 5.5955 0
M  V30 28319 H 2567.44 2.50799 1.64073 0
M  V30 28320 H 2565 1.42901 0.760975 0
M  V30 28321 H 2566.99 1.26334 3.84476 0
M  V30 28322 H 2565.56 0.524163 3.08174 0
M  V30 28323 H 2564.78 2.96278 2.60025 0
M  V30 28324 H 2566.07 3.4996 3.69331 0
M  V30 28325 H 2565.47 0.937402 5.57879 0
M  V30 28326 H 2564.03 1.45722 6.35302 0
M  V30 28327 N 2567.46 -0.820078 1.34583 0
M  V30 28328 C 2568.37 -1.96294 1.28474 0
M  V30 28329 C 2569.39 -1.72938 0.191932 0
M  V30 28330 O 2570.56 -1.96995 0.418914 0
M  V30 28331 C 2567.63 -3.30643 1.04287 0
M  V30 28332 C 2566.69 -3.66988 2.22752 0
M  V30 28333 C 2565.92 -4.94926 1.99709 0
M  V30 28334 O 2566.14 -5.62319 0.956755 0
M  V30 28335 O 2565.08 -5.29215 2.86732 0
M  V30 28336 H 2568.9 -2.04392 2.24628 0
M  V30 28337 H 2566.49 -0.955893 1.14817 0
M  V30 28338 H 2568.37 -4.11102 0.925914 0
M  V30 28339 H 2567.05 -3.23507 0.111754 0
M  V30 28340 H 2565.95 -2.86962 2.40008 0
M  V30 28341 H 2567.29 -3.78813 3.14263 0
M  V30 28342 N 2568.94 -1.18359 -1.04062 0
M  V30 28343 C 2570.35 -0.933281 -1.29468 0
M  V30 28344 C 2570.55 0.401134 -1.97467 0
M  V30 28345 O 2569.61 1.13546 -2.2553 0
M  V30 28346 C 2570.92 -2.09886 -2.15333 0
M  V30 28347 C 2572.47 -2.13716 -2.2868 0
M  V30 28348 C 2572.95 -3.29692 -3.17911 0
M  V30 28349 N 2574.44 -3.29553 -3.25499 0
M  V30 28350 C 2575.17 -4.15933 -3.94699 0
M  V30 28351 N 2574.67 -5.12447 -4.6623 0
M  V30 28352 N 2576.46 -4.03847 -3.90978 0
M  V30 28353 H 2568.61 -2.04233 -0.583323 0
M  V30 28354 H 2570.87 -0.892393 -0.319905 0
M  V30 28355 H 2570.58 -3.06392 -1.72676 0
M  V30 28356 H 2570.45 -2.05953 -3.16012 0
M  V30 28357 H 2572.84 -1.17788 -2.70573 0
M  V30 28358 H 2572.92 -2.21707 -1.27592 0
M  V30 28359 H 2572.57 -4.25891 -2.76729 0
M  V30 28360 H 2572.5 -3.18937 -4.19031 0
M  V30 28361 H 2574.99 -2.59682 -2.74543 0
M  V30 28362 H 2575.3 -5.74731 -5.16628 0
M  V30 28363 H 2573.65 -5.16406 -4.65134 0
M  V30 28364 H 2576.84 -3.27733 -3.34228 0
M  V30 28365 H 2577.01 -4.71383 -4.44637 0
M  V30 28366 N 2570.42 1.22976 -0.98563 0
M  V30 28367 C 2571.66 1.91531 -0.65742 0
M  V30 28368 C 2571.99 1.76846 0.809676 0
M  V30 28369 O 2571.25 1.12661 1.60019 0
M  V30 28370 C 2571.54 3.43119 -1.0002 0
M  V30 28371 C 2571.21 3.77988 -2.45837 0
M  V30 28372 C 2569.87 3.87217 -2.85686 0
M  V30 28373 C 2572.22 3.94699 -3.40385 0
M  V30 28374 C 2569.55 4.10588 -4.19088 0
M  V30 28375 C 2571.9 4.19572 -4.73437 0
M  V30 28376 C 2570.57 4.27023 -5.13038 0
M  V30 28377 H 2569.84 0.700863 -0.240567 0
M  V30 28378 H 2572.49 1.45893 -1.24046 0
M  V30 28379 H 2570.79 3.90364 -0.335141 0
M  V30 28380 H 2572.49 3.94403 -0.724391 0
M  V30 28381 H 2569.08 3.71383 -2.13945 0
M  V30 28382 H 2573.26 3.86955 -3.10773 0
M  V30 28383 H 2568.52 4.14581 -4.49369 0
M  V30 28384 H 2572.69 4.31446 -5.46651 0
M  V30 28385 H 2570.32 4.44885 -6.16426 0
M  V30 28386 N 2571.89 0.757924 1.38178 0
M  V30 28387 C 2573.31 0.435999 1.53529 0
M  V30 28388 C 2573.51 -1.05029 1.71962 0
M  V30 28389 O 2572.57 -1.83629 1.7331 0
M  V30 28390 C 2573.88 1.23903 2.73987 0
M  V30 28391 C 2575.43 1.22954 2.87839 0
M  V30 28392 C 2575.9 2.01562 4.11263 0
M  V30 28393 N 2577.39 1.98844 4.18348 0
M  V30 28394 C 2578.13 2.56459 5.12851 0
M  V30 28395 N 2577.62 3.22805 6.13 0
M  V30 28396 N 2579.42 2.46365 5.05233 0
M  V30 28397 H 2571.57 1.72112 1.24463 0
M  V30 28398 H 2573.83 0.729874 0.604969 0
M  V30 28399 H 2573.54 2.2917 2.66785 0
M  V30 28400 H 2573.41 0.858828 3.67293 0
M  V30 28401 H 2575.8 0.184906 2.9452 0
M  V30 28402 H 2575.88 1.64928 1.95531 0
M  V30 28403 H 2575.52 3.06038 4.05343 0
M  V30 28404 H 2575.45 1.56979 5.02658 0
M  V30 28405 H 2577.94 1.5053 3.46625 0
M  V30 28406 H 2578.26 3.64177 6.81612 0
M  V30 28407 H 2576.6 3.26901 6.1332 0
M  V30 28408 H 2579.79 1.94158 4.25935 0
M  V30 28409 H 2579.97 2.91562 5.78702 0
M  V30 28410 N 2573.37 -1.4921 0.507345 0
M  V30 28411 C 2574.28 -2.33017 -0.272095 0
M  V30 28412 C 2575.3 -1.45042 -0.961181 0
M  V30 28413 O 2576.47 -1.78057 -0.941159 0
M  V30 28414 C 2573.54 -3.20634 -1.3189 0
M  V30 28415 C 2572.6 -4.24464 -0.642574 0
M  V30 28416 C 2571.83 -5.07894 -1.6395 0
M  V30 28417 O 2572.06 -4.92938 -2.86999 0
M  V30 28418 O 2570.99 -5.89992 -1.19133 0
M  V30 28419 H 2574.82 -3.00864 0.414035 0
M  V30 28420 H 2572.4 -1.46966 0.268581 0
M  V30 28421 H 2574.28 -3.74894 -1.92439 0
M  V30 28422 H 2572.96 -2.55473 -1.98784 0
M  V30 28423 H 2571.87 -3.741 0.00282828 0
M  V30 28424 H 2573.2 -4.92197 -0.0159668 0
M  V30 28425 N 2574.85 -0.241454 -1.55739 0
M  V30 28426 C 2576.1 0.384801 -1.9881 0
M  V30 28427 C 2576.43 1.58344 -1.12949 0
M  V30 28428 O 2575.68 1.94879 -0.179028 0
M  V30 28429 C 2575.98 0.843256 -3.4731 0
M  V30 28430 C 2575.65 -0.247025 -4.50223 0
M  V30 28431 C 2574.31 -0.546483 -4.78087 0
M  V30 28432 C 2576.66 -0.983372 -5.11839 0
M  V30 28433 C 2573.99 -1.58646 -5.64844 0
M  V30 28434 C 2576.34 -2.01283 -5.99723 0
M  V30 28435 C 2575 -2.31899 -6.25923 0
M  V30 28436 H 2574.27 0.140809 -0.727498 0
M  V30 28437 H 2576.92 -0.348139 -1.88309 0
M  V30 28438 H 2575.23 1.6553 -3.55115 0
M  V30 28439 H 2576.92 1.33799 -3.7802 0
M  V30 28440 H 2573.51 -0.00348172 -4.286 0
M  V30 28441 H 2577.7 -0.765268 -4.90364 0
M  V30 28442 H 2572.95 -1.82907 -5.834 0
M  V30 28443 H 2577.13 -2.58834 -6.46512 0
M  V30 28444 H 2574.75 -3.12624 -6.92943 0
M  V30 28445 N 2576.33 1.57568 0.0317248 0
M  V30 28446 C 2577.29 2.05362 1.0178 0
M  V30 28447 C 2578.29 0.957276 1.29201 0
M  V30 28448 O 2579.48 1.22098 1.24249 0
M  V30 28449 C 2576.61 2.46831 2.35133 0
M  V30 28450 H 2577.81 2.93734 0.60501 0
M  V30 28451 H 2575.36 1.53799 0.278487 0
M  V30 28452 H 2576.09 1.61607 2.81165 0
M  V30 28453 H 2575.88 3.2687 2.1656 0
M  V30 28454 H 2577.37 2.84244 3.05933 0
M  V30 28455 N 2577.81 -0.303946 1.54641 0
M  V30 28456 C 2579.22 -0.649437 1.45789 0
M  V30 28457 C 2579.42 -1.90841 0.646693 0
M  V30 28458 O 2578.48 -2.52035 0.153227 0
M  V30 28459 C 2579.79 -0.805176 2.8972 0
M  V30 28460 C 2581.34 -0.901252 2.99744 0
M  V30 28461 C 2581.81 -1.08901 4.44865 0
M  V30 28462 N 2583.31 -1.15529 4.48561 0
M  V30 28463 C 2584.04 -1.31881 5.58028 0
M  V30 28464 N 2583.54 -1.45149 6.77424 0
M  V30 28465 N 2585.33 -1.34745 5.45711 0
M  V30 28466 H 2577.48 0.523273 2.05853 0
M  V30 28467 H 2579.74 0.172447 0.932183 0
M  V30 28468 H 2579.45 0.0489726 3.51666 0
M  V30 28469 H 2579.32 -1.69507 3.36967 0
M  V30 28470 H 2581.71 -1.74589 2.37913 0
M  V30 28471 H 2581.79 0.0125981 2.55797 0
M  V30 28472 H 2581.44 -0.249152 5.07289 0
M  V30 28473 H 2581.37 -2.01704 4.86439 0
M  V30 28474 H 2583.86 -1.06639 3.62542 0
M  V30 28475 H 2584.17 -1.57373 7.56607 0
M  V30 28476 H 2582.51 -1.42211 6.80295 0
M  V30 28477 H 2585.71 -1.23988 4.51381 0
M  V30 28478 H 2585.88 -1.47146 6.31072 0
M  V30 28479 N 2579.28 -1.47047 -0.566994 0
M  V30 28480 C 2580.56 -1.43648 -1.32758 0
M  V30 28481 C 2580.94 -0.128223 -2.1071 0
M  V30 28482 O 2580.29 0.890289 -2.10443 0
M  V30 28483 C 2580.5 -2.67599 -2.24035 0
M  V30 28484 C 2581.85 -3.14406 -2.85367 0
M  V30 28485 O 2582.87 -2.68258 -2.34342 0
M  V30 28486 O 2581.73 -3.94607 -3.78084 0
M  V30 28487 H 2578.82 -0.571998 -0.597283 0
M  V30 28488 H 2581.37 -1.59235 -0.586707 0
M  V30 28489 H 2580.14 -3.54359 -1.65968 0
M  V30 28490 H 2579.77 -2.54549 -3.05435 0
M  V30 28491 N 2580.76 0.812929 -1.35016 0
M  V30 28492 C 2581.99 1.60118 -1.31034 0
M  V30 28493 C 2582.41 1.88458 0.113525 0
M  V30 28494 O 2581.76 1.48303 1.0636 0
M  V30 28495 C 2581.81 2.93621 -2.10877 0
M  V30 28496 O 2581.53 2.66512 -3.47711 0
M  V30 28497 C 2583.04 3.88 -2.14407 0
M  V30 28498 H 2580.26 0.497393 -0.450379 0
M  V30 28499 H 2582.8 1.01072 -1.77777 0
M  V30 28500 H 2580.95 3.49197 -1.6775 0
M  V30 28501 H 2581.37 3.51708 -3.89103 0
M  V30 28502 H 2582.84 4.78807 -2.74677 0
M  V30 28503 H 2583.32 4.24117 -1.14112 0
M  V30 28504 H 2583.93 3.3836 -2.57668 0
M  V30 28505 N 2582.24 1.18909 1.03433 0
M  V30 28506 C 2583.49 0.986413 1.76392 0
M  V30 28507 C 2583.81 -0.484534 1.88884 0
M  V30 28508 O 2583.08 -1.35117 1.41846 0
M  V30 28509 H 2581.66 0.361986 0.653433 0
M  V30 28510 H 2584.32 1.49705 1.24797 0
M  V30 28511 H 2583.42 1.42982 2.77421 0
M  V30 28512 N 2583.72 -1.22452 0.992137 0
M  V30 28513 C 2584.67 -2.26371 0.534683 0
M  V30 28514 C 2585.66 -1.64257 -0.414264 0
M  V30 28515 O 2586.87 -1.77699 -0.286868 0
M  V30 28516 H 2583.24 -0.735954 0.154515 0
M  V30 28517 H 2585.21 -2.62306 1.4226 0
M  V30 28518 C 2583.96 -3.47435 -0.135754 0
M  V30 28519 H 2583.28 -3.95491 0.585381 0
M  V30 28520 H 2584.72 -4.21922 -0.4193 0
M  V30 28521 C 2583.18 -3.0775 -1.37083 0
M  V30 28522 O 2583.71 -3.1708 -2.46623 0
M  V30 28523 N 2581.92 -2.62542 -1.2458 0
M  V30 28524 H 2581.47 -2.55149 -0.354497 0
M  V30 28525 H 2581.42 -2.36357 -2.07323 0
M  V30 28526 N 2585.2 -0.765242 -1.37774 0
M  V30 28527 C 2586.45 -0.323342 -1.99091 0
M  V30 28528 C 2586.76 1.10444 -1.61436 0
M  V30 28529 O 2587.96 1.64739 -2.15808 0
M  V30 28530 C 2586.42 -0.52716 -3.56018 0
M  V30 28531 C 2586.03 -1.96478 -4.02617 0
M  V30 28532 C 2587.77 -0.148557 -4.2424 0
M  V30 28533 C 2585.68 -2.11654 -5.52229 0
M  V30 28534 H 2584.61 -0.11715 -0.744844 0
M  V30 28535 H 2587.26 -0.943444 -1.57389 0
M  V30 28536 H 2585.64 0.162303 -3.95667 0
M  V30 28537 H 2586.82 -2.68866 -3.74229 0
M  V30 28538 H 2585.13 -2.29937 -3.47157 0
M  V30 28539 H 2587.73 -0.24055 -5.34159 0
M  V30 28540 H 2588.07 0.900351 -4.06447 0
M  V30 28541 H 2588.6 -0.790318 -3.8987 0
M  V30 28542 H 2585.34 -3.1484 -5.7494 0
M  V30 28543 H 2584.86 -1.43741 -5.82322 0
M  V30 28544 H 2586.54 -1.91203 -6.18102 0
M  V30 28545 N 2586.67 1.48939 -0.515251 0
M  V30 28546 C 2587.92 2.02086 0.0241316 0
M  V30 28547 C 2588.24 1.39593 1.36157 0
M  V30 28548 O 2587.51 0.556154 1.8784 0
M  V30 28549 H 2586.09 0.746905 0.0119072 0
M  V30 28550 H 2588.76 1.82811 -0.675734 0
M  V30 28551 H 2587.85 3.11771 0.143331 0
M  V30 28552 N 2588.15 0.249709 1.55609 0
M  V30 28553 C 2589.09 -0.681457 2.18835 0
M  V30 28554 C 2590.1 -1.13667 1.16548 0
M  V30 28555 O 2591.29 -1.06296 1.43399 0
M  V30 28556 C 2588.39 -1.93835 2.77995 0
M  V30 28557 C 2587.56 -1.63412 4.05728 0
M  V30 28558 C 2586.62 -2.74088 4.49179 0
M  V30 28559 O 2585.65 -2.41355 5.15496 0
M  V30 28560 N 2586.85 -4.03641 4.17198 0
M  V30 28561 H 2589.61 -0.140461 2.99371 0
M  V30 28562 H 2587.17 0.0697826 1.6175 0
M  V30 28563 H 2589.17 -2.67122 3.0402 0
M  V30 28564 H 2587.74 -2.38906 2.016 0
M  V30 28565 H 2586.96 -0.73629 3.87263 0
M  V30 28566 H 2588.24 -1.40553 4.89001 0
M  V30 28567 H 2587.64 -4.33067 3.63963 0
M  V30 28568 H 2586.2 -4.73385 4.48052 0
M  V30 28569 N 2589.63 -1.57583 -0.0233682 0
M  V30 28570 C 2590.54 -2.10336 -1.03904 0
M  V30 28571 C 2591.56 -1.04326 -1.39256 0
M  V30 28572 O 2592.73 -1.36094 -1.4846 0
M  V30 28573 C 2589.8 -2.57697 -2.31933 0
M  V30 28574 C 2588.86 -3.78213 -2.0311 0
M  V30 28575 C 2588.09 -4.23306 -3.25036 0
M  V30 28576 O 2588.32 -3.67884 -4.3591 0
M  V30 28577 O 2587.25 -5.15688 -3.10402 0
M  V30 28578 H 2591.08 -2.9729 -0.620695 0
M  V30 28579 H 2588.66 -1.47448 -0.240717 0
M  V30 28580 H 2590.54 -2.88464 -3.07191 0
M  V30 28581 H 2589.22 -1.73852 -2.73052 0
M  V30 28582 H 2588.12 -3.52456 -1.25402 0
M  V30 28583 H 2589.46 -4.63059 -1.66844 0
M  V30 28584 N 2591.11 0.29574 -1.548 0
M  V30 28585 C 2592.53 0.641697 -1.46131 0
M  V30 28586 C 2592.73 1.90495 -0.656805 0
M  V30 28587 O 2591.78 2.5195 -0.166591 0
M  V30 28588 C 2593.09 0.789801 -2.90142 0
M  V30 28589 C 2594.64 0.885343 -3.00218 0
M  V30 28590 C 2595.12 1.0654 -4.45436 0
M  V30 28591 N 2596.61 1.13148 -4.49168 0
M  V30 28592 C 2597.34 1.28919 -5.58719 0
M  V30 28593 N 2596.84 1.41555 -6.78184 0
M  V30 28594 N 2598.63 1.31849 -5.46418 0
M  V30 28595 H 2590.78 -0.534183 -2.05573 0
M  V30 28596 H 2593.05 -0.177389 -0.931256 0
M  V30 28597 H 2592.75 -0.0676217 -3.51635 0
M  V30 28598 H 2592.63 1.67718 -3.37862 0
M  V30 28599 H 2595.01 1.73325 -2.38836 0
M  V30 28600 H 2595.09 -0.0261635 -2.55787 0
M  V30 28601 H 2594.74 0.222246 -5.07414 0
M  V30 28602 H 2594.67 1.99121 -4.87502 0
M  V30 28603 H 2597.16 1.04715 -3.63102 0
M  V30 28604 H 2597.47 1.53359 -7.5743 0
M  V30 28605 H 2595.82 1.38601 -6.8104 0
M  V30 28606 H 2599.01 1.21593 -4.52032 0
M  V30 28607 H 2599.18 1.43797 -6.31844 0
M  V30 28608 N 2592.59 1.47346 0.559187 0
M  V30 28609 C 2593.83 1.54097 1.3184 0
M  V30 28610 C 2594.17 0.20176 1.93149 0
M  V30 28611 O 2593.44 -0.789397 1.7776 0
M  V30 28612 C 2593.72 2.65749 2.43001 0
M  V30 28613 C 2593.58 4.0928 1.86574 0
M  V30 28614 C 2594.9 2.73324 3.44938 0
M  V30 28615 H 2592.02 0.560966 0.478002 0
M  V30 28616 H 2594.66 1.79393 0.625945 0
M  V30 28617 H 2592.81 2.44311 3.02067 0
M  V30 28618 H 2594.48 4.42075 1.31784 0
M  V30 28619 H 2592.72 4.17651 1.17261 0
M  V30 28620 H 2593.39 4.83172 2.66924 0
M  V30 28621 H 2595.87 2.92659 2.95787 0
M  V30 28622 H 2594.75 3.53225 4.20147 0
M  V30 28623 H 2595.01 1.80304 4.03662 0
M  V30 28624 N 2594.07 -0.805758 1.35445 0
M  V30 28625 C 2595.34 -1.54985 1.19328 0
M  V30 28626 C 2595.72 -2.09873 -0.227257 0
M  V30 28627 O 2595.07 -1.92514 -1.23087 0
M  V30 28628 C 2595.28 -2.65771 2.262 0
M  V30 28629 C 2596.63 -3.34089 2.62049 0
M  V30 28630 O 2597.65 -2.76042 2.2512 0
M  V30 28631 O 2596.51 -4.38953 3.2555 0
M  V30 28632 H 2593.61 -0.684815 0.463635 0
M  V30 28633 H 2596.15 -0.845648 1.47129 0
M  V30 28634 H 2594.92 -2.2309 3.21475 0
M  V30 28635 H 2594.55 -3.43826 1.99673 0
M  V30 28636 N 2595.54 -1.19456 -1.02801 0
M  V30 28637 C 2596.77 -1.023 -1.7984 0
M  V30 28638 C 2597.19 0.428227 -1.83879 0
M  V30 28639 O 2596.54 1.29743 -1.28347 0
M  V30 28640 C 2596.59 -1.58604 -3.24849 0
M  V30 28641 O 2596.32 -2.98046 -3.21092 0
M  V30 28642 C 2597.82 -1.46243 -4.18483 0
M  V30 28643 H 2595.04 -0.360506 -0.56593 0
M  V30 28644 H 2597.58 -1.58291 -1.29477 0
M  V30 28645 H 2595.74 -1.0676 -3.72399 0
M  V30 28646 H 2596.15 -3.24552 -4.12027 0
M  V30 28647 H 2597.62 -1.90417 -5.18117 0
M  V30 28648 H 2598.1 -0.413087 -4.37253 0
M  V30 28649 H 2598.71 -1.97222 -3.76807 0
M  V30 28650 N 2597.02 1.21924 -0.998617 0
M  V30 28651 C 2598.27 1.91106 -0.678701 0
M  V30 28652 C 2598.6 1.775 0.787879 0
M  V30 28653 O 2597.88 1.14753 1.57041 0
M  V30 28654 C 2598.16 3.43127 -1.09251 0
M  V30 28655 C 2598.01 3.65756 -2.61807 0
M  V30 28656 C 2599.33 4.35273 -0.650061 0
M  V30 28657 H 2596.45 0.694008 -0.248037 0
M  V30 28658 H 2599.09 1.43686 -1.24316 0
M  V30 28659 H 2597.24 3.83646 -0.612238 0
M  V30 28660 H 2598.91 3.34605 -3.17549 0
M  V30 28661 H 2597.16 3.0984 -3.03614 0
M  V30 28662 H 2597.83 4.72245 -2.85813 0
M  V30 28663 H 2600.3 4.02301 -1.06267 0
M  V30 28664 H 2599.18 5.403 -0.967838 0
M  V30 28665 H 2599.44 4.39813 0.449061 0
M  V30 28666 N 2598.5 0.772537 1.37367 0
M  V30 28667 C 2599.45 0.147152 2.32134 0
M  V30 28668 C 2600.44 -0.684079 1.54973 0
M  V30 28669 O 2601.65 -0.581053 1.70364 0
M  V30 28670 H 2598.02 0.0287992 0.751448 0
M  V30 28671 H 2599.99 0.962162 2.82462 0
M  V30 28672 C 2598.74 -0.716971 3.40228 0
M  V30 28673 H 2598.07 -0.0867249 3.99706 0
M  V30 28674 H 2599.51 -1.12151 4.08899 0
M  V30 28675 C 2597.96 -1.86792 2.80375 0
M  V30 28676 O 2598.49 -2.96344 2.71188 0
M  V30 28677 N 2596.7 -1.66878 2.37907 0
M  V30 28678 H 2596.25 -0.777716 2.4558 0
M  V30 28679 H 2596.21 -2.44053 1.98206 0
M  V30 28680 N 2599.98 -1.48664 0.523142 0
M  V30 28681 C 2600.93 -2.26477 -0.263066 0
M  V30 28682 C 2601.91 -1.32282 -0.915982 0
M  V30 28683 O 2603.1 -1.56864 -0.819919 0
M  V30 28684 C 2600.23 -3.17176 -1.31356 0
M  V30 28685 C 2599.32 -4.18842 -0.665775 0
M  V30 28686 N 2599.71 -5.05209 0.244522 0
M  V30 28687 C 2598.01 -4.36328 -0.923787 0
M  V30 28688 C 2598.71 -5.78413 0.617545 0
M  V30 28689 N 2597.68 -5.43596 -0.0197731 0
M  V30 28690 H 2601.49 -2.90628 0.437346 0
M  V30 28691 H 2599 -1.58786 0.340703 0
M  V30 28692 H 2601 -3.71574 -1.89045 0
M  V30 28693 H 2599.66 -2.5458 -2.01542 0
M  V30 28694 H 2600.67 -5.14215 0.616712 0
M  V30 28695 H 2597.35 -3.84926 -1.61673 0
M  V30 28696 H 2598.74 -6.57918 1.36357 0
M  V30 28697 N 2601.46 -0.257958 -1.55475 0
M  V30 28698 C 2602.39 0.630873 -2.24816 0
M  V30 28699 C 2603.37 1.17257 -1.23226 0
M  V30 28700 O 2604.55 1.20988 -1.51906 0
M  V30 28701 C 2601.68 1.82293 -2.95612 0
M  V30 28702 C 2600.64 1.41352 -4.03985 0
M  V30 28703 C 2599.96 2.6873 -4.62264 0
M  V30 28704 C 2601.26 0.576389 -5.1911 0
M  V30 28705 H 2602.96 0.0526351 -2.99354 0
M  V30 28706 H 2600.5 0.0238757 -1.4398 0
M  V30 28707 H 2602.45 2.45047 -3.42826 0
M  V30 28708 H 2601.18 2.42672 -2.18581 0
M  V30 28709 H 2599.84 0.809261 -3.57556 0
M  V30 28710 H 2599.49 3.27331 -3.81921 0
M  V30 28711 H 2599.19 2.42055 -5.35428 0
M  V30 28712 H 2600.71 3.32363 -5.12218 0
M  V30 28713 H 2602.12 1.10851 -5.62481 0
M  V30 28714 H 2600.52 0.405246 -5.9873 0
M  V30 28715 H 2601.59 -0.408861 -4.83173 0
M  V30 28716 N 2602.93 1.57593 0.0150108 0
M  V30 28717 C 2603.9 2.0643 0.99596 0
M  V30 28718 C 2604.9 0.970926 1.28178 0
M  V30 28719 O 2606.09 1.23409 1.22947 0
M  V30 28720 C 2603.22 2.49311 2.32502 0
M  V30 28721 H 2604.41 2.94359 0.573822 0
M  V30 28722 H 2601.97 1.54086 0.262159 0
M  V30 28723 H 2602.7 1.6458 2.79435 0
M  V30 28724 H 2602.49 3.29149 2.13081 0
M  V30 28725 H 2603.98 2.87473 3.02901 0
M  V30 28726 N 2604.41 -0.287527 1.54955 0
M  V30 28727 C 2605.69 -1.04143 1.6557 0
M  V30 28728 C 2606.07 -2.04779 0.512708 0
M  V30 28729 O 2605.42 -2.23206 -0.488999 0
M  V30 28730 C 2605.63 -1.71125 3.04166 0
M  V30 28731 C 2606.98 -2.22826 3.61433 0
M  V30 28732 O 2608 -1.81136 3.06705 0
M  V30 28733 O 2606.86 -2.99252 4.57286 0
M  V30 28734 H 2603.95 -0.482176 0.671889 0
M  V30 28735 H 2606.5 -0.284541 1.67298 0
M  V30 28736 H 2605.27 -0.981236 3.78797 0
M  V30 28737 H 2604.89 -2.53537 3.06275 0
M  V30 28738 N 2605.89 -1.47641 -0.551365 0
M  V30 28739 C 2606.8 -1.6321 -1.68522 0
M  V30 28740 C 2607.82 -0.514844 -1.66209 0
M  V30 28741 O 2608.99 -0.783146 -1.8555 0
M  V30 28742 C 2606.06 -1.64811 -3.05022 0
M  V30 28743 C 2605.12 -2.88005 -3.18357 0
M  V30 28744 C 2604.35 -2.89521 -4.48345 0
M  V30 28745 O 2604.57 -2.00074 -5.3416 0
M  V30 28746 O 2603.51 -3.81451 -4.65595 0
M  V30 28747 H 2607.33 -2.59163 -1.58329 0
M  V30 28748 H 2604.92 -1.30794 -0.72204 0
M  V30 28749 H 2606.8 -1.68509 -3.86242 0
M  V30 28750 H 2605.48 -0.720252 -3.15585 0
M  V30 28751 H 2604.38 -2.89849 -2.36513 0
M  V30 28752 H 2605.72 -3.80104 -3.127 0
M  V30 28753 N 2607.37 0.798563 -1.3587 0
M  V30 28754 C 2608.3 1.92526 -1.32121 0
M  V30 28755 C 2609.28 1.68987 -0.194239 0
M  V30 28756 O 2610.46 1.90234 -0.39046 0
M  V30 28757 C 2607.59 3.29402 -1.10053 0
M  V30 28758 C 2606.55 3.67442 -2.19477 0
M  V30 28759 C 2605.87 5.02568 -1.82564 0
M  V30 28760 C 2607.17 3.7698 -3.61501 0
M  V30 28761 H 2608.87 1.9592 -2.26397 0
M  V30 28762 H 2606.41 0.941211 -1.08983 0
M  V30 28763 H 2608.37 4.07833 -1.06068 0
M  V30 28764 H 2607.09 3.26371 -0.122252 0
M  V30 28765 H 2605.75 2.91302 -2.22573 0
M  V30 28766 H 2605.4 4.96049 -0.833336 0
M  V30 28767 H 2605.1 5.2899 -2.55819 0
M  V30 28768 H 2606.62 5.83429 -1.80118 0
M  V30 28769 H 2608.04 4.45624 -3.60683 0
M  V30 28770 H 2606.43 4.14879 -4.33584 0
M  V30 28771 H 2607.5 2.78322 -3.9707 0
M  V30 28772 N 2608.85 1.19999 1.02166 0
M  V30 28773 C 2610.1 1.00133 1.7509 0
M  V30 28774 C 2610.41 -0.467802 1.89924 0
M  V30 28775 O 2611.61 -0.785469 2.5989 0
M  V30 28776 C 2610.07 1.74279 3.14889 0
M  V30 28777 C 2609.68 3.25251 3.08084 0
M  V30 28778 C 2611.42 1.62762 3.92057 0
M  V30 28779 C 2609.33 3.91956 4.4286 0
M  V30 28780 H 2608.26 0.371041 0.656387 0
M  V30 28781 H 2610.91 1.43569 1.14281 0
M  V30 28782 H 2609.29 1.23627 3.76208 0
M  V30 28783 H 2610.47 3.83077 2.56103 0
M  V30 28784 H 2608.78 3.37124 2.4441 0
M  V30 28785 H 2611.38 2.09943 4.9176 0
M  V30 28786 H 2611.72 0.582966 4.12198 0
M  V30 28787 H 2612.25 2.10799 3.37355 0
M  V30 28788 H 2608.99 4.96551 4.27923 0
M  V30 28789 H 2608.51 3.38918 4.94868 0
M  V30 28790 H 2610.19 3.95918 5.11721 0
M  V30 28791 N 2610.32 -1.21392 1.00507 0
M  V30 28792 C 2611.27 -2.25791 0.558663 0
M  V30 28793 C 2612.27 -1.64687 -0.396819 0
M  V30 28794 O 2613.47 -1.77994 -0.268004 0
M  V30 28795 H 2609.85 -0.734274 0.162313 0
M  V30 28796 H 2611.82 -2.60783 1.45034 0
M  V30 28797 C 2610.57 -3.47559 -0.0988963 0
M  V30 28798 H 2609.89 -3.94848 0.627295 0
M  V30 28799 H 2611.33 -4.22343 -0.374526 0
M  V30 28800 C 2609.79 -3.09186 -1.33811 0
M  V30 28801 O 2610.32 -3.19678 -2.43246 0
M  V30 28802 N 2608.53 -2.63848 -1.21789 0
M  V30 28803 H 2608.07 -2.55511 -0.327415 0
M  V30 28804 H 2608.03 -2.38542 -2.04805 0
M  V30 28805 N 2611.8 -0.779811 -1.36955 0
M  V30 28806 C 2613.03 -0.35826 -2.04282 0
M  V30 28807 C 2613.45 1.01408 -1.58423 0
M  V30 28808 O 2612.81 1.65141 -0.748208 0
M  V30 28809 C 2612.86 -0.419542 -3.58151 0
M  V30 28810 O 2611.96 0.57707 -4.08343 0
M  V30 28811 H 2611.3 -0.15371 -0.645964 0
M  V30 28812 H 2613.83 -1.05825 -1.75106 0
M  V30 28813 H 2613.84 -0.279707 -4.0704 0
M  V30 28814 H 2612.52 -1.42068 -3.90883 0
M  V30 28815 H 2611.1 0.39969 -3.70752 0
M  V30 28816 N 2613.28 1.48384 -0.531019 0
M  V30 28817 C 2614.53 2.021 0.00269637 0
M  V30 28818 C 2614.85 1.41029 1.34669 0
M  V30 28819 O 2614.12 0.576045 1.87239 0
M  V30 28820 H 2612.7 0.746989 0.00398461 0
M  V30 28821 H 2615.36 1.82084 -0.695086 0
M  V30 28822 H 2614.46 3.11905 0.110255 0
M  V30 28823 N 2614.76 0.2662 1.55336 0
M  V30 28824 C 2615.71 -0.639459 2.18849 0
M  V30 28825 C 2616.69 -1.12501 1.15032 0
M  V30 28826 O 2617.88 -1.07157 1.40877 0
M  V30 28827 C 2615.01 -1.82728 2.90629 0
M  V30 28828 C 2614.1 -1.35932 4.01725 0
M  V30 28829 N 2614.49 -0.6069 5.02146 0
M  V30 28830 C 2612.79 -1.64302 4.14633 0
M  V30 28831 C 2613.49 -0.362036 5.80572 0
M  V30 28832 N 2612.47 -0.931877 5.35553 0
M  V30 28833 H 2616.27 -0.0566541 2.93845 0
M  V30 28834 H 2613.78 0.0693597 1.62252 0
M  V30 28835 H 2615.78 -2.48729 3.34573 0
M  V30 28836 H 2614.44 -2.41412 2.17141 0
M  V30 28837 H 2615.45 -0.255107 5.17271 0
M  V30 28838 H 2612.13 -2.23987 3.5233 0
M  V30 28839 H 2613.52 0.239966 6.71471 0
M  V30 28840 N 2616.24 -1.57599 -0.0066531 0
M  V30 28841 C 2617.46 -1.94952 -0.707704 0
M  V30 28842 C 2617.89 -0.867897 -1.66881 0
M  V30 28843 O 2617.24 0.174548 -1.80458 0
M  V30 28844 C 2617.29 -3.31397 -1.42157 0
M  V30 28845 O 2616.4 -3.2523 -2.53573 0
M  V30 28846 H 2615.74 -0.636611 -0.18874 0
M  V30 28847 H 2618.27 -2.04551 0.0445552 0
M  V30 28848 H 2618.28 -3.66809 -1.78649 0
M  V30 28849 H 2616.95 -4.09676 -0.716831 0
M  V30 28850 H 2615.53 -3.01484 -2.19457 0
M  V30 28851 N 2617.72 0.279305 -1.55105 0
M  V30 28852 C 2618.99 1.03264 -1.6612 0
M  V30 28853 C 2619.37 2.04504 -0.523561 0
M  V30 28854 O 2618.72 2.23462 0.477155 0
M  V30 28855 C 2618.93 1.6951 -3.0507 0
M  V30 28856 C 2620.28 2.20906 -3.6261 0
M  V30 28857 O 2621.3 1.79507 -3.07662 0
M  V30 28858 O 2620.16 2.96823 -4.58867 0
M  V30 28859 H 2617.26 0.478606 -0.674437 0
M  V30 28860 H 2619.8 0.275664 -1.67446 0
M  V30 28861 H 2618.57 0.961134 -3.79312 0
M  V30 28862 H 2618.2 2.51909 -3.07616 0
M  V30 28863 N 2619.19 1.47931 0.543528 0
M  V30 28864 C 2620.16 1.60978 1.63153 0
M  V30 28865 C 2621.16 0.483926 1.53345 0
M  V30 28866 O 2622.35 0.749366 1.57258 0
M  V30 28867 C 2619.48 1.56721 3.0274 0
M  V30 28868 H 2620.67 2.57978 1.52929 0
M  V30 28869 H 2618.22 1.36325 0.764533 0
M  V30 28870 H 2618.96 0.611474 3.18483 0
M  V30 28871 H 2618.74 2.38443 3.11267 0
M  V30 28872 H 2620.23 1.69017 3.81868 0
M  V30 28873 N 2620.67 -0.791347 1.36292 0
M  V30 28874 C 2621.63 -1.88551 1.30312 0
M  V30 28875 C 2622.63 -1.59407 0.211232 0
M  V30 28876 O 2623.82 -1.67854 0.465895 0
M  V30 28877 C 2620.96 -3.25295 1.01961 0
M  V30 28878 H 2622.15 -1.95269 2.27618 0
M  V30 28879 H 2619.7 -0.988932 1.21037 0
M  V30 28880 H 2620.44 -3.2426 0.051055 0
M  V30 28881 H 2620.22 -3.47837 1.80974 0
M  V30 28882 H 2621.71 -4.05357 1.00377 0
M  V30 28883 N 2622.15 -1.2054 -1.01528 0
M  V30 28884 C 2623.38 -1.04202 -1.78744 0
M  V30 28885 C 2623.79 0.4087 -1.84323 0
M  V30 28886 O 2623.15 1.28374 -1.29716 0
M  V30 28887 C 2623.2 -1.6204 -3.23149 0
M  V30 28888 O 2622.92 -3.01435 -3.17913 0
M  V30 28889 C 2624.42 -1.50673 -4.16908 0
M  V30 28890 H 2621.64 -0.366488 -0.562074 0
M  V30 28891 H 2624.19 -1.59655 -1.27791 0
M  V30 28892 H 2622.34 -1.10704 -3.71246 0
M  V30 28893 H 2622.76 -3.28904 -4.08561 0
M  V30 28894 H 2624.23 -1.95901 -5.16069 0
M  V30 28895 H 2624.71 -0.45944 -4.3679 0
M  V30 28896 H 2625.31 -2.01207 -3.74694 0
M  V30 28897 N 2623.63 1.20858 -1.01149 0
M  V30 28898 C 2624.88 1.89412 -0.693247 0
M  V30 28899 C 2625.19 1.79378 0.779937 0
M  V30 28900 O 2626.4 2.43019 1.21053 0
M  V30 28901 C 2624.85 3.39673 -1.18955 0
M  V30 28902 C 2624.46 3.58304 -2.68927 0
M  V30 28903 C 2626.2 4.13814 -0.946492 0
M  V30 28904 C 2624.11 5.02364 -3.12065 0
M  V30 28905 H 2623.04 0.709352 -0.255608 0
M  V30 28906 H 2625.69 1.36757 -1.22351 0
M  V30 28907 H 2624.07 3.91621 -0.587297 0
M  V30 28908 H 2625.25 3.16766 -3.34658 0
M  V30 28909 H 2623.56 2.97527 -2.91319 0
M  V30 28910 H 2626.16 5.20021 -1.24426 0
M  V30 28911 H 2626.5 4.16135 0.117146 0
M  V30 28912 H 2627.04 3.67951 -1.51186 0
M  V30 28913 H 2623.77 5.05194 -4.17683 0
M  V30 28914 H 2623.29 5.44733 -2.51051 0
M  V30 28915 H 2624.97 5.70913 -3.04413 0
M  V30 28916 N 2625.11 0.787064 1.3654 0
M  V30 28917 C 2626.07 0.189818 2.28413 0
M  V30 28918 C 2627.07 -0.611473 1.4872 0
M  V30 28919 O 2628.26 -0.432813 1.68738 0
M  V30 28920 C 2625.39 -0.73758 3.32825 0
M  V30 28921 H 2626.58 0.999881 2.82741 0
M  V30 28922 H 2624.14 0.556324 1.46064 0
M  V30 28923 H 2624.87 -1.57207 2.83648 0
M  V30 28924 H 2624.66 -0.164975 3.91753 0
M  V30 28925 H 2626.15 -1.1504 4.01442 0
M  V30 28926 N 2626.58 -1.48101 0.53888 0
M  V30 28927 C 2627.49 -2.33541 -0.222607 0
M  V30 28928 C 2628.51 -1.47049 -0.930199 0
M  V30 28929 O 2629.69 -1.80013 -0.903179 0
M  V30 28930 C 2626.75 -3.23359 -1.25059 0
M  V30 28931 C 2625.81 -4.25731 -0.552394 0
M  V30 28932 C 2625.04 -5.11257 -1.5314 0
M  V30 28933 O 2625.27 -4.98915 -2.76478 0
M  V30 28934 O 2624.2 -5.92387 -1.06592 0
M  V30 28935 H 2628.03 -2.99919 0.477759 0
M  V30 28936 H 2625.61 -1.46363 0.299695 0
M  V30 28937 H 2627.49 -3.78891 -1.84444 0
M  V30 28938 H 2626.17 -2.59632 -1.9332 0
M  V30 28939 H 2625.08 -3.7401 0.0821798 0
M  V30 28940 H 2626.41 -4.92121 0.0884391 0
M  V30 28941 N 2628.06 -0.274434 -1.55192 0
M  V30 28942 C 2629.31 0.336044 -2.00605 0
M  V30 28943 C 2629.66 1.53536 -1.1595 0
M  V30 28944 O 2628.96 1.90316 -0.221419 0
M  V30 28945 C 2629.15 0.769397 -3.4902 0
M  V30 28946 C 2628.98 -0.386379 -4.48037 0
M  V30 28947 C 2627.75 -0.869942 -4.97755 0
M  V30 28948 C 2629.95 -1.22263 -4.99556 0
M  V30 28949 N 2627.93 -1.99525 -5.80571 0
M  V30 28950 C 2629.3 -2.19585 -5.79812 0
M  V30 28951 C 2631.35 -1.25605 -4.81796 0
M  V30 28952 C 2630.06 -3.19993 -6.44203 0
M  V30 28953 C 2632.08 -2.24857 -5.46986 0
M  V30 28954 C 2631.45 -3.20912 -6.27053 0
M  V30 28955 H 2627.54 0.0881583 -0.777015 0
M  V30 28956 H 2630.13 -0.3983 -1.90582 0
M  V30 28957 H 2628.3 1.47297 -3.59386 0
M  V30 28958 H 2630.03 1.35715 -3.81266 0
M  V30 28959 H 2626.79 -0.449363 -4.71463 0
M  V30 28960 H 2627.21 -2.56151 -6.2667 0
M  V30 28961 H 2631.85 -0.527231 -4.195 0
M  V30 28962 H 2629.57 -3.93809 -7.05649 0
M  V30 28963 H 2633.16 -2.28184 -5.35185 0
M  V30 28964 H 2632.04 -3.96456 -6.76603 0
M  V30 28965 N 2629.54 1.576 -0.00170483 0
M  V30 28966 C 2630.49 2.08529 0.989158 0
M  V30 28967 C 2631.46 0.981088 1.34029 0
M  V30 28968 O 2632.64 1.25362 1.43837 0
M  V30 28969 C 2629.78 2.59467 2.27532 0
M  V30 28970 C 2628.89 3.83795 1.98307 0
M  V30 28971 C 2628.03 4.23227 3.21017 0
M  V30 28972 C 2627.07 5.40387 2.87486 0
M  V30 28973 N 2626.21 5.75105 4.02739 0
M  V30 28974 H 2631.05 2.92919 0.547921 0
M  V30 28975 H 2628.58 1.44804 0.258891 0
M  V30 28976 H 2630.54 2.87079 3.02724 0
M  V30 28977 H 2629.17 1.77948 2.69322 0
M  V30 28978 H 2628.22 3.6308 1.13476 0
M  V30 28979 H 2629.53 4.69084 1.69593 0
M  V30 28980 H 2628.69 4.5213 4.04553 0
M  V30 28981 H 2627.43 3.3665 3.52871 0
M  V30 28982 H 2626.43 5.11206 2.02358 0
M  V30 28983 H 2627.66 6.28642 2.56878 0
M  V30 28984 H 2625.6 4.91486 4.34485 0
M  V30 28985 H 2625.52 6.54972 3.77554 0
M  V30 28986 H 2626.79 6.08601 4.87058 0
M  V30 28987 N 2631.02 -0.271076 1.55251 0
M  V30 28988 C 2632.29 -1.02381 1.66666 0
M  V30 28989 C 2632.67 -2.04224 0.534399 0
M  V30 28990 O 2632.02 -2.23712 -0.465298 0
M  V30 28991 C 2632.23 -1.67889 3.05964 0
M  V30 28992 C 2633.58 -2.1898 3.63776 0
M  V30 28993 O 2634.6 -1.77873 3.08609 0
M  V30 28994 O 2633.46 -2.94385 4.60434 0
M  V30 28995 H 2630.56 -0.475023 0.676966 0
M  V30 28996 H 2633.1 -0.26678 1.6759 0
M  V30 28997 H 2631.88 -0.941004 3.79817 0
M  V30 28998 H 2631.5 -2.50274 3.08947 0
M  V30 28999 N 2632.5 -1.48217 -0.535675 0
M  V30 29000 C 2633.74 -1.55636 -1.28925 0
M  V30 29001 C 2634.07 -0.229548 -1.93644 0
M  V30 29002 O 2633.34 0.748428 -1.8104 0
M  V30 29003 H 2631.92 -0.573351 -0.47883 0
M  V30 29004 H 2634.58 -1.84647 -0.623821 0
M  V30 29005 H 2633.67 -2.3344 -2.07153 0
M  V30 29006 N 2633.97 0.784108 -1.3671 0
M  V30 29007 C 2634.9 1.91114 -1.34156 0
M  V30 29008 C 2635.89 1.68772 -0.212151 0
M  V30 29009 O 2637.07 1.89809 -0.410615 0
M  V30 29010 C 2634.2 3.28216 -1.13541 0
M  V30 29011 C 2633.15 3.65094 -2.23362 0
M  V30 29012 C 2632.48 5.00603 -1.87884 0
M  V30 29013 C 2633.78 3.73125 -3.65479 0
M  V30 29014 H 2635.47 1.93508 -2.28463 0
M  V30 29015 H 2633.02 0.929599 -1.09975 0
M  V30 29016 H 2634.97 4.06685 -1.10388 0
M  V30 29017 H 2633.7 3.26223 -0.156861 0
M  V30 29018 H 2632.36 2.88925 -2.2565 0
M  V30 29019 H 2632 4.95137 -0.885902 0
M  V30 29020 H 2631.7 5.26247 -2.61415 0
M  V30 29021 H 2633.23 5.81486 -1.86296 0
M  V30 29022 H 2634.64 4.41773 -3.6539 0
M  V30 29023 H 2633.04 4.10257 -4.3796 0
M  V30 29024 H 2634.11 2.74095 -4 0
M  V30 29025 N 2635.45 1.21076 1.00888 0
M  V30 29026 C 2636.4 0.963513 2.11705 0
M  V30 29027 C 2637.39 -0.0878734 1.69172 0
M  V30 29028 O 2638.6 0.0631731 1.79889 0
M  V30 29029 H 2634.98 0.294299 0.69202 0
M  V30 29030 H 2636.95 1.90426 2.2974 0
M  V30 29031 C 2635.7 0.54057 3.43472 0
M  V30 29032 H 2635.02 1.34121 3.76632 0
M  V30 29033 H 2636.46 0.406851 4.22044 0
M  V30 29034 C 2634.92 -0.748021 3.28491 0
M  V30 29035 O 2635.45 -1.80453 3.58886 0
M  V30 29036 N 2633.65 -0.713032 2.81717 0
M  V30 29037 H 2633.2 0.147018 2.5718 0
M  V30 29038 H 2633.16 -1.57553 2.72074 0
M  V30 29039 N 2636.93 -1.2032 1.01789 0
M  V30 29040 C 2637.84 -2.26826 0.598938 0
M  V30 29041 C 2638.86 -1.70147 -0.36415 0
M  V30 29042 O 2640.03 -2.00142 -0.224777 0
M  V30 29043 C 2637.1 -3.46657 -0.054916 0
M  V30 29044 C 2636.16 -4.18559 0.954279 0
M  V30 29045 C 2635.39 -5.32669 0.331533 0
M  V30 29046 O 2635.61 -5.63751 -0.868411 0
M  V30 29047 O 2634.55 -5.9269 1.0489 0
M  V30 29048 H 2638.37 -2.6488 1.48567 0
M  V30 29049 H 2635.96 -1.26963 0.787456 0
M  V30 29050 H 2637.84 -4.19301 -0.420028 0
M  V30 29051 H 2636.52 -3.10474 -0.915822 0
M  V30 29052 H 2635.42 -3.48081 1.37078 0
M  V30 29053 H 2636.76 -4.58685 1.78519 0
M  V30 29054 N 2638.41 -0.794293 -1.3612 0
M  V30 29055 C 2639.37 -0.201929 -2.28309 0
M  V30 29056 C 2640.37 0.603577 -1.49042 0
M  V30 29057 O 2641.56 0.423858 -1.68965 0
M  V30 29058 C 2638.69 0.719919 -3.33212 0
M  V30 29059 H 2639.89 -1.01486 -2.82207 0
M  V30 29060 H 2637.44 -0.564062 -1.45767 0
M  V30 29061 H 2638.17 1.55701 -2.84478 0
M  V30 29062 H 2637.96 0.144197 -3.91835 0
M  V30 29063 H 2639.45 1.12909 -4.02046 0
M  V30 29064 N 2639.89 1.47813 -0.546727 0
M  V30 29065 C 2641.13 2.03382 -0.0269952 0
M  V30 29066 C 2641.49 1.41466 1.30403 0
M  V30 29067 O 2640.78 0.557183 1.83319 0
M  V30 29068 C 2640.97 3.57146 0.134807 0
M  V30 29069 C 2640.8 4.3397 -1.17899 0
M  V30 29070 C 2639.57 4.7427 -1.74344 0
M  V30 29071 C 2641.77 4.69754 -2.09369 0
M  V30 29072 N 2639.75 5.35696 -2.99838 0
M  V30 29073 C 2641.12 5.31373 -3.19441 0
M  V30 29074 C 2643.18 4.51683 -2.09492 0
M  V30 29075 C 2641.88 5.7683 -4.2972 0
M  V30 29076 C 2643.91 4.98132 -3.18776 0
M  V30 29077 C 2643.27 5.59791 -4.27566 0
M  V30 29078 H 2639.37 0.780283 -0.0517871 0
M  V30 29079 H 2641.95 1.80428 -0.731705 0
M  V30 29080 H 2640.12 3.79889 0.808624 0
M  V30 29081 H 2641.86 3.99354 0.655656 0
M  V30 29082 H 2638.61 4.55898 -1.28273 0
M  V30 29083 H 2639.04 5.70961 -3.63775 0
M  V30 29084 H 2643.68 4.03379 -1.2667 0
M  V30 29085 H 2641.4 6.24132 -5.13308 0
M  V30 29086 H 2644.98 4.85928 -3.19945 0
M  V30 29087 H 2643.86 5.95079 -5.10735 0
M  V30 29088 N 2641.36 0.28266 1.55044 0
M  V30 29089 C 2642.33 -0.588501 2.21516 0
M  V30 29090 C 2643.33 -1.07552 1.19537 0
M  V30 29091 O 2644.52 -0.974489 1.44393 0
M  V30 29092 C 2641.65 -1.81275 2.88708 0
M  V30 29093 H 2642.84 -0.00801126 2.99899 0
M  V30 29094 H 2640.4 0.0333342 1.56264 0
M  V30 29095 H 2641.13 -2.43356 2.14356 0
M  V30 29096 H 2640.92 -1.47137 3.63446 0
M  V30 29097 H 2642.41 -2.43208 3.3947 0
M  V30 29098 N 2642.84 -1.57597 0.0100627 0
M  V30 29099 C 2644.12 -1.82249 -0.710264 0
M  V30 29100 C 2644.5 -0.889945 -1.91424 0
M  V30 29101 O 2643.85 0.0589891 -2.28424 0
M  V30 29102 C 2644.06 -3.30995 -1.1065 0
M  V30 29103 C 2645.41 -3.96989 -1.50614 0
M  V30 29104 O 2646.43 -3.35378 -1.20001 0
M  V30 29105 O 2645.29 -5.05543 -2.07578 0
M  V30 29106 H 2642.38 -0.750811 -0.346717 0
M  V30 29107 H 2644.93 -1.69661 0.0362876 0
M  V30 29108 H 2643.7 -3.90508 -0.248758 0
M  V30 29109 H 2643.32 -3.48619 -1.91183 0
M  V30 29110 N 2644.32 0.262839 -1.55393 0
M  V30 29111 C 2645.25 1.32913 -1.9198 0
M  V30 29112 C 2646.23 1.51016 -0.782826 0
M  V30 29113 O 2647.42 1.6389 -1.04181 0
M  V30 29114 C 2644.55 2.68684 -2.2006 0
M  V30 29115 C 2643.5 2.65298 -3.35858 0
M  V30 29116 C 2642.83 4.04715 -3.49442 0
M  V30 29117 C 2644.13 2.23677 -4.71981 0
M  V30 29118 H 2645.82 1.02539 -2.81293 0
M  V30 29119 H 2643.37 0.491823 -1.35341 0
M  V30 29120 H 2645.32 3.43399 -2.44243 0
M  V30 29121 H 2644.04 3.00661 -1.27556 0
M  V30 29122 H 2642.7 1.9304 -3.11659 0
M  V30 29123 H 2642.35 4.33932 -2.54386 0
M  V30 29124 H 2642.05 4.03342 -4.27304 0
M  V30 29125 H 2643.57 4.81155 -3.75929 0
M  V30 29126 H 2644.99 2.88118 -4.95642 0
M  V30 29127 H 2643.39 2.33446 -5.52832 0
M  V30 29128 H 2644.46 1.18819 -4.70117 0
M  V30 29129 N 2645.8 1.48499 0.527807 0
M  V30 29130 C 2646.73 1.6608 1.64133 0
M  V30 29131 C 2647.71 0.509653 1.62285 0
M  V30 29132 O 2648.89 0.742444 1.79447 0
M  V30 29133 C 2646.02 1.70239 3.02714 0
M  V30 29134 C 2644.98 2.84876 3.19421 0
M  V30 29135 C 2644.3 2.74126 4.59085 0
M  V30 29136 C 2645.6 4.26148 3.01986 0
M  V30 29137 H 2647.3 2.59302 1.49675 0
M  V30 29138 H 2644.84 1.24787 0.718632 0
M  V30 29139 H 2646.8 1.81126 3.80488 0
M  V30 29140 H 2645.52 0.735967 3.182 0
M  V30 29141 H 2644.18 2.73547 2.44065 0
M  V30 29142 H 2643.83 1.75448 4.7141 0
M  V30 29143 H 2643.53 3.51051 4.71208 0
M  V30 29144 H 2645.05 2.86984 5.38955 0
M  V30 29145 H 2646.47 4.38298 3.6955 0
M  V30 29146 H 2644.86 5.04088 3.25601 0
M  V30 29147 H 2645.93 4.42459 1.98388 0
M  V30 29148 N 2647.28 -0.776847 1.37123 0
M  V30 29149 C 2648.19 -1.92108 1.34654 0
M  V30 29150 C 2649.2 -1.7224 0.246854 0
M  V30 29151 O 2650.38 -1.95563 0.481374 0
M  V30 29152 C 2647.44 -3.27158 1.14754 0
M  V30 29153 C 2646.51 -3.59716 2.34314 0
M  V30 29154 C 2645.74 -4.88322 2.15354 0
M  V30 29155 O 2645.96 -5.5899 1.13517 0
M  V30 29156 O 2644.9 -5.19825 3.03423 0
M  V30 29157 H 2648.72 -1.97142 2.31017 0
M  V30 29158 H 2646.31 -0.918881 1.178 0
M  V30 29159 H 2648.19 -4.07948 1.05623 0
M  V30 29160 H 2646.86 -3.22988 0.214618 0
M  V30 29161 H 2645.77 -2.79181 2.49016 0
M  V30 29162 H 2647.1 -3.68623 3.26156 0
M  V30 29163 N 2648.76 -1.2161 -1.00244 0
M  V30 29164 C 2649.69 -1.00176 -2.10919 0
M  V30 29165 C 2650.67 0.0741288 -1.69938 0
M  V30 29166 O 2651.85 -0.0862094 -1.94009 0
M  V30 29167 C 2648.98 -0.568416 -3.42617 0
M  V30 29168 C 2647.94 -1.58916 -3.97404 0
M  V30 29169 C 2647.26 -1.01196 -5.25037 0
M  V30 29170 C 2648.56 -2.97668 -4.29175 0
M  V30 29171 H 2650.26 -1.92743 -2.29108 0
M  V30 29172 H 2647.8 -0.928121 -1.101 0
M  V30 29173 H 2649.75 -0.405629 -4.19443 0
M  V30 29174 H 2648.48 0.392904 -3.24228 0
M  V30 29175 H 2647.14 -1.73955 -3.227 0
M  V30 29176 H 2646.79 -0.0422849 -5.02982 0
M  V30 29177 H 2646.49 -1.6938 -5.62658 0
M  V30 29178 H 2648.01 -0.860554 -6.04505 0
M  V30 29179 H 2649.42 -2.86058 -4.96834 0
M  V30 29180 H 2647.82 -3.62889 -4.77945 0
M  V30 29181 H 2648.89 -3.48321 -3.37343 0
M  V30 29182 N 2650.23 1.19778 -1.02425 0
M  V30 29183 C 2651.48 1.88666 -0.713298 0
M  V30 29184 C 2651.8 1.80195 0.760868 0
M  V30 29185 O 2653 2.4429 1.18469 0
M  V30 29186 C 2651.46 3.38392 -1.22551 0
M  V30 29187 C 2651.07 3.55432 -2.72713 0
M  V30 29188 C 2652.81 4.12787 -0.99033 0
M  V30 29189 C 2650.72 4.99026 -3.17375 0
M  V30 29190 H 2649.65 0.706601 -0.263117 0
M  V30 29191 H 2652.3 1.35452 -1.23795 0
M  V30 29192 H 2650.68 3.90976 -0.628801 0
M  V30 29193 H 2651.85 3.13199 -3.37999 0
M  V30 29194 H 2650.17 2.9442 -2.94458 0
M  V30 29195 H 2652.77 5.18672 -1.29935 0
M  V30 29196 H 2653.11 4.16236 0.0730029 0
M  V30 29197 H 2653.64 3.66326 -1.5508 0
M  V30 29198 H 2650.38 5.00736 -4.23018 0
M  V30 29199 H 2649.9 5.42039 -2.56814 0
M  V30 29200 H 2651.58 5.67652 -3.10451 0
M  V30 29201 N 2651.71 0.801501 1.35697 0
M  V30 29202 C 2652.99 0.302971 1.93239 0
M  V30 29203 C 2653.37 -1.20669 1.73211 0
M  V30 29204 O 2652.72 -2.00383 1.09812 0
M  V30 29205 C 2652.93 0.708807 3.41726 0
M  V30 29206 C 2654.27 0.695402 4.18867 0
M  V30 29207 O 2655.3 0.650033 3.50219 0
M  V30 29208 O 2654.16 0.749176 5.41341 0
M  V30 29209 H 2651.25 0.0780511 0.823309 0
M  V30 29210 H 2653.8 0.884857 1.44805 0
M  V30 29211 H 2652.57 1.7495 3.50012 0
M  V30 29212 H 2652.19 0.101454 3.97471 0
M  V30 29213 N 2653.19 -1.47521 0.554558 0
M  V30 29214 C 2654.42 -2.06872 0.0342934 0
M  V30 29215 C 2654.83 -1.40761 -1.25824 0
M  V30 29216 O 2654.19 -0.503247 -1.75424 0
M  V30 29217 C 2654.24 -3.61111 -0.167764 0
M  V30 29218 O 2653.96 -4.24742 1.07358 0
M  V30 29219 C 2655.46 -4.37321 -0.725613 0
M  V30 29220 H 2652.68 -0.669514 0.0446393 0
M  V30 29221 H 2655.23 -1.89563 0.767214 0
M  V30 29222 H 2653.38 -3.77942 -0.850806 0
M  V30 29223 H 2653.8 -5.1724 0.869654 0
M  V30 29224 H 2655.27 -5.45931 -0.816298 0
M  V30 29225 H 2655.75 -4.03423 -1.73628 0
M  V30 29226 H 2656.35 -4.25228 -0.0783544 0
M  V30 29227 N 2654.67 -0.290879 -1.54892 0
M  V30 29228 C 2656.08 0.0628152 -1.59476 0
M  V30 29229 C 2656.28 1.53278 -1.30798 0
M  V30 29230 O 2655.34 2.28404 -1.07648 0
M  V30 29231 C 2656.65 -0.326014 -2.98927 0
M  V30 29232 C 2658.2 -0.273937 -3.11799 0
M  V30 29233 C 2658.68 -0.637438 -4.53542 0
M  V30 29234 N 2660.17 -0.589587 -4.59432 0
M  V30 29235 C 2660.9 -0.84345 -5.67163 0
M  V30 29236 N 2660.4 -1.16275 -6.82973 0
M  V30 29237 N 2662.19 -0.771189 -5.56785 0
M  V30 29238 H 2654.34 -1.24899 -1.71796 0
M  V30 29239 H 2656.6 -0.505677 -0.80187 0
M  V30 29240 H 2656.31 -1.34893 -3.24803 0
M  V30 29241 H 2656.18 0.325375 -3.75794 0
M  V30 29242 H 2658.57 0.739715 -2.85679 0
M  V30 29243 H 2658.65 -0.959808 -2.3711 0
M  V30 29244 H 2658.3 -1.64885 -4.80391 0
M  V30 29245 H 2658.23 0.070394 -5.26553 0
M  V30 29246 H 2660.72 -0.353318 -3.76245 0
M  V30 29247 H 2661.03 -1.34271 -7.61046 0
M  V30 29248 H 2659.38 -1.20069 -6.8455 0
M  V30 29249 H 2662.57 -0.521465 -4.65186 0
M  V30 29250 H 2662.74 -0.972408 -6.40662 0
M  V30 29251 N 2656.15 1.57589 -0.0184203 0
M  V30 29252 C 2657.37 1.95648 0.673012 0
M  V30 29253 C 2657.79 0.894341 1.66274 0
M  V30 29254 O 2657.15 -0.124943 1.82072 0
M  V30 29255 C 2657.2 3.33759 1.38878 0
M  V30 29256 O 2656.92 4.35898 0.438729 0
M  V30 29257 C 2658.42 3.86386 2.17303 0
M  V30 29258 H 2655.64 0.644624 0.18628 0
M  V30 29259 H 2658.18 2.04362 -0.0750107 0
M  V30 29260 H 2656.34 3.26296 2.08829 0
M  V30 29261 H 2656.75 5.15902 0.945778 0
M  V30 29262 H 2658.23 4.85398 2.62854 0
M  V30 29263 H 2658.7 3.20064 3.00759 0
M  V30 29264 H 2659.31 3.97083 1.52332 0
M  V30 29265 N 2657.62 -0.254594 1.5553 0
M  V30 29266 C 2658.56 -1.3378 1.86106 0
M  V30 29267 C 2659.57 -1.44662 0.746777 0
M  V30 29268 O 2660.76 -1.46149 1.02482 0
M  V30 29269 C 2657.86 -2.71721 2.02537 0
M  V30 29270 C 2657.03 -2.83202 3.3334 0
M  V30 29271 C 2656.09 -4.01937 3.39607 0
M  V30 29272 O 2655.12 -3.91827 4.12869 0
M  V30 29273 N 2656.32 -5.14755 2.68341 0
M  V30 29274 H 2659.08 -1.07889 2.79607 0
M  V30 29275 H 2656.64 -0.444705 1.55673 0
M  V30 29276 H 2658.64 -3.49476 2.0408 0
M  V30 29277 H 2657.21 -2.90354 1.15816 0
M  V30 29278 H 2656.43 -1.92183 3.44179 0
M  V30 29279 H 2657.71 -2.87817 4.1957 0
M  V30 29280 H 2657.11 -5.2586 2.08537 0
M  V30 29281 H 2655.67 -5.90674 2.75586 0
M  V30 29282 N 2659.1 -1.48777 -0.519925 0
M  V30 29283 C 2660.35 -1.56557 -1.27172 0
M  V30 29284 C 2660.66 -0.248904 -1.9401 0
M  V30 29285 O 2661.87 -0.205051 -2.70725 0
M  V30 29286 C 2660.33 -2.76146 -2.30806 0
M  V30 29287 C 2659.93 -4.14496 -1.69992 0
M  V30 29288 C 2661.68 -2.93245 -3.06932 0
M  V30 29289 C 2659.58 -5.25332 -2.71626 0
M  V30 29290 H 2658.51 -0.582862 -0.478318 0
M  V30 29291 H 2661.17 -1.7513 -0.547885 0
M  V30 29292 H 2659.55 -2.51028 -3.06269 0
M  V30 29293 H 2660.72 -4.49674 -1.0065 0
M  V30 29294 H 2659.04 -4.02597 -1.06323 0
M  V30 29295 H 2661.63 -3.73219 -3.82899 0
M  V30 29296 H 2661.98 -2.03082 -3.63405 0
M  V30 29297 H 2662.51 -3.18312 -2.38584 0
M  V30 29298 H 2659.25 -6.17493 -2.19959 0
M  V30 29299 H 2658.77 -4.9463 -3.39266 0
M  V30 29300 H 2660.45 -5.53871 -3.3442 0
M  V30 29301 N 2660.58 0.769564 -1.37534 0
M  V30 29302 C 2661.51 1.8968 -1.36176 0
M  V30 29303 C 2662.49 1.68537 -0.23004 0
M  V30 29304 O 2663.68 1.89363 -0.430723 0
M  V30 29305 C 2660.81 3.26993 -1.17016 0
M  V30 29306 C 2659.76 3.62704 -2.27222 0
M  V30 29307 C 2659.09 4.98582 -1.93183 0
M  V30 29308 C 2660.39 3.69228 -3.69416 0
M  V30 29309 H 2662.08 1.91074 -2.30502 0
M  V30 29310 H 2659.63 0.917882 -1.10955 0
M  V30 29311 H 2661.58 4.05491 -1.14695 0
M  V30 29312 H 2660.3 3.26038 -0.191453 0
M  V30 29313 H 2658.96 2.86515 -2.28702 0
M  V30 29314 H 2658.61 4.9417 -0.938368 0
M  V30 29315 H 2658.31 5.23445 -2.66982 0
M  V30 29316 H 2659.83 5.79477 -1.92453 0
M  V30 29317 H 2661.25 4.37873 -3.70055 0
M  V30 29318 H 2659.64 4.05589 -4.42287 0
M  V30 29319 H 2660.71 2.69837 -4.02885 0
M  V30 29320 N 2662.06 1.22139 0.995977 0
M  V30 29321 C 2663.02 0.990145 2.06709 0
M  V30 29322 C 2664.02 -0.0422696 1.60744 0
M  V30 29323 O 2665.21 0.195925 1.73095 0
M  V30 29324 C 2662.34 0.494969 3.37288 0
M  V30 29325 H 2663.54 1.94051 2.28658 0
M  V30 29326 H 2661.09 1.03965 1.16709 0
M  V30 29327 H 2661.82 -0.459891 3.21023 0
M  V30 29328 H 2661.61 1.23978 3.71984 0
M  V30 29329 H 2663.1 0.353326 4.16103 0
M  V30 29330 N 2663.54 -1.19233 1.03059 0
M  V30 29331 C 2664.5 -2.20726 0.617457 0
M  V30 29332 C 2665.5 -1.57587 -0.319829 0
M  V30 29333 O 2666.69 -1.73874 -0.106603 0
M  V30 29334 C 2663.82 -3.40764 -0.0962361 0
M  V30 29335 H 2665.01 -2.58791 1.51549 0
M  V30 29336 H 2662.57 -1.32941 0.821973 0
M  V30 29337 H 2663.3 -3.08219 -1.00854 0
M  V30 29338 H 2663.09 -3.87827 0.577285 0
M  V30 29339 H 2664.58 -4.15938 -0.372146 0
M  V30 29340 N 2665.01 -0.808686 -1.3527 0
M  V30 29341 C 2666.24 -0.401511 -2.03476 0
M  V30 29342 C 2666.66 0.98025 -1.60539 0
M  V30 29343 O 2666.02 1.63517 -0.783068 0
M  V30 29344 C 2666.07 -0.495416 -3.57181 0
M  V30 29345 O 2665.17 0.490325 -4.09475 0
M  V30 29346 H 2664.52 -0.167377 -0.642558 0
M  V30 29347 H 2667.05 -1.09515 -1.72822 0
M  V30 29348 H 2667.06 -0.365983 -4.06355 0
M  V30 29349 H 2665.73 -1.50327 -3.87782 0
M  V30 29350 H 2664.31 0.320958 -3.71516 0
M  V30 29351 N 2666.49 1.47225 -0.562374 0
M  V30 29352 C 2667.72 2.06551 -0.0451982 0
M  V30 29353 C 2668.13 1.41475 1.25624 0
M  V30 29354 O 2667.47 0.507092 1.76562 0
M  V30 29355 C 2667.54 3.5885 0.216005 0
M  V30 29356 C 2667.2 4.45997 -0.996769 0
M  V30 29357 C 2668.2 4.83794 -1.90367 0
M  V30 29358 C 2665.88 4.87436 -1.2129 0
M  V30 29359 C 2667.88 5.61834 -3.01033 0
M  V30 29360 C 2665.56 5.6524 -2.32265 0
M  V30 29361 C 2666.56 6.02351 -3.21967 0
M  V30 29362 O 2666.25 6.78586 -4.31017 0
M  V30 29363 H 2665.98 0.674489 -0.0451764 0
M  V30 29364 H 2668.53 1.90142 -0.776876 0
M  V30 29365 H 2666.76 3.73491 1.00205 0
M  V30 29366 H 2668.45 4.00177 0.679193 0
M  V30 29367 H 2669.22 4.52375 -1.74876 0
M  V30 29368 H 2665.1 4.58014 -0.523848 0
M  V30 29369 H 2668.64 5.90719 -3.71075 0
M  V30 29370 H 2664.54 5.96072 -2.47726 0
M  V30 29371 H 2665.31 6.96986 -4.2913 0
M  V30 29372 N 2667.97 0.299089 1.54736 0
M  V30 29373 C 2668.88 -0.587373 2.27128 0
M  V30 29374 C 2669.9 -1.15003 1.30577 0
M  V30 29375 O 2671.07 -1.17522 1.63556 0
M  V30 29376 C 2668.14 -1.7439 2.99648 0
M  V30 29377 C 2667.2 -1.21551 4.11733 0
M  V30 29378 C 2666.43 -2.31692 4.80786 0
M  V30 29379 O 2666.65 -3.51551 4.49186 0
M  V30 29380 O 2665.59 -1.98491 5.6823 0
M  V30 29381 H 2669.41 -0.000196726 3.037 0
M  V30 29382 H 2667 0.0656181 1.49256 0
M  V30 29383 H 2668.88 -2.41774 3.45142 0
M  V30 29384 H 2667.56 -2.31771 2.25973 0
M  V30 29385 H 2666.46 -0.507449 3.70642 0
M  V30 29386 H 2667.8 -0.687147 4.8738 0
M  V30 29387 N 2669.45 -1.57577 0.0267774 0
M  V30 29388 C 2670.38 -2.1311 -0.95427 0
M  V30 29389 C 2671.36 -1.04665 -1.34086 0
M  V30 29390 O 2672.54 -1.32486 -1.4199 0
M  V30 29391 C 2669.67 -2.65628 -2.23739 0
M  V30 29392 C 2668.63 -3.78839 -1.99162 0
M  V30 29393 C 2667.95 -4.17775 -3.33719 0
M  V30 29394 C 2669.25 -5.05012 -1.33268 0
M  V30 29395 H 2670.95 -2.95333 -0.491796 0
M  V30 29396 H 2668.49 -1.42068 -0.235115 0
M  V30 29397 H 2670.45 -3.03111 -2.92748 0
M  V30 29398 H 2669.17 -1.80563 -2.72148 0
M  V30 29399 H 2667.83 -3.4179 -1.32571 0
M  V30 29400 H 2667.48 -3.29695 -3.79882 0
M  V30 29401 H 2667.18 -4.94063 -3.18081 0
M  V30 29402 H 2668.7 -4.57839 -4.03999 0
M  V30 29403 H 2670.12 -5.40096 -1.92273 0
M  V30 29404 H 2668.51 -5.86282 -1.28035 0
M  V30 29405 H 2669.58 -4.83938 -0.305326 0
M  V30 29406 N 2670.93 0.246342 -1.55663 0
M  V30 29407 C 2671.88 1.30792 -1.86755 0
M  V30 29408 C 2672.86 1.43465 -0.728471 0
M  V30 29409 O 2674.05 1.46697 -0.990406 0
M  V30 29410 C 2671.18 2.66326 -2.16623 0
M  V30 29411 C 2670.27 2.57655 -3.3686 0
M  V30 29412 N 2670.66 2.18616 -4.56115 0
M  V30 29413 C 2668.96 2.88667 -3.39981 0
M  V30 29414 C 2669.66 2.20592 -5.38251 0
M  V30 29415 N 2668.63 2.60116 -4.77327 0
M  V30 29416 H 2672.44 0.996593 -2.76487 0
M  V30 29417 H 2669.95 0.454966 -1.55897 0
M  V30 29418 H 2671.95 3.42938 -2.37063 0
M  V30 29419 H 2670.61 2.98324 -1.2819 0
M  V30 29420 H 2671.62 1.90151 -4.81729 0
M  V30 29421 H 2668.29 3.25202 -2.61821 0
M  V30 29422 H 2669.68 1.92744 -6.43661 0
M  V30 29423 N 2672.4 1.4905 0.512027 0
M  V30 29424 C 2673.35 1.64905 1.61477 0
M  V30 29425 C 2674.32 0.490701 1.58686 0
M  V30 29426 O 2675.51 0.716391 1.7684 0
M  V30 29427 C 2672.65 1.71144 2.99673 0
M  V30 29428 C 2671.76 2.98209 3.12563 0
M  V30 29429 C 2670.89 2.95495 4.41425 0
M  V30 29430 C 2669.93 4.17187 4.47908 0
M  V30 29431 N 2669.07 4.12447 5.68183 0
M  V30 29432 H 2673.91 2.59069 1.47267 0
M  V30 29433 H 2671.45 1.2846 0.716691 0
M  V30 29434 H 2673.41 1.72742 3.79758 0
M  V30 29435 H 2672.04 0.804563 3.12613 0
M  V30 29436 H 2671.09 3.06273 2.25613 0
M  V30 29437 H 2672.4 3.88199 3.13214 0
M  V30 29438 H 2671.55 2.95595 5.29819 0
M  V30 29439 H 2670.29 2.03264 4.43323 0
M  V30 29440 H 2669.3 4.17343 3.57918 0
M  V30 29441 H 2670.52 5.10598 4.47735 0
M  V30 29442 H 2668.47 3.23046 5.70944 0
M  V30 29443 H 2668.39 4.96161 5.70404 0
M  V30 29444 H 2669.65 4.16633 6.58815 0
M  V30 29445 N 2673.88 -0.762259 1.3794 0
M  V30 29446 C 2675.13 -1.52113 1.33671 0
M  V30 29447 C 2675.46 -1.94352 -0.0759196 0
M  V30 29448 O 2674.71 -1.65072 -1.05118 0
M  V30 29449 C 2675.01 -2.79257 2.23047 0
M  V30 29450 C 2674.68 -2.56024 3.71164 0
M  V30 29451 C 2673.34 -2.49397 4.11527 0
M  V30 29452 C 2675.69 -2.35505 4.64959 0
M  V30 29453 C 2673.02 -2.20253 5.43788 0
M  V30 29454 C 2675.37 -2.07883 5.97467 0
M  V30 29455 C 2674.04 -1.99707 6.36925 0
M  V30 29456 H 2673.31 -0.55662 0.489137 0
M  V30 29457 H 2675.95 -0.877232 1.70226 0
M  V30 29458 H 2674.26 -3.48253 1.79519 0
M  V30 29459 H 2675.95 -3.37178 2.17053 0
M  V30 29460 H 2672.54 -2.6205 3.39158 0
M  V30 29461 H 2676.73 -2.39609 4.34627 0
M  V30 29462 H 2671.98 -2.12425 5.73311 0
M  V30 29463 H 2676.16 -1.91008 6.69693 0
M  V30 29464 H 2673.79 -1.76889 7.39334 0
M  V30 29465 N 2675.36 -1.22666 -0.989486 0
M  V30 29466 C 2676.59 -1.07813 -1.76238 0
M  V30 29467 C 2677 0.374003 -1.85467 0
M  V30 29468 O 2676.34 1.27085 -1.32647 0
M  V30 29469 C 2676.4 -1.61855 -3.21004 0
M  V30 29470 C 2676.07 -3.10509 -3.35311 0
M  V30 29471 C 2677.06 -4.07901 -3.22354 0
M  V30 29472 C 2674.75 -3.50034 -3.60252 0
M  V30 29473 C 2676.74 -5.42804 -3.34129 0
M  V30 29474 C 2674.43 -4.85084 -3.71667 0
M  V30 29475 C 2675.43 -5.81278 -3.58615 0
M  V30 29476 O 2675.12 -7.13876 -3.69643 0
M  V30 29477 H 2674.85 -0.378351 -0.560202 0
M  V30 29478 H 2677.4 -1.62794 -1.25249 0
M  V30 29479 H 2675.63 -1.01285 -3.732 0
M  V30 29480 H 2677.32 -1.42613 -3.80021 0
M  V30 29481 H 2678.09 -3.78709 -3.02993 0
M  V30 29482 H 2673.97 -2.75682 -3.69487 0
M  V30 29483 H 2677.51 -6.17869 -3.23858 0
M  V30 29484 H 2673.41 -5.13957 -3.90536 0
M  V30 29485 H 2674.18 -7.21501 -3.86494 0
M  V30 29486 N 2676.84 1.18685 -1.0369 0
M  V30 29487 C 2677.79 2.20097 -0.595105 0
M  V30 29488 C 2678.77 1.56811 0.360437 0
M  V30 29489 O 2679.97 1.76081 0.180105 0
M  V30 29490 C 2677.09 3.43271 0.0443891 0
M  V30 29491 C 2676.18 4.13686 -0.934075 0
M  V30 29492 N 2676.57 4.60161 -2.09965 0
M  V30 29493 C 2674.87 4.3949 -0.759254 0
M  V30 29494 C 2675.57 5.14325 -2.71744 0
M  V30 29495 N 2674.55 5.05611 -1.99647 0
M  V30 29496 H 2678.35 2.53717 -1.4834 0
M  V30 29497 H 2675.86 1.34848 -0.904973 0
M  V30 29498 H 2677.86 4.15178 0.378567 0
M  V30 29499 H 2676.52 3.11148 0.928271 0
M  V30 29500 H 2677.53 4.54731 -2.47871 0
M  V30 29501 H 2674.21 4.17433 0.0748558 0
M  V30 29502 H 2675.6 5.60516 -3.70501 0
M  V30 29503 N 2678.32 0.815849 1.34839 0
M  V30 29504 C 2679.59 0.32345 1.92907 0
M  V30 29505 C 2679.97 -1.18825 1.74481 0
M  V30 29506 O 2679.32 -1.99207 1.11932 0
M  V30 29507 C 2679.53 0.745012 3.40955 0
M  V30 29508 C 2680.88 0.739789 4.18106 0
M  V30 29509 O 2681.9 0.687141 3.49509 0
M  V30 29510 O 2680.76 0.806551 5.40516 0
M  V30 29511 H 2677.86 0.086779 0.822434 0
M  V30 29512 H 2680.4 0.900166 1.43858 0
M  V30 29513 H 2679.18 1.78652 3.48137 0
M  V30 29514 H 2678.8 0.143605 3.97341 0
M  V30 29515 N 2679.8 -1.46924 0.570174 0
M  V30 29516 C 2680.76 -2.28642 -0.159893 0
M  V30 29517 C 2681.76 -1.37686 -0.830614 0
M  V30 29518 O 2682.95 -1.60189 -0.684487 0
M  V30 29519 C 2680.08 -3.17729 -1.23535 0
M  V30 29520 H 2681.27 -2.94661 0.558087 0
M  V30 29521 H 2678.83 -1.52828 0.32763 0
M  V30 29522 H 2679.56 -2.56429 -1.98531 0
M  V30 29523 H 2679.35 -3.84683 -0.759058 0
M  V30 29524 H 2680.84 -3.79267 -1.74775 0
M  V30 29525 N 2681.27 -0.307291 -1.54575 0
M  V30 29526 C 2682.22 0.566001 -2.23752 0
M  V30 29527 C 2683.19 1.1246 -1.22237 0
M  V30 29528 O 2684.38 1.16796 -1.50875 0
M  V30 29529 C 2681.52 1.72897 -2.98665 0
M  V30 29530 C 2680.63 1.20117 -4.14965 0
M  V30 29531 C 2679.76 2.32851 -4.77445 0
M  V30 29532 C 2678.8 1.77236 -5.85879 0
M  V30 29533 N 2677.94 2.83569 -6.42287 0
M  V30 29534 H 2682.78 -0.0305102 -2.97984 0
M  V30 29535 H 2680.32 -0.0268273 -1.47076 0
M  V30 29536 H 2682.27 2.41307 -3.40333 0
M  V30 29537 H 2680.9 2.29702 -2.26797 0
M  V30 29538 H 2679.96 0.409132 -3.78193 0
M  V30 29539 H 2681.27 0.754084 -4.93067 0
M  V30 29540 H 2680.42 3.09196 -5.21999 0
M  V30 29541 H 2679.16 2.80889 -3.98689 0
M  V30 29542 H 2678.17 0.993831 -5.40743 0
M  V30 29543 H 2679.39 1.30095 -6.66522 0
M  V30 29544 H 2677.34 3.30929 -5.66412 0
M  V30 29545 H 2677.25 2.43375 -7.15755 0
M  V30 29546 H 2678.52 3.59792 -6.91498 0
M  V30 29547 N 2682.75 1.57561 -0.0351337 0
M  V30 29548 C 2683.66 2.14047 0.960257 0
M  V30 29549 C 2684.68 1.09422 1.35288 0
M  V30 29550 O 2685.85 1.4151 1.43307 0
M  V30 29551 C 2682.92 2.66128 2.22209 0
M  V30 29552 C 2681.98 3.8549 1.88933 0
M  V30 29553 C 2681.21 4.35077 3.09101 0
M  V30 29554 O 2681.44 3.83809 4.21956 0
M  V30 29555 O 2680.37 5.26853 2.91048 0
M  V30 29556 H 2684.2 2.99388 0.509931 0
M  V30 29557 H 2681.78 1.4824 0.185827 0
M  V30 29558 H 2683.66 2.99666 2.96274 0
M  V30 29559 H 2682.34 1.83866 2.66411 0
M  V30 29560 H 2681.24 3.56867 1.12234 0
M  V30 29561 H 2682.58 4.68933 1.49543 0
M  V30 29562 N 2684.23 -0.238084 1.55791 0
M  V30 29563 C 2685.48 -0.962837 1.77235 0
M  V30 29564 C 2685.79 -1.86148 0.600694 0
M  V30 29565 O 2687 -2.62365 0.698361 0
M  V30 29566 C 2685.45 -1.76213 3.13811 0
M  V30 29567 C 2685.06 -0.910441 4.38651 0
M  V30 29568 C 2686.81 -2.47908 3.44589 0
M  V30 29569 C 2684.71 -1.70613 5.66255 0
M  V30 29570 H 2683.64 -0.363238 0.660737 0
M  V30 29571 H 2686.29 -0.21721 1.8221 0
M  V30 29572 H 2684.68 -2.55004 3.02967 0
M  V30 29573 H 2685.85 -0.164235 4.60507 0
M  V30 29574 H 2684.16 -0.306397 4.15271 0
M  V30 29575 H 2686.76 -3.07909 4.37145 0
M  V30 29576 H 2687.1 -3.19968 2.6632 0
M  V30 29577 H 2687.64 -1.76121 3.56688 0
M  V30 29578 H 2684.38 -1.02911 6.47371 0
M  V30 29579 H 2683.9 -2.42738 5.48487 0
M  V30 29580 H 2685.58 -2.27103 6.05833 0
M  V30 29581 N 2685.71 -1.4932 -0.504115 0
M  V30 29582 C 2686.95 -1.58649 -1.25844 0
M  V30 29583 C 2687.28 -0.271804 -1.92591 0
M  V30 29584 O 2686.54 0.740038 -1.81168 0
M  V30 29585 C 2686.84 -2.69262 -2.35017 0
M  V30 29586 C 2686.5 -4.10863 -1.85748 0
M  V30 29587 C 2685.16 -4.49398 -1.7203 0
M  V30 29588 C 2687.52 -4.99497 -1.48835 0
M  V30 29589 C 2684.84 -5.74344 -1.19773 0
M  V30 29590 C 2687.2 -6.24958 -0.980312 0
M  V30 29591 C 2685.86 -6.62326 -0.829505 0
M  V30 29592 H 2685.13 -0.580539 -0.460495 0
M  V30 29593 H 2687.78 -1.83139 -0.559684 0
M  V30 29594 H 2686.08 -2.38732 -3.10668 0
M  V30 29595 H 2687.78 -2.7369 -2.93078 0
M  V30 29596 H 2684.37 -3.80444 -1.97383 0
M  V30 29597 H 2688.55 -4.70384 -1.58281 0
M  V30 29598 H 2683.81 -6.01999 -1.06806 0
M  V30 29599 H 2687.98 -6.93018 -0.685487 0
M  V30 29600 H 2685.61 -7.59026 -0.422397 0
M  V30 29601 N 2687.19 0.754933 -1.38342 0
M  V30 29602 C 2688.43 1.51103 -1.3421 0
M  V30 29603 C 2688.75 1.94882 0.0677291 0
M  V30 29604 O 2688.02 1.67546 1.01515 0
M  V30 29605 H 2686.6 0.560484 -0.493828 0
M  V30 29606 H 2689.27 0.897476 -1.73007 0
M  V30 29607 H 2688.36 2.40256 -1.99207 0
M  V30 29608 N 2688.66 1.23189 0.982967 0
M  V30 29609 C 2690.08 0.993989 1.24868 0
M  V30 29610 C 2690.28 -0.306463 1.99156 0
M  V30 29611 O 2689.34 -1.02656 2.3069 0
M  V30 29612 C 2690.65 2.1992 2.05074 0
M  V30 29613 C 2692.2 2.24383 2.18223 0
M  V30 29614 C 2692.67 3.44484 3.01819 0
M  V30 29615 N 2694.16 3.44707 3.09404 0
M  V30 29616 C 2694.9 4.34291 3.74405 0
M  V30 29617 N 2694.39 5.34108 4.41249 0
M  V30 29618 N 2696.19 4.22041 3.71265 0
M  V30 29619 H 2688.34 2.06783 0.485217 0
M  V30 29620 H 2690.6 0.90664 0.276963 0
M  V30 29621 H 2690.31 3.14281 1.57861 0
M  V30 29622 H 2690.18 2.20795 3.05825 0
M  V30 29623 H 2692.57 1.30564 2.64645 0
M  V30 29624 H 2692.65 2.27542 1.16869 0
M  V30 29625 H 2692.29 4.3861 2.56094 0
M  V30 29626 H 2692.22 3.38566 4.03336 0
M  V30 29627 H 2694.71 2.72485 2.61841 0
M  V30 29628 H 2695.03 5.98725 4.88618 0
M  V30 29629 H 2693.37 5.3801 4.39966 0
M  V30 29630 H 2696.56 3.43307 3.18211 0
M  V30 29631 H 2696.74 4.9206 4.21641 0
M  V30 29632 N 2690.14 -1.18133 1.04318 0
M  V30 29633 C 2691.39 -1.87508 0.743223 0
M  V30 29634 C 2691.7 -1.81382 -0.732104 0
M  V30 29635 O 2692.91 -2.46143 -1.14567 0
M  V30 29636 C 2691.37 -3.364 1.27919 0
M  V30 29637 C 2690.97 -3.51048 2.78333 0
M  V30 29638 C 2692.72 -4.11159 1.05588 0
M  V30 29639 C 2690.62 -4.93914 3.25274 0
M  V30 29640 H 2689.55 -0.702326 0.274325 0
M  V30 29641 H 2692.21 -1.33465 1.25934 0
M  V30 29642 H 2690.59 -3.89926 0.690922 0
M  V30 29643 H 2691.76 -3.07782 3.42939 0
M  V30 29644 H 2690.08 -2.89698 2.99105 0
M  V30 29645 H 2692.67 -5.1654 1.3817 0
M  V30 29646 H 2693.02 -4.16299 -0.00677412 0
M  V30 29647 H 2693.55 -3.63813 1.60889 0
M  V30 29648 H 2690.29 -4.93943 4.3093 0
M  V30 29649 H 2689.81 -5.37885 2.65405 0
M  V30 29650 H 2691.49 -5.62641 3.19443 0
M  V30 29651 N 2691.62 -0.822988 -1.34405 0
M  V30 29652 C 2692.55 -0.202415 -2.28304 0
M  V30 29653 C 2693.57 0.607743 -1.51031 0
M  V30 29654 O 2694.75 0.437414 -1.73058 0
M  V30 29655 C 2691.85 0.734853 -3.30837 0
M  V30 29656 C 2691.03 -0.0324946 -4.37388 0
M  V30 29657 C 2690.09 0.825711 -5.19681 0
M  V30 29658 O 2689.11 0.270671 -5.68556 0
M  V30 29659 N 2690.31 2.14549 -5.39397 0
M  V30 29660 H 2693.08 -1.00914 -2.82199 0
M  V30 29661 H 2690.64 -0.679956 -1.46929 0
M  V30 29662 H 2692.63 1.31359 -3.82788 0
M  V30 29663 H 2691.2 1.44233 -2.77337 0
M  V30 29664 H 2690.42 -0.792537 -3.86151 0
M  V30 29665 H 2691.71 -0.560722 -5.05701 0
M  V30 29666 H 2691.11 2.62016 -5.01362 0
M  V30 29667 H 2689.67 2.67307 -5.94466 0
M  V30 29668 N 2693.1 1.4662 -0.577957 0
M  V30 29669 C 2694.38 1.95599 0.00491849 0
M  V30 29670 C 2694.76 1.52062 1.46425 0
M  V30 29671 O 2694.1 0.769083 2.15168 0
M  V30 29672 C 2694.31 3.48623 -0.162176 0
M  V30 29673 C 2695.66 4.24591 -0.027537 0
M  V30 29674 O 2696.69 3.56084 -0.0907693 0
M  V30 29675 O 2695.54 5.46385 0.112104 0
M  V30 29676 H 2692.64 0.825332 0.0524912 0
M  V30 29677 H 2695.18 1.56926 -0.645942 0
M  V30 29678 H 2693.96 3.73183 -1.17686 0
M  V30 29679 H 2693.58 3.94114 0.525337 0
M  V30 29680 N 2694.58 0.315484 1.5441 0
M  V30 29681 C 2695.52 -0.554127 2.24049 0
M  V30 29682 C 2696.49 -1.1181 1.22832 0
M  V30 29683 O 2697.68 -1.15994 1.51493 0
M  V30 29684 C 2694.82 -1.71311 2.99577 0
M  V30 29685 C 2693.93 -1.17914 4.15596 0
M  V30 29686 C 2693.07 -2.30316 4.78673 0
M  V30 29687 C 2692.11 -1.74127 5.8681 0
M  V30 29688 N 2691.24 -2.80159 6.43782 0
M  V30 29689 H 2696.08 0.0463126 2.97964 0
M  V30 29690 H 2693.62 0.0346267 1.47059 0
M  V30 29691 H 2695.58 -2.39499 3.41608 0
M  V30 29692 H 2694.21 -2.28496 2.28012 0
M  V30 29693 H 2693.26 -0.38907 3.78405 0
M  V30 29694 H 2694.57 -0.727925 4.9346 0
M  V30 29695 H 2693.73 -3.06423 5.23631 0
M  V30 29696 H 2692.46 -2.78771 4.00173 0
M  V30 29697 H 2691.47 -0.96514 5.41262 0
M  V30 29698 H 2692.69 -1.26559 6.67203 0
M  V30 29699 H 2690.64 -3.2792 5.68159 0
M  V30 29700 H 2690.56 -2.39576 7.17035 0
M  V30 29701 H 2691.83 -3.5612 6.93397 0
M  V30 29702 N 2696.05 -1.5754 0.0434891 0
M  V30 29703 C 2697 -2.07585 -0.943002 0
M  V30 29704 C 2697.99 -0.979364 -1.27661 0
M  V30 29705 O 2699.18 -1.24278 -1.26031 0
M  V30 29706 C 2696.31 -2.61816 -2.22052 0
M  V30 29707 C 2695.4 -3.78421 -1.91465 0
M  V30 29708 N 2695.79 -4.88486 -1.31205 0
M  V30 29709 C 2694.08 -3.8718 -2.21377 0
M  V30 29710 C 2694.79 -5.6959 -1.18074 0
M  V30 29711 N 2693.76 -5.16954 -1.68107 0
M  V30 29712 H 2697.56 -2.9008 -0.472303 0
M  V30 29713 H 2695.08 -1.61598 -0.161163 0
M  V30 29714 H 2697.07 -2.95969 -2.93612 0
M  V30 29715 H 2695.73 -1.80757 -2.69735 0
M  V30 29716 H 2696.75 -5.08442 -0.985229 0
M  V30 29717 H 2693.42 -3.17051 -2.71634 0
M  V30 29718 H 2694.81 -6.681 -0.713566 0
M  V30 29719 N 2697.53 0.229818 -1.55915 0
M  V30 29720 C 2698.48 1.28474 -1.91737 0
M  V30 29721 C 2699.45 1.46987 -0.773565 0
M  V30 29722 O 2700.63 1.60691 -1.02874 0
M  V30 29723 C 2697.77 2.63178 -2.23229 0
M  V30 29724 C 2696.89 2.52533 -3.50501 0
M  V30 29725 C 2696.02 3.79705 -3.71481 0
M  V30 29726 C 2695.06 3.63747 -4.92295 0
M  V30 29727 N 2694.2 4.82849 -5.09707 0
M  V30 29728 H 2699.04 0.972258 -2.81693 0
M  V30 29729 H 2696.58 0.468791 -1.3943 0
M  V30 29730 H 2698.53 3.4161 -2.39496 0
M  V30 29731 H 2697.16 2.9254 -1.36456 0
M  V30 29732 H 2696.22 1.65579 -3.42473 0
M  V30 29733 H 2697.53 2.36658 -4.39083 0
M  V30 29734 H 2696.68 4.6658 -3.87799 0
M  V30 29735 H 2695.42 3.98495 -2.81164 0
M  V30 29736 H 2694.43 2.75256 -4.75935 0
M  V30 29737 H 2695.65 3.46435 -5.84089 0
M  V30 29738 H 2693.6 5.01969 -4.22331 0
M  V30 29739 H 2693.51 4.6967 -5.92407 0
M  V30 29740 H 2694.78 5.71174 -5.30453 0
M  V30 29741 N 2699.01 1.49585 0.49619 0
M  V30 29742 C 2699.96 1.66609 1.59719 0
M  V30 29743 C 2700.93 0.507504 1.58157 0
M  V30 29744 O 2702.11 0.735107 1.7607 0
M  V30 29745 C 2699.25 1.74313 2.97841 0
M  V30 29746 C 2698.37 3.01507 3.09382 0
M  V30 29747 C 2697.5 3.0016 4.38266 0
M  V30 29748 C 2696.54 4.21914 4.43458 0
M  V30 29749 N 2695.68 4.1845 5.63777 0
M  V30 29750 H 2700.52 2.60616 1.44511 0
M  V30 29751 H 2698.05 1.29213 0.703026 0
M  V30 29752 H 2700.01 1.7676 3.77904 0
M  V30 29753 H 2698.64 0.837674 3.11742 0
M  V30 29754 H 2697.69 3.08648 2.22352 0
M  V30 29755 H 2699.01 3.915 3.09079 0
M  V30 29756 H 2698.16 3.01198 5.26654 0
M  V30 29757 H 2696.9 2.07954 4.41142 0
M  V30 29758 H 2695.9 4.21116 3.53471 0
M  V30 29759 H 2697.13 5.15318 4.42294 0
M  V30 29760 H 2695.07 3.29084 5.67486 0
M  V30 29761 H 2694.99 5.02183 5.65109 0
M  V30 29762 H 2696.26 4.23597 6.54359 0
M  V30 29763 N 2700.49 -0.747586 1.3874 0
M  V30 29764 C 2701.42 -1.87489 1.39176 0
M  V30 29765 C 2702.4 -1.6815 0.256823 0
M  V30 29766 O 2703.58 -1.88654 0.460795 0
M  V30 29767 C 2700.71 -3.2509 1.22203 0
M  V30 29768 C 2699.67 -3.59043 2.32964 0
M  V30 29769 C 2698.99 -4.95446 2.01091 0
M  V30 29770 C 2700.29 -3.63304 3.75244 0
M  V30 29771 H 2701.99 -1.87382 2.33513 0
M  V30 29772 H 2699.53 -0.900114 1.12401 0
M  V30 29773 H 2701.49 -4.03615 1.21131 0
M  V30 29774 H 2700.21 -3.25693 0.243298 0
M  V30 29775 H 2698.87 -2.82841 2.33231 0
M  V30 29776 H 2698.52 -4.92614 1.01687 0
M  V30 29777 H 2698.22 -5.19131 2.75276 0
M  V30 29778 H 2699.74 -5.76342 2.01648 0
M  V30 29779 H 2701.16 -4.3193 3.76974 0
M  V30 29780 H 2699.55 -3.98501 4.48684 0
M  V30 29781 H 2700.62 -2.63393 4.07127 0
M  V30 29782 N 2701.97 -1.23709 -0.97642 0
M  V30 29783 C 2703.38 -1.0659 -1.53282 0
M  V30 29784 C 2703.73 0.365492 -1.92766 0
M  V30 29785 O 2702.85 1.25274 -1.76452 0
M  V30 29786 C 2703.45 -1.92869 -2.78544 0
M  V30 29787 C 2702.01 -1.8 -3.30571 0
M  V30 29788 C 2701.15 -1.88331 -2.03535 0
M  V30 29789 H 2704.11 -1.37313 -0.795668 0
M  V30 29790 H 2704.13 -1.45583 -3.51548 0
M  V30 29791 H 2703.64 -2.97041 -2.49776 0
M  V30 29792 H 2701.74 -0.786266 -3.6421 0
M  V30 29793 H 2701.85 -2.63607 -4.0006 0
M  V30 29794 H 2700.22 -1.31958 -2.17851 0
M  V30 29795 H 2701 -2.94067 -1.77143 0
M  V30 29796 N 2703.44 1.17579 -1.04943 0
M  V30 29797 C 2704.35 2.25158 -0.658866 0
M  V30 29798 C 2705.37 1.71053 0.318911 0
M  V30 29799 O 2706.55 2.00667 0.171634 0
M  V30 29800 C 2703.61 3.4668 -0.0370132 0
M  V30 29801 C 2702.67 4.15882 -1.06492 0
M  V30 29802 C 2701.91 5.31603 -0.472644 0
M  V30 29803 O 2702.13 5.65855 0.718637 0
M  V30 29804 O 2701.06 5.89701 -1.20568 0
M  V30 29805 H 2704.89 2.60848 -1.55537 0
M  V30 29806 H 2702.47 1.2483 -0.820841 0
M  V30 29807 H 2704.36 4.20268 0.30871 0
M  V30 29808 H 2703.03 3.12793 0.833183 0
M  V30 29809 H 2701.94 3.44324 -1.46259 0
M  V30 29810 H 2703.27 4.5379 -1.90618 0
M  V30 29811 N 2704.92 0.830104 1.33967 0
M  V30 29812 C 2705.83 0.259248 2.33163 0
M  V30 29813 C 2706.85 -0.610135 1.62952 0
M  V30 29814 O 2708.02 -0.516335 1.94669 0
M  V30 29815 C 2705.09 -0.563537 3.42089 0
M  V30 29816 C 2704.15 0.329089 4.28037 0
M  V30 29817 C 2703.38 -0.454522 5.31761 0
M  V30 29818 O 2703.61 -1.68711 5.44879 0
M  V30 29819 O 2702.54 0.1669 6.01669 0
M  V30 29820 H 2706.37 1.08046 2.83831 0
M  V30 29821 H 2703.95 0.592414 1.37153 0
M  V30 29822 H 2705.83 -1.0314 4.08583 0
M  V30 29823 H 2704.51 -1.36196 2.93654 0
M  V30 29824 H 2703.42 0.844602 3.64441 0
M  V30 29825 H 2704.75 1.09205 4.79932 0
M  V30 29826 N 2706.4 -1.46311 0.585725 0
M  V30 29827 C 2707.33 -2.33118 -0.133516 0
M  V30 29828 C 2708.31 -1.45527 -0.880682 0
M  V30 29829 O 2709.5 -1.74339 -0.855548 0
M  V30 29830 C 2706.63 -3.27855 -1.14579 0
M  V30 29831 C 2705.58 -4.24911 -0.513266 0
M  V30 29832 C 2704.91 -5.09178 -1.63222 0
M  V30 29833 C 2706.21 -5.1938 0.551504 0
M  V30 29834 H 2707.9 -2.93504 0.591261 0
M  V30 29835 H 2705.45 -1.41136 0.285786 0
M  V30 29836 H 2707.4 -3.87441 -1.65734 0
M  V30 29837 H 2706.12 -2.65583 -1.90088 0
M  V30 29838 H 2704.78 -3.66593 -0.0227705 0
M  V30 29839 H 2704.43 -4.43289 -2.37706 0
M  V30 29840 H 2704.13 -5.74909 -1.21463 0
M  V30 29841 H 2705.66 -5.71628 -2.14648 0
M  V30 29842 H 2707.07 -5.73164 0.124905 0
M  V30 29843 H 2705.47 -5.9347 0.88959 0
M  V30 29844 H 2706.54 -4.6313 1.43663 0
M  V30 29845 N 2707.88 -0.323668 -1.54241 0
M  V30 29846 C 2709.13 0.278324 -2.00174 0
M  V30 29847 C 2709.45 1.52646 -1.21343 0
M  V30 29848 O 2708.72 1.93346 -0.315278 0
M  V30 29849 H 2707.3 0.105832 -0.739465 0
M  V30 29850 H 2709.96 -0.440238 -1.89863 0
M  V30 29851 H 2709.06 0.534646 -3.07487 0
M  V30 29852 N 2709.36 1.57515 -0.0518432 0
M  V30 29853 C 2710.77 1.56664 0.304707 0
M  V30 29854 C 2710.97 1.05956 1.71393 0
M  V30 29855 O 2710.03 0.716457 2.42122 0
M  V30 29856 C 2711.34 3.00408 0.132562 0
M  V30 29857 C 2712.89 3.12337 0.203615 0
M  V30 29858 C 2713.37 4.57961 0.0599901 0
M  V30 29859 N 2714.86 4.63054 0.116245 0
M  V30 29860 C 2715.59 5.73393 0.0292355 0
M  V30 29861 N 2715.09 6.92712 -0.11016 0
M  V30 29862 N 2716.88 5.62036 0.0848663 0
M  V30 29863 H 2709.03 1.88798 -0.973089 0
M  V30 29864 H 2711.29 0.869468 -0.377796 0
M  V30 29865 H 2711 3.41544 -0.839079 0
M  V30 29866 H 2710.87 3.66469 0.893311 0
M  V30 29867 H 2713.26 2.71099 1.16573 0
M  V30 29868 H 2713.34 2.48953 -0.587901 0
M  V30 29869 H 2712.99 4.99884 -0.898802 0
M  V30 29870 H 2712.92 5.19353 0.870659 0
M  V30 29871 H 2715.41 3.7724 0.223204 0
M  V30 29872 H 2715.72 7.72615 -0.16924 0
M  V30 29873 H 2714.07 6.94848 -0.145254 0
M  V30 29874 H 2717.26 4.67705 0.192329 0
M  V30 29875 H 2717.43 6.47999 0.0135992 0
M  V30 29876 N 2710.84 -0.221546 1.56035 0
M  V30 29877 C 2712.11 -0.970271 1.69838 0
M  V30 29878 C 2712.49 -2.0242 0.5991 0
M  V30 29879 O 2711.84 -2.25079 -0.39389 0
M  V30 29880 C 2712.05 -1.5807 3.11151 0
M  V30 29881 C 2713.4 -2.07296 3.70559 0
M  V30 29882 O 2714.42 -1.67964 3.14112 0
M  V30 29883 O 2713.28 -2.79588 4.69567 0
M  V30 29884 H 2710.38 -0.453245 0.691735 0
M  V30 29885 H 2712.92 -0.213328 1.68354 0
M  V30 29886 H 2711.69 -0.819692 3.82618 0
M  V30 29887 H 2711.32 -2.40319 3.16753 0
M  V30 29888 N 2712.31 -1.49846 -0.48825 0
M  V30 29889 C 2713.25 -1.63587 -1.60536 0
M  V30 29890 C 2714.26 -0.517999 -1.54339 0
M  V30 29891 O 2715.45 -0.790544 -1.6004 0
M  V30 29892 C 2712.55 -1.5884 -2.99371 0
M  V30 29893 C 2711.72 -2.86374 -3.30619 0
M  V30 29894 C 2710.78 -2.74504 -4.48925 0
M  V30 29895 O 2709.81 -3.48451 -4.50078 0
M  V30 29896 N 2711.01 -1.86904 -5.49588 0
M  V30 29897 H 2713.77 -2.59938 -1.49171 0
M  V30 29898 H 2711.33 -1.47095 -0.676365 0
M  V30 29899 H 2713.33 -1.48536 -3.76456 0
M  V30 29900 H 2711.9 -0.702946 -3.04594 0
M  V30 29901 H 2711.12 -3.10934 -2.42309 0
M  V30 29902 H 2712.4 -3.70898 -3.48299 0
M  V30 29903 H 2711.8 -1.26107 -5.51465 0
M  V30 29904 H 2710.36 -1.82514 -6.25725 0
M  V30 29905 N 2713.79 0.740218 -1.39135 0
M  V30 29906 C 2714.74 1.87554 -1.37573 0
M  V30 29907 C 2715.73 1.67399 -0.259623 0
M  V30 29908 O 2716.94 1.74804 -0.42938 0
M  V30 29909 H 2713.31 0.617293 -0.42948 0
M  V30 29910 H 2715.29 1.85987 -2.33349 0
M  V30 29911 C 2714.03 3.25182 -1.23093 0
M  V30 29912 H 2713.36 3.41284 -2.08243 0
M  V30 29913 H 2714.8 4.04828 -1.26056 0
M  V30 29914 C 2713.26 3.36845 0.0610879 0
M  V30 29915 O 2713.79 3.88185 1.03321 0
M  V30 29916 N 2711.99 2.90342 0.122403 0
M  V30 29917 H 2711.54 2.48751 -0.669373 0
M  V30 29918 H 2711.5 2.98525 0.98641 0
M  V30 29919 N 2715.27 1.24225 0.969846 0
M  V30 29920 C 2716.5 1.10764 1.74754 0
M  V30 29921 C 2716.91 -0.340008 1.85713 0
M  V30 29922 O 2716.27 -1.23472 1.34391 0
M  V30 29923 C 2716.32 1.73922 3.16912 0
M  V30 29924 O 2716.04 3.13027 3.06506 0
M  V30 29925 C 2717.54 1.66043 4.11029 0
M  V30 29926 H 2714.76 0.387097 0.548085 0
M  V30 29927 H 2717.31 1.64288 1.21777 0
M  V30 29928 H 2715.46 1.24406 3.66881 0
M  V30 29929 H 2715.88 3.43841 3.96073 0
M  V30 29930 H 2717.35 2.1492 5.08442 0
M  V30 29931 H 2717.83 0.621235 4.34784 0
M  V30 29932 H 2718.43 2.14975 3.66968 0
M  V30 29933 N 2716.75 -1.1702 1.05565 0
M  V30 29934 C 2717.99 -1.8765 0.769107 0
M  V30 29935 C 2718.33 -1.81057 -0.702295 0
M  V30 29936 O 2717.6 -1.22115 -1.51388 0
M  V30 29937 C 2717.88 -3.37524 1.25498 0
M  V30 29938 C 2717.74 -3.52848 2.78959 0
M  V30 29939 C 2719.06 -4.31675 0.856994 0
M  V30 29940 H 2716.18 -0.681383 0.280866 0
M  V30 29941 H 2718.82 -1.37591 1.3103 0
M  V30 29942 H 2716.97 -3.80288 0.794583 0
M  V30 29943 H 2718.64 -3.19073 3.33151 0
M  V30 29944 H 2716.88 -2.95001 3.18051 0
M  V30 29945 H 2717.55 -4.5807 3.08019 0
M  V30 29946 H 2720.03 -3.96773 1.25341 0
M  V30 29947 H 2718.91 -5.35067 1.22452 0
M  V30 29948 H 2719.17 -4.41455 -0.238709 0
M  V30 29949 N 2718.23 -0.837197 -1.33524 0
M  V30 29950 C 2719.14 -0.271609 -2.33022 0
M  V30 29951 C 2720.15 0.601485 -1.63273 0
M  V30 29952 O 2721.33 0.506004 -1.9494 0
M  V30 29953 C 2718.39 0.545388 -3.42383 0
M  V30 29954 C 2717.45 -0.351784 -4.27856 0
M  V30 29955 C 2716.69 0.426315 -5.31995 0
M  V30 29956 O 2716.91 1.65819 -5.45766 0
M  V30 29957 O 2715.84 -0.198805 -6.01572 0
M  V30 29958 H 2719.67 -1.09549 -2.83254 0
M  V30 29959 H 2717.25 -0.599679 -1.36836 0
M  V30 29960 H 2719.14 1.00972 -4.09124 0
M  V30 29961 H 2717.81 1.34636 -2.94372 0
M  V30 29962 H 2716.72 -0.863917 -3.63988 0
M  V30 29963 H 2718.05 -1.11748 -4.79347 0
M  V30 29964 N 2719.7 1.45999 -0.593476 0
M  V30 29965 C 2720.93 2.06708 -0.0891297 0
M  V30 29966 C 2721.35 1.44048 1.22048 0
M  V30 29967 O 2720.7 0.549581 1.74028 0
M  V30 29968 C 2720.75 3.61428 0.0719628 0
M  V30 29969 O 2720.48 4.21746 -1.18582 0
M  V30 29970 C 2721.98 4.39091 0.60941 0
M  V30 29971 H 2719.2 0.668095 -0.0623745 0
M  V30 29972 H 2721.74 1.87462 -0.817204 0
M  V30 29973 H 2719.9 3.80065 0.750302 0
M  V30 29974 H 2720.31 5.14752 -1.00649 0
M  V30 29975 H 2721.78 5.47903 0.671267 0
M  V30 29976 H 2722.26 4.07884 1.62871 0
M  V30 29977 H 2722.87 4.25286 -0.0344148 0
M  V30 29978 N 2721.18 0.331843 1.54067 0
M  V30 29979 C 2722.11 -0.522892 2.2757 0
M  V30 29980 C 2723.09 -1.11244 1.28681 0
M  V30 29981 O 2724.28 -1.13603 1.57506 0
M  V30 29982 C 2721.41 -1.67981 3.03973 0
M  V30 29983 C 2720.36 -1.21917 4.10269 0
M  V30 29984 C 2719.69 -2.46369 4.74559 0
M  V30 29985 C 2720.99 -0.328058 5.21269 0
M  V30 29986 H 2722.68 0.0902503 2.99264 0
M  V30 29987 H 2720.23 0.0448463 1.4393 0
M  V30 29988 H 2722.18 -2.28412 3.54127 0
M  V30 29989 H 2720.91 -2.31967 2.2991 0
M  V30 29990 H 2719.56 -0.637745 3.6101 0
M  V30 29991 H 2719.21 -3.08736 3.97103 0
M  V30 29992 H 2718.91 -2.16234 5.46367 0
M  V30 29993 H 2720.44 -3.07546 5.27492 0
M  V30 29994 H 2721.85 -0.838878 5.67129 0
M  V30 29995 H 2720.25 -0.119122 5.99982 0
M  V30 29996 H 2721.32 0.638924 4.80672 0
M  V30 29997 N 2722.66 -1.57485 0.0601958 0
M  V30 29998 C 2723.59 -2.09018 -0.940433 0
M  V30 29999 C 2724.61 -1.01987 -1.26895 0
M  V30 30000 O 2725.79 -1.29531 -1.22817 0
M  V30 30001 C 2722.89 -2.52586 -2.2595 0
M  V30 30002 C 2722.07 -3.83056 -2.11156 0
M  V30 30003 C 2721.13 -4.1284 -3.26266 0
M  V30 30004 O 2720.15 -4.82621 -3.0177 0
M  V30 30005 N 2721.35 -3.65466 -4.51015 0
M  V30 30006 H 2724.12 -2.95491 -0.500526 0
M  V30 30007 H 2721.68 -1.6141 -0.125824 0
M  V30 30008 H 2723.67 -2.69581 -3.01842 0
M  V30 30009 H 2722.24 -1.71313 -2.61478 0
M  V30 30010 H 2721.46 -3.75554 -1.19802 0
M  V30 30011 H 2722.75 -4.68478 -1.98509 0
M  V30 30012 H 2722.15 -3.09071 -4.73806 0
M  V30 30013 H 2720.71 -3.87682 -5.23971 0
M  V30 30014 N 2724.14 0.213268 -1.5615 0
M  V30 30015 C 2725.55 0.563333 -1.49328 0
M  V30 30016 C 2725.75 1.86746 -0.756859 0
M  V30 30017 O 2724.81 2.50713 -0.29991 0
M  V30 30018 C 2726.12 0.634892 -2.93921 0
M  V30 30019 C 2727.67 0.72496 -3.04489 0
M  V30 30020 C 2728.15 0.82779 -4.50457 0
M  V30 30021 N 2729.64 0.891796 -4.54534 0
M  V30 30022 C 2730.37 0.991215 -5.64768 0
M  V30 30023 N 2729.87 1.05407 -6.84734 0
M  V30 30024 N 2731.66 1.027 -5.52638 0
M  V30 30025 H 2723.81 -0.642402 -2.02452 0
M  V30 30026 H 2726.08 -0.226503 -0.920544 0
M  V30 30027 H 2725.78 -0.253921 -3.50782 0
M  V30 30028 H 2725.66 1.49573 -3.46277 0
M  V30 30029 H 2728.04 1.60421 -2.47688 0
M  V30 30030 H 2728.12 -0.161714 -2.55288 0
M  V30 30031 H 2727.77 -0.0470357 -5.07878 0
M  V30 30032 H 2727.7 1.73 -4.97372 0
M  V30 30033 H 2730.19 0.853206 -3.68142 0
M  V30 30034 H 2730.5 1.12993 -7.64495 0
M  V30 30035 H 2728.85 1.02306 -6.87429 0
M  V30 30036 H 2732.04 0.974606 -4.57842 0
M  V30 30037 H 2732.21 1.10102 -6.38578 0
M  V30 30038 N 2725.62 1.50103 0.480296 0
M  V30 30039 C 2726.55 1.62922 1.59786 0
M  V30 30040 C 2727.53 0.477585 1.55428 0
M  V30 30041 O 2728.71 0.695882 1.75185 0
M  V30 30042 C 2725.84 1.60331 2.98348 0
M  V30 30043 C 2724.88 2.80943 3.20894 0
M  V30 30044 S 2725.72 4.42365 3.01784 0
M  V30 30045 C 2726.87 4.42452 4.42704 0
M  V30 30046 H 2727.11 2.57457 1.48672 0
M  V30 30047 H 2724.64 1.39251 0.666971 0
M  V30 30048 H 2726.6 1.59521 3.78237 0
M  V30 30049 H 2725.26 0.670473 3.06861 0
M  V30 30050 H 2724.45 2.75408 4.22097 0
M  V30 30051 H 2724.05 2.79272 2.48763 0
M  V30 30052 H 2726.35 4.15447 5.35173 0
M  V30 30053 H 2727.29 5.44003 4.53284 0
M  V30 30054 H 2727.7 3.72271 4.24352 0
M  V30 30055 N 2727.09 -0.732829 1.39526 0
M  V30 30056 C 2728.04 -1.83804 1.34908 0
M  V30 30057 C 2729.03 -1.59254 0.229574 0
M  V30 30058 O 2730.22 -1.7072 0.467285 0
M  V30 30059 C 2727.35 -3.21754 1.19704 0
M  V30 30060 C 2726.44 -3.52126 2.36365 0
M  V30 30061 N 2726.83 -3.5342 3.6184 0
M  V30 30062 C 2725.12 -3.82499 2.2937 0
M  V30 30063 C 2725.83 -3.81648 4.38999 0
M  V30 30064 N 2724.8 -3.99531 3.68613 0
M  V30 30065 H 2728.6 -1.83112 2.29885 0
M  V30 30066 H 2726.12 -0.93117 1.33053 0
M  V30 30067 H 2728.11 -4.00874 1.14479 0
M  V30 30068 H 2726.77 -3.23683 0.256796 0
M  V30 30069 H 2727.79 -3.3468 3.95234 0
M  V30 30070 H 2724.46 -3.9202 1.43619 0
M  V30 30071 H 2725.85 -3.89098 5.4777 0
M  V30 30072 N 2728.57 -1.24737 -0.963244 0
M  V30 30073 C 2729.8 -1.11689 -1.74164 0
M  V30 30074 C 2730.22 0.330155 -1.85891 0
M  V30 30075 O 2729.57 1.22757 -1.35044 0
M  V30 30076 C 2729.62 -1.756 -3.15985 0
M  V30 30077 O 2729.34 -3.14648 -3.04842 0
M  V30 30078 C 2730.85 -1.6822 -4.10142 0
M  V30 30079 H 2728.07 -0.389998 -0.546024 0
M  V30 30080 H 2730.61 -1.64931 -1.20904 0
M  V30 30081 H 2728.76 -1.2635 -3.66216 0
M  V30 30082 H 2729.18 -3.45936 -3.94244 0
M  V30 30083 H 2730.65 -2.17613 -5.07295 0
M  V30 30084 H 2731.13 -0.644284 -4.34449 0
M  V30 30085 H 2731.74 -2.16918 -3.65823 0
M  V30 30086 N 2730.05 1.16459 -1.06184 0
M  V30 30087 C 2731.28 1.90866 -0.798617 0
M  V30 30088 C 2731.69 1.77372 0.64689 0
M  V30 30089 O 2731.05 1.11761 1.44277 0
M  V30 30090 C 2731.1 3.41608 -1.18264 0
M  V30 30091 O 2730.82 3.54697 -2.57141 0
M  V30 30092 C 2732.32 4.33067 -0.946993 0
M  V30 30093 H 2729.54 0.605281 -0.289614 0
M  V30 30094 H 2732.09 1.47624 -1.41518 0
M  V30 30095 H 2730.24 3.82557 -0.61063 0
M  V30 30096 H 2730.66 4.48165 -2.72485 0
M  V30 30097 H 2732.13 5.37302 -1.26533 0
M  V30 30098 H 2732.61 4.39043 0.117329 0
M  V30 30099 H 2733.21 3.97844 -1.50333 0
M  V30 30100 N 2731.53 0.844266 1.33079 0
M  V30 30101 C 2732.78 0.442585 1.97604 0
M  V30 30102 C 2733.1 -0.999429 1.66858 0
M  V30 30103 O 2732.36 -1.71448 0.943616 0
M  V30 30104 C 2732.66 0.616416 3.52044 0
M  V30 30105 C 2732.32 2.02733 4.02753 0
M  V30 30106 C 2730.99 2.41325 4.16312 0
M  V30 30107 C 2733.34 2.94867 4.29771 0
M  V30 30108 C 2730.67 3.71343 4.54226 0
M  V30 30109 C 2733.02 4.24372 4.69138 0
M  V30 30110 C 2731.68 4.62913 4.80903 0
M  V30 30111 H 2730.95 0.161953 0.723085 0
M  V30 30112 H 2733.6 1.07233 1.58661 0
M  V30 30113 H 2731.9 -0.0966124 3.91681 0
M  V30 30114 H 2733.6 0.285826 3.9998 0
M  V30 30115 H 2730.19 1.71763 3.92677 0
M  V30 30116 H 2734.37 2.66288 4.18813 0
M  V30 30117 H 2729.63 4.01001 4.61528 0
M  V30 30118 H 2733.8 4.95835 4.89 0
M  V30 30119 H 2731.43 5.63706 5.10038 0
M  V30 30120 N 2733.01 -1.45682 0.60121 0
M  V30 30121 C 2733.92 -2.34275 -0.123354 0
M  V30 30122 C 2734.93 -1.50862 -0.866994 0
M  V30 30123 O 2736.11 -1.83682 -0.826017 0
M  V30 30124 C 2733.17 -3.28372 -1.11231 0
M  V30 30125 C 2732.23 -4.27691 -0.37133 0
M  V30 30126 C 2731.47 -5.17292 -1.31318 0
M  V30 30127 O 2731.69 -5.10192 -2.55069 0
M  V30 30128 O 2730.62 -5.96374 -0.813706 0
M  V30 30129 H 2734.45 -2.97622 0.604535 0
M  V30 30130 H 2732.04 -1.4496 0.361503 0
M  V30 30131 H 2733.92 -3.86373 -1.68208 0
M  V30 30132 H 2732.59 -2.67598 -1.82134 0
M  V30 30133 H 2731.5 -3.73325 0.240736 0
M  V30 30134 H 2732.83 -4.91303 0.297085 0
M  V30 30135 N 2734.48 -0.340009 -1.53889 0
M  V30 30136 C 2735.43 0.534315 -2.21651 0
M  V30 30137 C 2736.42 1.06885 -1.20268 0
M  V30 30138 O 2737.61 1.00314 -1.45829 0
M  V30 30139 C 2734.74 1.68653 -2.99017 0
M  V30 30140 C 2733.83 1.16611 -4.07753 0
M  V30 30141 N 2734.22 0.366628 -5.0447 0
M  V30 30142 C 2732.51 1.44333 -4.22 0
M  V30 30143 C 2733.22 0.0846253 -5.81638 0
M  V30 30144 N 2732.19 0.675296 -5.39389 0
M  V30 30145 H 2735.99 -0.0836079 -2.93781 0
M  V30 30146 H 2733.51 -0.146693 -1.61736 0
M  V30 30147 H 2735.5 2.32483 -3.4606 0
M  V30 30148 H 2734.16 2.30777 -2.28412 0
M  V30 30149 H 2735.18 0.00801935 -5.17899 0
M  V30 30150 H 2731.85 2.06921 -3.62615 0
M  V30 30151 H 2733.24 -0.56006 -6.69562 0
M  V30 30152 N 2735.96 1.57451 -0.0685468 0
M  V30 30153 C 2737.24 1.84759 0.642134 0
M  V30 30154 C 2737.62 0.960377 1.87989 0
M  V30 30155 O 2736.97 0.0258296 2.28485 0
M  V30 30156 C 2737.18 3.34874 0.982888 0
M  V30 30157 C 2738.53 4.02306 1.35777 0
M  V30 30158 O 2739.55 3.396 1.07471 0
M  V30 30159 O 2738.41 5.12899 1.88672 0
M  V30 30160 H 2735.5 0.763161 0.318612 0
M  V30 30161 H 2738.05 1.6941 -0.0992313 0
M  V30 30162 H 2736.82 3.91163 0.103652 0
M  V30 30163 H 2736.44 3.55474 1.78112 0
M  V30 30164 N 2737.44 -0.204984 1.56261 0
M  V30 30165 C 2738.69 -0.925026 1.79238 0
M  V30 30166 C 2739 -1.84832 0.640043 0
M  V30 30167 O 2740.21 -2.60824 0.753855 0
M  V30 30168 C 2738.67 -1.69517 3.17478 0
M  V30 30169 C 2738.27 -0.817191 4.40484 0
M  V30 30170 C 2740.02 -2.40543 3.4977 0
M  V30 30171 C 2737.92 -1.58563 5.69747 0
M  V30 30172 H 2736.85 -0.349141 0.668294 0
M  V30 30173 H 2739.51 -0.178512 1.8263 0
M  V30 30174 H 2737.89 -2.4852 3.08308 0
M  V30 30175 H 2739.06 -0.0665178 4.60752 0
M  V30 30176 H 2737.38 -0.218243 4.15828 0
M  V30 30177 H 2739.97 -2.98568 4.43578 0
M  V30 30178 H 2740.32 -3.14247 2.73047 0
M  V30 30179 H 2740.85 -1.68515 3.60344 0
M  V30 30180 H 2737.59 -0.891565 6.49408 0
M  V30 30181 H 2737.11 -2.31049 5.53513 0
M  V30 30182 H 2738.79 -2.14201 6.10514 0
M  V30 30183 N 2738.92 -1.50356 -0.472329 0
M  V30 30184 C 2739.85 -1.65281 -1.58792 0
M  V30 30185 C 2740.86 -0.53434 -1.53781 0
M  V30 30186 O 2742.05 -0.807474 -1.59192 0
M  V30 30187 C 2739.15 -1.62006 -2.9767 0
M  V30 30188 C 2738.33 -2.89864 -3.27563 0
M  V30 30189 C 2737.39 -2.7925 -4.45989 0
M  V30 30190 O 2736.41 -3.53205 -4.46357 0
M  V30 30191 N 2737.61 -1.92723 -5.47575 0
M  V30 30192 H 2740.38 -2.61506 -1.46406 0
M  V30 30193 H 2737.94 -1.47804 -0.660725 0
M  V30 30194 H 2739.93 -1.5252 -3.7486 0
M  V30 30195 H 2738.5 -0.735213 -3.03831 0
M  V30 30196 H 2737.72 -3.13487 -2.38997 0
M  V30 30197 H 2739.01 -3.74571 -3.44346 0
M  V30 30198 H 2738.41 -1.31949 -5.50096 0
M  V30 30199 H 2736.96 -1.89141 -6.23754 0
M  V30 30200 N 2740.4 0.725419 -1.39912 0
M  V30 30201 C 2741.36 1.82119 -1.3916 0
M  V30 30202 C 2742.36 1.58217 -0.287046 0
M  V30 30203 O 2743.55 1.6544 -0.54545 0
M  V30 30204 C 2740.68 3.2006 -1.17366 0
M  V30 30205 H 2741.88 1.84187 -2.36675 0
M  V30 30206 H 2739.43 0.930057 -1.25617 0
M  V30 30207 H 2740.16 3.23647 -0.205705 0
M  V30 30208 H 2739.95 3.38806 -1.97364 0
M  V30 30209 H 2741.44 4.00106 -1.19603 0
M  V30 30210 N 2741.88 1.25246 0.956615 0
M  V30 30211 C 2742.81 1.07935 2.07056 0
M  V30 30212 C 2743.79 -0.0110062 1.70096 0
M  V30 30213 O 2744.97 0.158155 1.93555 0
M  V30 30214 C 2742.1 0.695184 3.40271 0
M  V30 30215 C 2741.06 1.73555 3.91232 0
M  V30 30216 C 2740.38 1.20613 5.20919 0
M  V30 30217 C 2741.68 3.13392 4.17831 0
M  V30 30218 H 2743.38 2.01113 2.21797 0
M  V30 30219 H 2740.92 0.968345 1.06579 0
M  V30 30220 H 2742.87 0.561023 4.17649 0
M  V30 30221 H 2741.6 -0.272298 3.25463 0
M  V30 30222 H 2740.26 1.85812 3.16021 0
M  V30 30223 H 2739.91 0.228934 5.02479 0
M  V30 30224 H 2739.61 1.90146 5.55984 0
M  V30 30225 H 2741.13 1.08432 6.00895 0
M  V30 30226 H 2742.54 3.043 4.85875 0
M  V30 30227 H 2740.94 3.80377 4.64148 0
M  V30 30228 H 2742.01 3.60601 3.24183 0
M  V30 30229 N 2743.35 -1.15894 1.068 0
M  V30 30230 C 2744.6 -1.86179 0.786243 0
M  V30 30231 C 2744.92 -1.82403 -0.689515 0
M  V30 30232 O 2744.19 -1.2611 -1.49911 0
M  V30 30233 H 2742.77 -0.68931 0.287856 0
M  V30 30234 H 2745.43 -1.40518 1.35058 0
M  V30 30235 H 2744.53 -2.91475 1.11575 0
M  V30 30236 N 2744.83 -0.851312 -1.32629 0
M  V30 30237 C 2746.06 -0.466934 -2.01562 0
M  V30 30238 C 2746.47 0.935418 -1.63998 0
M  V30 30239 O 2745.83 1.60988 -0.859598 0
M  V30 30240 C 2745.88 -0.592496 -3.56611 0
M  V30 30241 O 2745.6 -1.9396 -3.92824 0
M  V30 30242 C 2747.1 -0.20669 -4.42818 0
M  V30 30243 H 2744.32 -0.183914 -0.645304 0
M  V30 30244 H 2746.87 -1.14733 -1.69283 0
M  V30 30245 H 2745.02 0.0401255 -3.87379 0
M  V30 30246 H 2745.44 -1.93399 -4.87542 0
M  V30 30247 H 2746.91 -0.345559 -5.50917 0
M  V30 30248 H 2747.39 0.852564 -4.30846 0
M  V30 30249 H 2747.99 -0.814249 -4.17433 0
M  V30 30250 N 2746.31 1.45361 -0.608928 0
M  V30 30251 C 2747.24 2.28726 0.147277 0
M  V30 30252 C 2748.25 1.40027 0.830443 0
M  V30 30253 O 2749.44 1.64388 0.695607 0
M  V30 30254 C 2746.54 3.15806 1.22963 0
M  V30 30255 C 2745.72 4.32791 0.633315 0
M  V30 30256 C 2744.78 5.0107 1.60673 0
M  V30 30257 O 2743.8 5.5782 1.13251 0
M  V30 30258 N 2745 5.00477 2.94114 0
M  V30 30259 H 2747.77 2.94267 -0.568066 0
M  V30 30260 H 2745.33 1.55564 -0.448507 0
M  V30 30261 H 2747.32 3.58348 1.88066 0
M  V30 30262 H 2745.89 2.52165 1.84747 0
M  V30 30263 H 2745.11 3.93713 -0.195831 0
M  V30 30264 H 2746.4 5.08345 0.215166 0
M  V30 30265 H 2745.8 4.55663 3.35242 0
M  V30 30266 H 2744.35 5.46879 3.54636 0
M  V30 30267 N 2747.79 0.348166 1.53706 0
M  V30 30268 C 2749.03 -0.247296 2.01287 0
M  V30 30269 C 2749.37 -1.49831 1.23548 0
M  V30 30270 O 2748.64 -1.91776 0.324364 0
M  V30 30271 C 2748.92 -0.556795 3.55769 0
M  V30 30272 C 2748.78 0.706642 4.44215 0
M  V30 30273 C 2750.1 -1.36453 4.18412 0
M  V30 30274 H 2747.22 -0.0884073 0.731678 0
M  V30 30275 H 2749.86 0.469616 1.84105 0
M  V30 30276 H 2748.01 -1.16755 3.70541 0
M  V30 30277 H 2749.68 1.34451 4.41271 0
M  V30 30278 H 2747.92 1.33059 4.12889 0
M  V30 30279 H 2748.59 0.445282 5.50201 0
M  V30 30280 H 2751.07 -0.848042 4.07366 0
M  V30 30281 H 2749.95 -1.54983 5.26566 0
M  V30 30282 H 2750.21 -2.36799 3.73335 0
M  V30 30283 N 2749.27 -1.57412 0.0768958 0
M  V30 30284 C 2750.68 -1.57129 -0.279745 0
M  V30 30285 C 2750.88 -1.08669 -1.69686 0
M  V30 30286 O 2749.94 -0.754886 -2.40952 0
M  V30 30287 C 2751.25 -3.00581 -0.0847526 0
M  V30 30288 C 2752.8 -3.12621 -0.153899 0
M  V30 30289 C 2753.27 -4.57998 0.0128751 0
M  V30 30290 N 2754.76 -4.6318 -0.0425621 0
M  V30 30291 C 2755.5 -5.73366 0.06199 0
M  V30 30292 N 2755 -6.92449 0.220351 0
M  V30 30293 N 2756.79 -5.621 0.00455952 0
M  V30 30294 H 2748.94 -1.87226 1.003 0
M  V30 30295 H 2751.2 -0.863347 0.391581 0
M  V30 30296 H 2750.91 -3.40166 0.89331 0
M  V30 30297 H 2750.78 -3.67844 -0.834896 0
M  V30 30298 H 2753.17 -2.72919 -1.12245 0
M  V30 30299 H 2753.25 -2.47986 0.627433 0
M  V30 30300 H 2752.89 -4.98391 0.978216 0
M  V30 30301 H 2752.82 -5.20672 -0.787924 0
M  V30 30302 H 2755.32 -3.77548 -0.16316 0
M  V30 30303 H 2755.63 -7.72248 0.292135 0
M  V30 30304 H 2753.97 -6.94529 0.25578 0
M  V30 30305 H 2757.16 -4.67952 -0.117897 0
M  V30 30306 H 2757.34 -6.47938 0.0894935 0
M  V30 30307 N 2750.74 0.196695 -1.56368 0
M  V30 30308 C 2751.68 1.2678 -1.90943 0
M  V30 30309 C 2752.69 1.41791 -0.799953 0
M  V30 30310 O 2753.88 1.42245 -1.07836 0
M  V30 30311 C 2750.98 2.64017 -2.12482 0
M  V30 30312 C 2750.15 2.70635 -3.43621 0
M  V30 30313 C 2749.21 3.89056 -3.54291 0
M  V30 30314 O 2748.24 3.76233 -4.27126 0
M  V30 30315 N 2749.44 5.04442 -2.87261 0
M  V30 30316 H 2752.2 0.974367 -2.83419 0
M  V30 30317 H 2749.76 0.386621 -1.57216 0
M  V30 30318 H 2751.76 3.41661 -2.1691 0
M  V30 30319 H 2750.33 2.85855 -1.26513 0
M  V30 30320 H 2749.55 1.79277 -3.51075 0
M  V30 30321 H 2750.83 2.72047 -4.29963 0
M  V30 30322 H 2750.23 5.17758 -2.2791 0
M  V30 30323 H 2748.79 5.80039 -2.97318 0
M  V30 30324 N 2752.22 1.50604 0.464349 0
M  V30 30325 C 2753.15 1.72892 1.56941 0
M  V30 30326 C 2754.13 0.578025 1.59978 0
M  V30 30327 O 2755.32 0.817886 1.76137 0
M  V30 30328 C 2752.45 1.82925 2.95222 0
M  V30 30329 C 2751.4 2.98167 3.07051 0
M  V30 30330 C 2750.73 2.9335 4.47045 0
M  V30 30331 C 2752.03 4.38572 2.8364 0
M  V30 30332 H 2753.72 2.65417 1.38542 0
M  V30 30333 H 2751.27 1.27722 0.665059 0
M  V30 30334 H 2753.22 1.97101 3.72464 0
M  V30 30335 H 2751.95 0.870264 3.14792 0
M  V30 30336 H 2750.6 2.83652 2.32243 0
M  V30 30337 H 2750.25 1.95284 4.63544 0
M  V30 30338 H 2749.95 3.7072 4.55895 0
M  V30 30339 H 2751.48 3.09584 5.26298 0
M  V30 30340 H 2752.89 4.53578 3.50628 0
M  V30 30341 H 2751.29 5.17444 3.03928 0
M  V30 30342 H 2752.36 4.50475 1.79443 0
M  V30 30343 N 2753.7 -0.717989 1.40295 0
M  V30 30344 C 2754.63 -1.84281 1.36284 0
M  V30 30345 C 2755.65 -1.60568 0.26865 0
M  V30 30346 O 2756.83 -1.70487 0.528827 0
M  V30 30347 C 2753.93 -3.20638 1.09747 0
M  V30 30348 C 2753.11 -3.71567 2.30774 0
M  V30 30349 C 2752.17 -4.86532 2.00433 0
M  V30 30350 O 2751.19 -4.99308 2.73277 0
M  V30 30351 N 2752.39 -5.72154 0.980825 0
M  V30 30352 H 2755.16 -1.88221 2.33223 0
M  V30 30353 H 2752.72 -0.899429 1.34618 0
M  V30 30354 H 2754.71 -3.95141 0.874391 0
M  V30 30355 H 2753.28 -3.11861 0.214826 0
M  V30 30356 H 2752.5 -2.88223 2.68926 0
M  V30 30357 H 2753.79 -4.02329 3.11462 0
M  V30 30358 H 2753.19 -5.64439 0.377474 0
M  V30 30359 H 2751.75 -6.46651 0.817651 0
M  V30 30360 N 2755.18 -1.25752 -0.94996 0
M  V30 30361 C 2756.09 -1.08299 -2.08107 0
M  V30 30362 C 2757.1 -0.0188487 -1.7399 0
M  V30 30363 O 2758.28 -0.220759 -2.00186 0
M  V30 30364 C 2755.35 -0.708594 -3.39382 0
M  V30 30365 C 2754.41 -1.85118 -3.87337 0
M  V30 30366 C 2753.64 -1.49456 -5.12346 0
M  V30 30367 O 2753.86 -0.392312 -5.69049 0
M  V30 30368 O 2752.8 -2.32634 -5.55126 0
M  V30 30369 H 2756.62 -2.03169 -2.25735 0
M  V30 30370 H 2754.21 -1.04733 -1.06543 0
M  V30 30371 H 2756.09 -0.512134 -4.18276 0
M  V30 30372 H 2754.76 0.210797 -3.23013 0
M  V30 30373 H 2753.67 -2.10254 -3.09426 0
M  V30 30374 H 2755 -2.74998 -4.08212 0
M  V30 30375 N 2756.66 1.15326 -1.07413 0
M  V30 30376 C 2757.93 1.82229 -0.710764 0
M  V30 30377 C 2758.31 1.95078 0.806697 0
M  V30 30378 O 2757.66 1.50271 1.72136 0
M  V30 30379 C 2757.87 3.18541 -1.42592 0
M  V30 30380 C 2759.22 3.94171 -1.57843 0
M  V30 30381 O 2760.24 3.28097 -1.38674 0
M  V30 30382 O 2759.1 5.12635 -1.89389 0
M  V30 30383 H 2756.2 0.787355 -0.252984 0
M  V30 30384 H 2758.74 1.22432 -1.1751 0
M  V30 30385 H 2757.51 3.04291 -2.46013 0
M  V30 30386 H 2757.14 3.86025 -0.9524 0
M  V30 30387 N 2758.13 0.858334 1.32176 0
M  V30 30388 C 2759.1 0.310628 2.27085 0
M  V30 30389 C 2760.1 -0.53178 1.51752 0
M  V30 30390 O 2761.29 -0.34276 1.70795 0
M  V30 30391 C 2758.42 -0.56012 3.36267 0
M  V30 30392 H 2759.61 1.14835 2.77043 0
M  V30 30393 H 2757.17 0.632967 1.4291 0
M  V30 30394 H 2757.9 -1.41951 2.91583 0
M  V30 30395 H 2757.69 0.0429162 3.92077 0
M  V30 30396 H 2759.18 -0.935984 4.06976 0
M  V30 30397 N 2759.61 -1.45036 0.616628 0
M  V30 30398 C 2760.58 -2.29035 -0.087071 0
M  V30 30399 C 2761.58 -1.40259 -0.78639 0
M  V30 30400 O 2762.77 -1.62285 -0.633178 0
M  V30 30401 C 2759.9 -3.21499 -1.13364 0
M  V30 30402 H 2761.09 -2.92737 0.651549 0
M  V30 30403 H 2758.64 -1.51708 0.376085 0
M  V30 30404 H 2759.38 -2.62616 -1.90272 0
M  V30 30405 H 2759.16 -3.86903 -0.63629 0
M  V30 30406 H 2760.65 -3.84635 -1.6262 0
M  V30 30407 N 2761.09 -0.356312 -1.53519 0
M  V30 30408 C 2762.51 -0.00488072 -1.59599 0
M  V30 30409 C 2762.71 1.47593 -1.37181 0
M  V30 30410 O 2761.76 2.23632 -1.17238 0
M  V30 30411 C 2763.08 -0.452506 -2.97276 0
M  V30 30412 C 2764.62 -0.405935 -3.10357 0
M  V30 30413 C 2765.1 -0.829228 -4.50431 0
M  V30 30414 N 2766.59 -0.783918 -4.56518 0
M  V30 30415 C 2767.32 -1.08324 -5.63075 0
M  V30 30416 N 2766.82 -1.45138 -6.77427 0
M  V30 30417 N 2768.61 -1.00665 -5.53013 0
M  V30 30418 H 2760.76 -1.32074 -1.66344 0
M  V30 30419 H 2763.03 -0.539232 -0.779701 0
M  V30 30420 H 2762.73 -1.48547 -3.18789 0
M  V30 30421 H 2762.61 0.165696 -3.76836 0
M  V30 30422 H 2764.99 0.617883 -2.88559 0
M  V30 30423 H 2765.08 -1.05951 -2.32826 0
M  V30 30424 H 2764.72 -1.85112 -4.72965 0
M  V30 30425 H 2764.65 -0.152998 -5.26378 0
M  V30 30426 H 2767.14 -0.512579 -3.74408 0
M  V30 30427 H 2767.45 -1.66428 -7.54666 0
M  V30 30428 H 2765.8 -1.48995 -6.78841 0
M  V30 30429 H 2768.99 -0.718297 -4.62556 0
M  V30 30430 H 2769.16 -1.24326 -6.35962 0
M  V30 30431 N 2762.57 1.57369 -0.0852427 0
M  V30 30432 C 2763.5 2.16505 0.874518 0
M  V30 30433 C 2764.48 1.0957 1.30109 0
M  V30 30434 O 2765.66 1.37665 1.36975 0
M  V30 30435 C 2762.79 2.73749 2.13726 0
M  V30 30436 C 2761.75 3.85969 1.84964 0
M  V30 30437 C 2761.07 4.29873 3.17983 0
M  V30 30438 C 2762.37 5.0961 1.14433 0
M  V30 30439 H 2764.07 2.96955 0.381847 0
M  V30 30440 H 2761.61 1.42842 0.182225 0
M  V30 30441 H 2763.57 3.13768 2.81297 0
M  V30 30442 H 2762.29 1.90539 2.65259 0
M  V30 30443 H 2760.95 3.46475 1.19794 0
M  V30 30444 H 2760.6 3.43567 3.67384 0
M  V30 30445 H 2760.3 5.05528 2.99525 0
M  V30 30446 H 2761.82 4.72518 3.86729 0
M  V30 30447 H 2763.24 5.4686 1.72096 0
M  V30 30448 H 2761.63 5.9063 1.06187 0
M  V30 30449 H 2762.7 4.84738 0.125505 0
M  V30 30450 N 2764.05 -0.188399 1.5647 0
M  V30 30451 C 2764.98 -1.25766 1.91613 0
M  V30 30452 C 2765.99 -1.41364 0.807461 0
M  V30 30453 O 2767.18 -1.41671 1.08589 0
M  V30 30454 C 2764.28 -2.62886 2.13879 0
M  V30 30455 C 2763.45 -2.68809 3.45051 0
M  V30 30456 C 2762.51 -3.87172 3.56349 0
M  V30 30457 O 2761.54 -3.73963 4.29116 0
M  V30 30458 N 2762.74 -5.02911 2.89932 0
M  V30 30459 H 2765.51 -0.959323 2.83931 0
M  V30 30460 H 2763.07 -0.378278 1.57419 0
M  V30 30461 H 2765.06 -3.40506 2.18718 0
M  V30 30462 H 2763.63 -2.8518 1.28027 0
M  V30 30463 H 2762.85 -1.77412 3.52021 0
M  V30 30464 H 2764.14 -2.69763 4.314 0
M  V30 30465 H 2763.53 -5.16542 2.30653 0
M  V30 30466 H 2762.09 -5.78454 3.0039 0
M  V30 30467 N 2765.53 -1.50848 -0.456355 0
M  V30 30468 C 2766.49 -1.70216 -1.5349 0
M  V30 30469 C 2767.49 -0.572507 -1.50263 0
M  V30 30470 O 2768.68 -0.839777 -1.52622 0
M  V30 30471 C 2765.81 -1.74105 -2.93088 0
M  V30 30472 H 2767 -2.66455 -1.37628 0
M  V30 30473 H 2764.56 -1.40551 -0.683751 0
M  V30 30474 H 2765.29 -0.796119 -3.14376 0
M  V30 30475 H 2765.08 -2.56185 -2.96836 0
M  V30 30476 H 2766.57 -1.90993 -3.71364 0
M  V30 30477 N 2767 0.710538 -1.40674 0
M  V30 30478 C 2767.97 1.80633 -1.41083 0
M  V30 30479 C 2768.97 1.57904 -0.303811 0
M  V30 30480 O 2770.16 1.64852 -0.562966 0
M  V30 30481 C 2767.29 3.18797 -1.20754 0
M  V30 30482 H 2768.48 1.81666 -2.38615 0
M  V30 30483 H 2766.03 0.916682 -1.26596 0
M  V30 30484 H 2766.77 3.23411 -0.240021 0
M  V30 30485 H 2766.55 3.36694 -2.00947 0
M  V30 30486 H 2768.04 3.98815 -1.2384 0
M  V30 30487 N 2768.48 1.26254 0.943277 0
M  V30 30488 C 2769.71 1.1428 1.72115 0
M  V30 30489 C 2770.12 -0.304911 1.86727 0
M  V30 30490 O 2769.46 -1.22074 1.37272 0
M  V30 30491 C 2769.52 1.73657 3.14775 0
M  V30 30492 C 2769.19 3.2274 3.23555 0
M  V30 30493 C 2770.19 4.19584 3.06993 0
M  V30 30494 C 2767.87 3.63163 3.47013 0
M  V30 30495 C 2769.86 5.54831 3.13753 0
M  V30 30496 C 2767.55 4.98544 3.53408 0
M  V30 30497 C 2768.55 5.94188 3.36794 0
M  V30 30498 O 2768.24 7.27104 3.42893 0
M  V30 30499 H 2767.97 0.398882 0.545774 0
M  V30 30500 H 2770.52 1.6733 1.19121 0
M  V30 30501 H 2768.75 1.15067 3.69184 0
M  V30 30502 H 2770.44 1.56619 3.74467 0
M  V30 30503 H 2771.21 3.89693 2.88729 0
M  V30 30504 H 2767.09 2.89205 3.59001 0
M  V30 30505 H 2770.63 6.29463 3.00703 0
M  V30 30506 H 2766.53 5.28097 3.71192 0
M  V30 30507 H 2767.3 7.35349 3.5945 0
M  V30 30508 N 2769.96 -1.14755 1.08024 0
M  V30 30509 C 2770.92 -2.17909 0.710519 0
M  V30 30510 C 2771.92 -1.58802 -0.252703 0
M  V30 30511 O 2773.11 -1.74169 -0.0327609 0
M  V30 30512 C 2770.24 -3.40866 0.0483802 0
M  V30 30513 H 2771.44 -2.52131 1.62389 0
M  V30 30514 H 2768.99 -1.29335 0.877618 0
M  V30 30515 H 2769.73 -3.12219 -0.876904 0
M  V30 30516 H 2769.51 -3.8503 0.741256 0
M  V30 30517 H 2771 -4.17143 -0.195397 0
M  V30 30518 N 2771.44 -0.865331 -1.31719 0
M  V30 30519 C 2772.69 -0.47303 -1.96486 0
M  V30 30520 C 2773.01 0.976946 -1.68762 0
M  V30 30521 O 2772.28 1.68422 -1.00054 0
M  V30 30522 H 2770.86 -0.171934 -0.726944 0
M  V30 30523 H 2773.52 -1.1041 -1.6061 0
M  V30 30524 H 2772.61 -0.626924 -3.05739 0
M  V30 30525 N 2772.92 1.44707 -0.624311 0
M  V30 30526 C 2774.19 1.95516 -0.0573125 0
M  V30 30527 C 2774.57 1.56644 1.41513 0
M  V30 30528 O 2773.92 0.837148 2.12613 0
M  V30 30529 C 2774.13 3.47931 -0.273005 0
M  V30 30530 C 2775.48 4.24289 -0.162603 0
M  V30 30531 O 2776.5 3.55615 -0.204009 0
M  V30 30532 O 2775.36 5.46465 -0.0617807 0
M  V30 30533 H 2772.46 0.826585 0.0262073 0
M  V30 30534 H 2775 1.54791 -0.695539 0
M  V30 30535 H 2773.77 3.6925 -1.29499 0
M  V30 30536 H 2773.4 3.95586 0.399687 0
M  V30 30537 N 2774.39 0.364449 1.53328 0
M  V30 30538 C 2775.34 -0.482567 2.25699 0
M  V30 30539 C 2776.31 -1.07846 1.26327 0
M  V30 30540 O 2777.5 -1.11116 1.55106 0
M  V30 30541 C 2774.64 -1.61694 3.04876 0
M  V30 30542 C 2773.75 -1.04633 4.19137 0
M  V30 30543 C 2772.88 -2.14971 4.85758 0
M  V30 30544 C 2771.92 -1.5537 5.92053 0
M  V30 30545 N 2771.06 -2.59535 6.52369 0
M  V30 30546 H 2775.9 0.141084 2.97666 0
M  V30 30547 H 2773.44 0.081395 1.46875 0
M  V30 30548 H 2775.39 -2.28509 3.49055 0
M  V30 30549 H 2774.02 -2.21126 2.35166 0
M  V30 30550 H 2773.08 -0.268486 3.79451 0
M  V30 30551 H 2774.39 -0.570566 4.95526 0
M  V30 30552 H 2773.54 -2.89609 5.33115 0
M  V30 30553 H 2772.28 -2.65899 4.08839 0
M  V30 30554 H 2771.29 -0.792453 5.44059 0
M  V30 30555 H 2772.51 -1.05268 6.70892 0
M  V30 30556 H 2770.46 -3.09679 5.78304 0
M  V30 30557 H 2770.37 -2.16642 7.24294 0
M  V30 30558 H 2771.64 -3.3388 7.04375 0
M  V30 30559 N 2775.87 -1.57322 0.0935872 0
M  V30 30560 C 2776.83 -2.128 -0.851389 0
M  V30 30561 C 2777.83 -1.05692 -1.21185 0
M  V30 30562 O 2779.02 -1.31585 -1.14154 0
M  V30 30563 C 2776.16 -2.64735 -2.14775 0
M  V30 30564 H 2777.35 -2.97613 -0.369681 0
M  V30 30565 H 2774.9 -1.55526 -0.15539 0
M  V30 30566 H 2775.64 -1.83438 -2.67434 0
M  V30 30567 H 2775.42 -3.43045 -1.89901 0
M  V30 30568 H 2776.91 -3.07656 -2.82378 0
M  V30 30569 N 2777.35 0.180099 -1.56568 0
M  V30 30570 C 2778.63 0.924901 -1.72351 0
M  V30 30571 C 2779.01 2.00761 -0.652558 0
M  V30 30572 O 2778.35 2.26045 0.334075 0
M  V30 30573 C 2778.56 1.49765 -3.15232 0
M  V30 30574 C 2779.91 1.97398 -3.75924 0
M  V30 30575 O 2780.94 1.59577 -3.18455 0
M  V30 30576 O 2779.8 2.6704 -4.76814 0
M  V30 30577 H 2776.89 0.434746 -0.703509 0
M  V30 30578 H 2779.44 0.168617 -1.6886 0
M  V30 30579 H 2778.21 0.71796 -3.84657 0
M  V30 30580 H 2777.83 2.31836 -3.23013 0
M  V30 30581 N 2778.83 1.51088 0.448349 0
M  V30 30582 C 2780.1 1.53743 1.20923 0
M  V30 30583 C 2780.48 0.295258 2.09025 0
M  V30 30584 O 2779.83 -0.720245 2.16852 0
M  V30 30585 C 2780.04 2.84556 2.02062 0
M  V30 30586 C 2781.39 3.36088 2.5948 0
M  V30 30587 O 2782.41 2.86032 2.12284 0
M  V30 30588 O 2781.27 4.23403 3.45531 0
M  V30 30589 H 2778.37 0.617653 0.54994 0
M  V30 30590 H 2780.91 1.63394 0.458315 0
M  V30 30591 H 2779.69 3.66427 1.37284 0
M  V30 30592 H 2779.31 2.78016 2.84241 0
M  V30 30593 N 2780.31 -0.703068 1.41049 0
M  V30 30594 C 2781.56 -1.45868 1.39303 0
M  V30 30595 C 2781.87 -1.956 0.00270515 0
M  V30 30596 O 2783.07 -2.71152 -0.137366 0
M  V30 30597 C 2781.53 -2.63731 2.44896 0
M  V30 30598 C 2781.14 -2.20817 3.898 0
M  V30 30599 C 2782.88 -3.41404 2.52276 0
M  V30 30600 C 2780.79 -3.35594 4.86961 0
M  V30 30601 H 2779.72 -0.547884 0.518015 0
M  V30 30602 H 2782.37 -0.763979 1.6684 0
M  V30 30603 H 2780.75 -3.35432 2.10478 0
M  V30 30604 H 2781.93 -1.56454 4.33427 0
M  V30 30605 H 2780.24 -1.56156 3.86011 0
M  V30 30606 H 2782.84 -4.26834 3.22051 0
M  V30 30607 H 2783.18 -3.86078 1.55721 0
M  V30 30608 H 2783.71 -2.76755 2.85747 0
M  V30 30609 H 2780.45 -2.95939 5.84893 0
M  V30 30610 H 2779.97 -3.98831 4.47989 0
M  V30 30611 H 2781.65 -4.0148 5.07368 0
M  V30 30612 N 2781.78 -1.26752 -0.936569 0
M  V30 30613 C 2782.72 -1.04504 -2.03989 0
M  V30 30614 C 2783.73 -0.00397122 -1.628 0
M  V30 30615 O 2784.92 -0.244558 -1.76817 0
M  V30 30616 C 2782.02 -0.561462 -3.34217 0
M  V30 30617 C 2781.19 -1.67281 -4.04148 0
M  V30 30618 C 2780.25 -1.18649 -5.12649 0
M  V30 30619 O 2779.28 -1.88446 -5.371 0
M  V30 30620 N 2780.48 -0.03738 -5.80488 0
M  V30 30621 H 2783.24 -1.99512 -2.2364 0
M  V30 30622 H 2780.8 -1.182 -1.10636 0
M  V30 30623 H 2782.8 -0.220207 -4.041 0
M  V30 30624 H 2781.37 0.295156 -3.11203 0
M  V30 30625 H 2780.59 -2.18478 -3.28117 0
M  V30 30626 H 2781.87 -2.41893 -4.47622 0
M  V30 30627 H 2781.27 0.545395 -5.63065 0
M  V30 30628 H 2779.83 0.244763 -6.5134 0
M  V30 30629 N 2783.26 1.1418 -1.08631 0
M  V30 30630 C 2784.21 2.19337 -0.718338 0
M  V30 30631 C 2785.18 1.63431 0.296558 0
M  V30 30632 O 2786.36 1.89949 0.180046 0
M  V30 30633 C 2783.5 3.44831 -0.136264 0
M  V30 30634 C 2782.62 4.14877 -1.20421 0
M  V30 30635 C 2781.75 5.27961 -0.585759 0
M  V30 30636 C 2780.79 5.89843 -1.63559 0
M  V30 30637 N 2779.93 6.94373 -1.03876 0
M  V30 30638 H 2784.77 2.50161 -1.61937 0
M  V30 30639 H 2782.31 1.22842 -0.809211 0
M  V30 30640 H 2784.26 4.16625 0.218948 0
M  V30 30641 H 2782.89 3.14482 0.728065 0
M  V30 30642 H 2781.95 3.41448 -1.67682 0
M  V30 30643 H 2783.26 4.56962 -1.99967 0
M  V30 30644 H 2782.41 6.06436 -0.178924 0
M  V30 30645 H 2781.15 4.87103 0.241334 0
M  V30 30646 H 2780.16 5.10069 -2.05206 0
M  V30 30647 H 2781.38 6.32775 -2.4652 0
M  V30 30648 H 2779.33 6.55587 -0.232803 0
M  V30 30649 H 2779.24 7.34957 -1.77129 0
M  V30 30650 H 2780.51 7.76719 -0.65786 0
M  V30 30651 N 2784.74 0.872304 1.31258 0
M  V30 30652 C 2786.16 0.564547 1.49282 0
M  V30 30653 C 2786.36 -0.900776 1.80245 0
M  V30 30654 O 2785.41 -1.68281 1.88249 0
M  V30 30655 C 2786.73 1.46677 2.625 0
M  V30 30656 C 2788.27 1.46906 2.76383 0
M  V30 30657 C 2788.75 2.35691 3.92701 0
M  V30 30658 N 2790.24 2.33584 3.99991 0
M  V30 30659 C 2790.97 2.99001 4.89271 0
M  V30 30660 N 2790.47 3.73596 5.83436 0
M  V30 30661 N 2792.26 2.88297 4.82536 0
M  V30 30662 H 2784.41 1.82041 1.09429 0
M  V30 30663 H 2786.68 0.77852 0.540935 0
M  V30 30664 H 2786.38 2.50955 2.46403 0
M  V30 30665 H 2786.26 1.16702 3.58693 0
M  V30 30666 H 2788.64 0.433848 2.91893 0
M  V30 30667 H 2788.73 1.80906 1.8085 0
M  V30 30668 H 2788.37 3.3929 3.77948 0
M  V30 30669 H 2788.3 1.99014 4.87546 0
M  V30 30670 H 2790.79 1.79365 3.32621 0
M  V30 30671 H 2791.1 4.20633 6.48296 0
M  V30 30672 H 2789.45 3.77704 5.83408 0
M  V30 30673 H 2792.64 2.29558 4.07947 0
M  V30 30674 H 2792.81 3.39558 5.5191 0
M  V30 30675 N 2786.22 -1.44374 0.631976 0
M  V30 30676 C 2787.13 -2.34484 -0.0736328 0
M  V30 30677 C 2788.14 -1.52667 -0.834798 0
M  V30 30678 O 2789.32 -1.85392 -0.786869 0
M  V30 30679 C 2786.39 -3.30658 -1.04241 0
M  V30 30680 C 2785.45 -4.28382 -0.280527 0
M  V30 30681 C 2784.68 -5.19961 -1.20316 0
M  V30 30682 O 2784.9 -5.15488 -2.44189 0
M  V30 30683 O 2783.84 -5.97966 -0.687023 0
M  V30 30684 H 2787.66 -2.96273 0.667529 0
M  V30 30685 H 2785.25 -1.44161 0.392169 0
M  V30 30686 H 2787.13 -3.89854 -1.59974 0
M  V30 30687 H 2785.8 -2.71401 -1.76417 0
M  V30 30688 H 2784.71 -3.7273 0.31987 0
M  V30 30689 H 2786.04 -4.90562 0.40123 0
M  V30 30690 N 2787.7 -0.372575 -1.53133 0
M  V30 30691 C 2788.64 0.485641 -2.27474 0
M  V30 30692 C 2789.64 1.07743 -1.30721 0
M  V30 30693 O 2790.84 1.01982 -1.48323 0
M  V30 30694 H 2787.22 0.175343 -0.731272 0
M  V30 30695 H 2789.19 -0.163038 -2.97954 0
M  V30 30696 C 2787.94 1.60972 -3.08193 0
M  V30 30697 H 2787.26 1.16366 -3.8249 0
M  V30 30698 H 2788.7 2.18479 -3.63377 0
M  V30 30699 C 2787.16 2.5561 -2.19465 0
M  V30 30700 O 2787.69 3.58604 -1.81014 0
M  V30 30701 N 2785.9 2.24961 -1.83958 0
M  V30 30702 H 2785.44 1.41243 -2.15425 0
M  V30 30703 H 2785.4 2.88535 -1.24879 0
M  V30 30704 N 2789.17 1.5727 -0.101929 0
M  V30 30705 C 2790.08 2.17927 0.868608 0
M  V30 30706 C 2791.1 1.15062 1.30525 0
M  V30 30707 O 2792.28 1.47461 1.37176 0
M  V30 30708 C 2789.34 2.75313 2.10722 0
M  V30 30709 C 2788.4 3.93157 1.72413 0
M  V30 30710 C 2787.64 4.47796 2.9037 0
M  V30 30711 O 2787.86 4.0136 4.05298 0
M  V30 30712 O 2786.79 5.38724 2.68441 0
M  V30 30713 H 2790.62 3.01282 0.382491 0
M  V30 30714 H 2788.2 1.48895 0.122786 0
M  V30 30715 H 2790.09 3.11963 2.83297 0
M  V30 30716 H 2788.76 1.95 2.58373 0
M  V30 30717 H 2787.67 3.61306 0.969975 0
M  V30 30718 H 2789 4.74853 1.29519 0
M  V30 30719 N 2790.65 -0.171793 1.56661 0
M  V30 30720 C 2791.9 -0.889813 1.82237 0
M  V30 30721 C 2792.23 -1.81917 0.679705 0
M  V30 30722 O 2791.51 -1.91877 -0.31837 0
M  V30 30723 C 2791.79 -1.68589 3.18198 0
M  V30 30724 C 2791.64 -0.779695 4.42991 0
M  V30 30725 C 2792.96 -2.65368 3.51095 0
M  V30 30726 H 2790.08 -0.322044 0.662915 0
M  V30 30727 H 2792.72 -0.156047 1.89358 0
M  V30 30728 H 2790.87 -2.31144 3.12257 0
M  V30 30729 H 2792.54 -0.167059 4.60997 0
M  V30 30730 H 2790.79 -0.0877201 4.33711 0
M  V30 30731 H 2791.46 -1.37221 5.34672 0
M  V30 30732 H 2793.93 -2.1294 3.57485 0
M  V30 30733 H 2792.81 -3.18136 4.47304 0
M  V30 30734 H 2793.07 -3.45544 2.75775 0
M  V30 30735 N 2792.13 -1.51324 -0.44033 0
M  V30 30736 C 2793.06 -1.75367 -1.54171 0
M  V30 30737 C 2794.04 -0.603403 -1.59038 0
M  V30 30738 O 2795.23 -0.845804 -1.74814 0
M  V30 30739 C 2792.36 -1.87598 -2.92274 0
M  V30 30740 C 2791.31 -3.03014 -3.02269 0
M  V30 30741 C 2790.64 -3.00425 -4.42322 0
M  V30 30742 C 2791.94 -4.43029 -2.76627 0
M  V30 30743 H 2793.63 -2.67588 -1.34302 0
M  V30 30744 H 2791.18 -1.28764 -0.644656 0
M  V30 30745 H 2793.13 -2.03002 -3.69281 0
M  V30 30746 H 2791.85 -0.920234 -3.13368 0
M  V30 30747 H 2790.51 -2.87311 -2.27701 0
M  V30 30748 H 2790.16 -2.02634 -4.60379 0
M  V30 30749 H 2789.86 -3.77926 -4.49939 0
M  V30 30750 H 2791.38 -3.17918 -5.21306 0
M  V30 30751 H 2792.8 -4.59099 -3.43368 0
M  V30 30752 H 2791.2 -5.22213 -2.95657 0
M  V30 30753 H 2792.27 -4.53273 -1.72254 0
M  V30 30754 N 2793.61 0.695578 -1.41419 0
M  V30 30755 C 2794.52 1.8393 -1.45626 0
M  V30 30756 C 2795.53 1.70508 -0.346855 0
M  V30 30757 O 2796.71 1.92423 -0.594574 0
M  V30 30758 C 2793.78 3.19911 -1.33633 0
M  V30 30759 C 2792.84 3.45442 -2.54888 0
M  V30 30760 C 2792.07 4.74936 -2.43458 0
M  V30 30761 O 2792.29 5.51421 -1.45914 0
M  V30 30762 O 2791.23 5.0125 -3.33215 0
M  V30 30763 H 2795.05 1.83338 -2.42118 0
M  V30 30764 H 2792.64 0.848637 -1.22957 0
M  V30 30765 H 2794.52 4.01096 -1.29228 0
M  V30 30766 H 2793.19 3.21187 -0.402564 0
M  V30 30767 H 2792.1 2.64188 -2.64869 0
M  V30 30768 H 2793.43 3.48981 -3.47093 0
M  V30 30769 N 2795.09 1.27247 0.929833 0
M  V30 30770 C 2796.05 1.09833 2.0117 0
M  V30 30771 C 2797.05 0.042997 1.60743 0
M  V30 30772 O 2798.24 0.287404 1.71813 0
M  V30 30773 C 2795.37 0.673062 3.3419 0
M  V30 30774 H 2796.57 2.05898 2.1805 0
M  V30 30775 H 2794.12 1.10005 1.11034 0
M  V30 30776 H 2794.85 -0.289078 3.23009 0
M  V30 30777 H 2794.64 1.43522 3.64889 0
M  V30 30778 H 2796.13 0.573396 4.13645 0
M  V30 30779 N 2796.57 -1.13603 1.09235 0
M  V30 30780 C 2797.81 -1.85322 0.838288 0
M  V30 30781 C 2798.17 -1.81818 -0.629282 0
M  V30 30782 O 2797.46 -1.24396 -1.45727 0
M  V30 30783 C 2797.65 -3.3272 1.30506 0
M  V30 30784 C 2797.48 -3.50578 2.81647 0
M  V30 30785 C 2796.25 -3.64935 3.49501 0
M  V30 30786 C 2798.45 -3.46785 3.79795 0
M  V30 30787 N 2796.43 -3.71034 4.89088 0
M  V30 30788 C 2797.8 -3.59231 5.05325 0
M  V30 30789 C 2799.86 -3.30174 3.72679 0
M  V30 30790 C 2798.56 -3.5678 6.2458 0
M  V30 30791 C 2800.59 -3.29031 4.91419 0
M  V30 30792 C 2799.95 -3.42025 6.15791 0
M  V30 30793 H 2796.05 -0.694423 0.359584 0
M  V30 30794 H 2798.63 -1.36095 1.39234 0
M  V30 30795 H 2796.8 -3.80518 0.778478 0
M  V30 30796 H 2798.54 -3.92239 0.996533 0
M  V30 30797 H 2795.29 -3.66525 2.99927 0
M  V30 30798 H 2795.71 -3.77779 5.61793 0
M  V30 30799 H 2800.36 -3.19032 2.7745 0
M  V30 30800 H 2798.07 -3.66696 7.20111 0
M  V30 30801 H 2801.66 -3.17378 4.87609 0
M  V30 30802 H 2800.54 -3.41098 7.06132 0
M  V30 30803 N 2798.04 -0.879253 -1.30793 0
M  V30 30804 C 2798.99 -0.340008 -2.28282 0
M  V30 30805 C 2799.96 0.566658 -1.56135 0
M  V30 30806 O 2801.15 0.496306 -1.84232 0
M  V30 30807 C 2798.29 0.444441 -3.42226 0
M  V30 30808 C 2797.4 -0.490793 -4.29203 0
M  V30 30809 C 2796.53 0.308691 -5.30302 0
M  V30 30810 C 2795.57 -0.622379 -6.08928 0
M  V30 30811 N 2794.71 0.141427 -7.01958 0
M  V30 30812 H 2799.55 -1.17652 -2.73792 0
M  V30 30813 H 2797.09 -0.591551 -1.34681 0
M  V30 30814 H 2799.04 0.915114 -4.0704 0
M  V30 30815 H 2797.67 1.24557 -2.97801 0
M  V30 30816 H 2796.73 -1.07994 -3.64748 0
M  V30 30817 H 2798.04 -1.20433 -4.84043 0
M  V30 30818 H 2797.19 0.84147 -6.00836 0
M  V30 30819 H 2795.93 1.05547 -4.76142 0
M  V30 30820 H 2794.94 -1.16683 -5.37276 0
M  V30 30821 H 2796.16 -1.36816 -6.65175 0
M  V30 30822 H 2794.11 0.870851 -6.50194 0
M  V30 30823 H 2794.02 -0.512592 -7.5426 0
M  V30 30824 H 2795.29 0.655135 -7.76742 0
M  V30 30825 N 2799.52 1.44037 -0.639624 0
M  V30 30826 C 2800.75 2.06834 -0.153153 0
M  V30 30827 C 2801.17 1.47543 1.16673 0
M  V30 30828 O 2800.53 0.580123 1.71768 0
M  V30 30829 C 2800.58 3.60548 -0.0609802 0
M  V30 30830 O 2799.68 4.00571 0.98064 0
M  V30 30831 H 2799.02 0.658055 -0.0886518 0
M  V30 30832 H 2801.55 1.8477 -0.878706 0
M  V30 30833 H 2801.56 4.07803 0.12682 0
M  V30 30834 H 2800.24 4.03082 -1.02457 0
M  V30 30835 H 2798.81 3.64933 0.766725 0
M  V30 30836 N 2801 0.380691 1.52933 0
M  V30 30837 C 2801.93 -0.450227 2.29118 0
M  V30 30838 C 2802.91 -1.07094 1.32155 0
M  V30 30839 O 2804.1 -1.08534 1.6104 0
M  V30 30840 C 2801.23 -1.58226 3.09163 0
M  V30 30841 C 2800.18 -1.08802 4.1394 0
M  V30 30842 C 2799.51 -2.31146 4.82157 0
M  V30 30843 C 2800.81 -0.162055 5.22049 0
M  V30 30844 H 2802.5 0.185413 2.98825 0
M  V30 30845 H 2800.05 0.0906139 1.43715 0
M  V30 30846 H 2802 -2.1703 3.61215 0
M  V30 30847 H 2800.72 -2.24535 2.37174 0
M  V30 30848 H 2799.38 -0.52257 3.62856 0
M  V30 30849 H 2799.03 -2.95946 4.06724 0
M  V30 30850 H 2798.73 -1.98742 5.5297 0
M  V30 30851 H 2800.25 -2.90609 5.37009 0
M  V30 30852 H 2801.67 -0.658026 5.69511 0
M  V30 30853 H 2800.06 0.0718177 6.00057 0
M  V30 30854 H 2801.13 0.791522 4.78396 0
M  V30 30855 N 2802.48 -1.57214 0.110268 0
M  V30 30856 C 2803.41 -2.17869 -0.839964 0
M  V30 30857 C 2804.39 -1.11626 -1.2835 0
M  V30 30858 O 2805.57 -1.39826 -1.34767 0
M  V30 30859 C 2802.7 -2.77114 -2.09344 0
M  V30 30860 C 2801.66 -3.88863 -1.788 0
M  V30 30861 C 2800.98 -4.34877 -3.11104 0
M  V30 30862 C 2802.28 -5.11366 -1.06311 0
M  V30 30863 H 2803.98 -2.97525 -0.334555 0
M  V30 30864 H 2801.52 -1.43114 -0.159477 0
M  V30 30865 H 2803.48 -3.18203 -2.76269 0
M  V30 30866 H 2802.2 -1.94735 -2.62194 0
M  V30 30867 H 2800.86 -3.48337 -1.14267 0
M  V30 30868 H 2800.51 -3.49368 -3.61871 0
M  V30 30869 H 2800.21 -5.10229 -2.91444 0
M  V30 30870 H 2801.73 -4.78611 -3.79162 0
M  V30 30871 H 2803.15 -5.49529 -1.63374 0
M  V30 30872 H 2801.54 -5.92245 -0.967772 0
M  V30 30873 H 2802.61 -4.84876 -0.0483717 0
M  V30 30874 N 2803.96 0.163482 -1.5675 0
M  V30 30875 C 2805.23 0.906569 -1.73323 0
M  V30 30876 C 2805.61 2.00057 -0.673815 0
M  V30 30877 O 2804.96 2.26386 0.310082 0
M  V30 30878 C 2805.17 1.46413 -3.16803 0
M  V30 30879 C 2806.52 1.934 -3.77997 0
M  V30 30880 O 2807.54 1.56191 -3.2013 0
M  V30 30881 O 2806.4 2.61967 -4.7962 0
M  V30 30882 H 2803.5 0.427259 -0.708081 0
M  V30 30883 H 2806.04 0.150698 -1.6903 0
M  V30 30884 H 2804.81 0.677121 -3.85397 0
M  V30 30885 H 2804.44 2.28397 -3.25454 0
M  V30 30886 N 2805.43 1.51555 0.432299 0
M  V30 30887 C 2806.4 1.72636 1.50762 0
M  V30 30888 C 2807.4 0.59634 1.49333 0
M  V30 30889 O 2808.59 0.863952 1.51266 0
M  V30 30890 C 2805.72 1.78746 2.90281 0
M  V30 30891 H 2806.91 2.68611 1.33372 0
M  V30 30892 H 2804.46 1.41621 0.661304 0
M  V30 30893 H 2805.2 0.846032 3.1307 0
M  V30 30894 H 2804.98 2.60875 2.92723 0
M  V30 30895 H 2806.47 1.96877 3.68279 0
M  V30 30896 N 2806.91 -0.688069 1.41786 0
M  V30 30897 C 2808.15 -1.46029 1.4302 0
M  V30 30898 C 2808.52 -1.91958 0.040297 0
M  V30 30899 O 2809.72 -2.68702 -0.0725953 0
M  V30 30900 C 2807.99 -2.63449 2.41515 0
M  V30 30901 S 2809.55 -3.52486 2.61341 0
M  V30 30902 H 2806.36 -0.498922 0.506555 0
M  V30 30903 H 2808.97 -0.802179 1.78284 0
M  V30 30904 H 2807.67 -2.27923 3.4129 0
M  V30 30905 H 2807.2 -3.34146 2.0763 0
M  V30 30906 H 2809.22 -4.58942 1.88645 0
M  V30 30907 N 2808.39 -1.27739 -0.923072 0
M  V30 30908 C 2809.3 -1.12688 -2.05763 0
M  V30 30909 C 2810.32 -0.0557503 -1.73911 0
M  V30 30910 O 2811.49 -0.263172 -1.99673 0
M  V30 30911 C 2808.56 -0.780422 -3.37802 0
M  V30 30912 C 2807.62 -1.93293 -3.83323 0
M  V30 30913 C 2806.85 -1.6029 -5.09061 0
M  V30 30914 O 2807.07 -0.512928 -5.68089 0
M  V30 30915 O 2806.01 -2.44357 -5.50067 0
M  V30 30916 H 2809.83 -2.07911 -2.21375 0
M  V30 30917 H 2807.42 -1.06969 -1.04297 0
M  V30 30918 H 2809.3 -0.600742 -4.17096 0
M  V30 30919 H 2807.98 0.142234 -3.23387 0
M  V30 30920 H 2806.88 -2.1677 -3.04896 0
M  V30 30921 H 2808.22 -2.83595 -4.02287 0
M  V30 30922 N 2809.87 1.13022 -1.09836 0
M  V30 30923 C 2811.09 1.88769 -0.859123 0
M  V30 30924 C 2811.52 1.78792 0.58437 0
M  V30 30925 O 2810.88 1.13845 1.41099 0
M  V30 30926 C 2810.92 3.36184 -1.30433 0
M  V30 30927 O 2810.03 4.09765 -0.46544 0
M  V30 30928 H 2809.37 0.586772 -0.310797 0
M  V30 30929 H 2811.9 1.42971 -1.46357 0
M  V30 30930 H 2811.91 3.87017 -1.29157 0
M  V30 30931 H 2810.58 3.42763 -2.35556 0
M  V30 30932 H 2809.16 3.68927 -0.542879 0
M  V30 30933 N 2811.35 0.886177 1.30325 0
M  V30 30934 C 2812.76 0.580349 1.48675 0
M  V30 30935 C 2812.96 -0.881608 1.8119 0
M  V30 30936 O 2812.02 -1.66275 1.90024 0
M  V30 30937 C 2813.33 1.49453 2.6093 0
M  V30 30938 C 2814.88 1.49829 2.7481 0
M  V30 30939 C 2815.35 2.39843 3.90179 0
M  V30 30940 N 2816.85 2.37813 3.97491 0
M  V30 30941 C 2817.58 3.04173 4.86072 0
M  V30 30942 N 2817.08 3.79763 5.79441 0
M  V30 30943 N 2818.87 2.93399 4.79451 0
M  V30 30944 H 2811.02 1.83192 1.07492 0
M  V30 30945 H 2813.28 0.784213 0.532647 0
M  V30 30946 H 2812.99 2.53555 2.43727 0
M  V30 30947 H 2812.86 1.205 3.57435 0
M  V30 30948 H 2815.25 0.464782 2.91417 0
M  V30 30949 H 2815.33 1.82814 1.78921 0
M  V30 30950 H 2814.98 3.4328 3.74328 0
M  V30 30951 H 2814.91 2.04174 4.85408 0
M  V30 30952 H 2817.4 1.82883 3.30699 0
M  V30 30953 H 2817.71 4.27486 6.43798 0
M  V30 30954 H 2816.05 3.8387 5.79369 0
M  V30 30955 H 2819.25 2.33872 4.05489 0
M  V30 30956 H 2819.42 3.45393 5.48277 0
M  V30 30957 N 2812.82 -1.43695 0.647253 0
M  V30 30958 C 2814.24 -1.56475 0.314283 0
M  V30 30959 C 2814.44 -1.63198 -1.18189 0
M  V30 30960 O 2813.5 -1.58379 -1.96652 0
M  V30 30961 C 2814.81 -2.82858 1.02039 0
M  V30 30962 C 2816.36 -2.96593 1.00007 0
M  V30 30963 C 2816.83 -4.258 1.68696 0
M  V30 30964 N 2818.32 -4.32651 1.65432 0
M  V30 30965 C 2819.06 -5.3138 2.1546 0
M  V30 30966 N 2818.55 -6.36422 2.7375 0
M  V30 30967 N 2820.35 -5.22994 2.05994 0
M  V30 30968 H 2812.5 -1.37575 1.61824 0
M  V30 30969 H 2814.76 -0.660332 0.680195 0
M  V30 30970 H 2814.47 -2.83931 2.07547 0
M  V30 30971 H 2814.34 -3.72896 0.568211 0
M  V30 30972 H 2816.73 -2.95063 -0.0465801 0
M  V30 30973 H 2816.81 -2.0786 1.4909 0
M  V30 30974 H 2816.45 -4.2809 2.73315 0
M  V30 30975 H 2816.38 -5.13419 1.17085 0
M  V30 30976 H 2818.87 -3.5736 1.2289 0
M  V30 30977 H 2819.19 -7.08067 3.09614 0
M  V30 30978 H 2817.53 -6.37062 2.77808 0
M  V30 30979 H 2820.72 -4.39846 1.60165 0
M  V30 30980 H 2820.9 -5.9978 2.45292 0
M  V30 30981 N 2814.3 -0.388796 -1.52729 0
M  V30 30982 C 2815.55 0.193842 -2.01871 0
M  V30 30983 C 2815.88 1.46503 -1.27477 0
M  V30 30984 O 2815.16 1.90849 -0.375096 0
M  V30 30985 C 2815.44 0.462273 -3.5712 0
M  V30 30986 C 2815.29 -0.824169 -4.42185 0
M  V30 30987 C 2816.61 1.25311 -4.21883 0
M  V30 30988 H 2813.73 0.068977 -0.733765 0
M  V30 30989 H 2816.37 -0.518263 -1.82795 0
M  V30 30990 H 2814.52 1.06889 -3.73506 0
M  V30 30991 H 2816.19 -1.46104 -4.37552 0
M  V30 30992 H 2814.44 -1.43959 -4.09216 0
M  V30 30993 H 2815.11 -0.591002 -5.48827 0
M  V30 30994 H 2817.58 0.739738 -4.09472 0
M  V30 30995 H 2816.46 1.40968 -5.3049 0
M  V30 30996 H 2816.72 2.26817 -3.79482 0
M  V30 30997 N 2815.78 1.57153 -0.118604 0
M  V30 30998 C 2817.2 1.57816 0.237986 0
M  V30 30999 C 2817.4 1.1313 1.66745 0
M  V30 31000 O 2816.45 0.818504 2.38866 0
M  V30 31001 C 2817.77 3.007 0.00502921 0
M  V30 31002 C 2819.31 3.1292 0.0709589 0
M  V30 31003 C 2819.79 4.57803 -0.134301 0
M  V30 31004 N 2821.28 4.6313 -0.080257 0
M  V30 31005 C 2822.01 5.73001 -0.213986 0
M  V30 31006 N 2821.51 6.91622 -0.403864 0
M  V30 31007 N 2823.3 5.6189 -0.153589 0
M  V30 31008 H 2815.45 1.84501 -1.05229 0
M  V30 31009 H 2817.72 0.852662 -0.414333 0
M  V30 31010 H 2817.42 3.37678 -0.983184 0
M  V30 31011 H 2817.3 3.69928 0.737075 0
M  V30 31012 H 2819.68 2.758 1.0497 0
M  V30 31013 H 2819.77 2.46235 -0.692961 0
M  V30 31014 H 2819.41 4.95622 -1.11001 0
M  V30 31015 H 2819.34 5.22578 0.649601 0
M  V30 31016 H 2821.83 3.77847 0.0630025 0
M  V30 31017 H 2822.14 7.71202 -0.49678 0
M  V30 31018 H 2820.49 6.93607 -0.439832 0
M  V30 31019 H 2823.68 4.681 -0.00621402 0
M  V30 31020 H 2823.85 6.47473 -0.261251 0
M  V30 31021 N 2817.26 -0.155167 1.56834 0
M  V30 31022 C 2818.19 -1.19372 2.0068 0
M  V30 31023 C 2819.17 -1.45265 0.884998 0
M  V30 31024 O 2820.35 -1.56324 1.15223 0
M  V30 31025 C 2817.48 -2.52886 2.38046 0
M  V30 31026 C 2816.44 -2.41531 3.53336 0
M  V30 31027 C 2815.76 -3.79681 3.76492 0
M  V30 31028 C 2817.06 -1.90631 4.86268 0
M  V30 31029 H 2818.76 -0.829182 2.87689 0
M  V30 31030 H 2816.3 -0.397421 1.38407 0
M  V30 31031 H 2818.26 -3.25758 2.67319 0
M  V30 31032 H 2816.98 -2.9116 1.47965 0
M  V30 31033 H 2815.64 -1.71112 3.24216 0
M  V30 31034 H 2815.29 -4.15377 2.83675 0
M  V30 31035 H 2814.99 -3.72948 4.54074 0
M  V30 31036 H 2816.51 -4.54115 4.08182 0
M  V30 31037 H 2817.93 -2.5329 5.14312 0
M  V30 31038 H 2816.32 -1.94808 5.676 0
M  V30 31039 H 2817.39 -0.861512 4.77185 0
M  V30 31040 N 2818.74 -1.51782 -0.424256 0
M  V30 31041 C 2819.98 -1.65342 -1.17431 0
M  V30 31042 C 2820.32 -0.37484 -1.90548 0
M  V30 31043 O 2819.59 0.626147 -1.84146 0
M  V30 31044 C 2819.87 -2.86548 -2.18088 0
M  V30 31045 C 2819.73 -4.24416 -1.48967 0
M  V30 31046 C 2821.05 -3.0327 -3.18929 0
M  V30 31047 H 2818.16 -0.601724 -0.425555 0
M  V30 31048 H 2820.81 -1.843 -0.461889 0
M  V30 31049 H 2818.96 -2.70514 -2.78844 0
M  V30 31050 H 2820.63 -4.52145 -0.914472 0
M  V30 31051 H 2818.87 -4.26512 -0.791818 0
M  V30 31052 H 2819.54 -5.05242 -2.22338 0
M  V30 31053 H 2822.02 -3.18101 -2.68237 0
M  V30 31054 H 2820.89 -3.89618 -3.86638 0
M  V30 31055 H 2821.16 -2.15914 -3.85789 0
M  V30 31056 N 2820.21 0.68054 -1.42149 0
M  V30 31057 C 2821.49 1.43612 -1.32797 0
M  V30 31058 C 2821.87 2.11067 0.0373779 0
M  V30 31059 O 2821.22 2.02815 1.05254 0
M  V30 31060 C 2821.43 2.44326 -2.4921 0
M  V30 31061 C 2822.78 3.09139 -2.91064 0
M  V30 31062 O 2823.8 2.54653 -2.49059 0
M  V30 31063 O 2822.66 4.07859 -3.63748 0
M  V30 31064 H 2819.75 0.640291 -0.523408 0
M  V30 31065 H 2822.3 0.709748 -1.54145 0
M  V30 31066 H 2821.07 1.93241 -3.40255 0
M  V30 31067 H 2820.7 3.24452 -2.29818 0
M  V30 31068 N 2821.69 1.28226 0.916285 0
M  V30 31069 C 2822.92 1.18076 1.69899 0
M  V30 31070 C 2823.34 -0.260935 1.86988 0
M  V30 31071 O 2822.69 -1.17661 1.39507 0
M  V30 31072 C 2822.74 1.87207 3.0925 0
M  V30 31073 O 2822.46 3.25745 2.92954 0
M  V30 31074 C 2823.97 1.83327 4.03617 0
M  V30 31075 H 2821.19 0.409995 0.531173 0
M  V30 31076 H 2823.73 1.69305 1.147 0
M  V30 31077 H 2821.88 1.39855 3.61275 0
M  V30 31078 H 2822.3 3.6033 3.81133 0
M  V30 31079 H 2823.77 2.36291 4.98869 0
M  V30 31080 H 2824.25 0.805083 4.31758 0
M  V30 31081 H 2824.86 2.30346 3.5752 0
M  V30 31082 N 2823.17 -1.12438 1.10433 0
M  V30 31083 C 2824.42 -1.83583 0.845077 0
M  V30 31084 C 2824.74 -1.84504 -0.631136 0
M  V30 31085 O 2824.01 -1.30815 -1.45823 0
M  V30 31086 H 2822.59 -0.679803 0.30964 0
M  V30 31087 H 2825.25 -1.3615 1.3946 0
M  V30 31088 H 2824.35 -2.87778 1.20791 0
M  V30 31089 N 2824.65 -0.893076 -1.29853 0
M  V30 31090 C 2825.93 -0.43537 -1.90693 0
M  V30 31091 C 2826.31 1.0845 -1.81112 0
M  V30 31092 O 2825.65 1.92343 -1.23356 0
M  V30 31093 C 2825.86 -0.942531 -3.36032 0
M  V30 31094 C 2827.21 -0.982298 -4.13081 0
M  V30 31095 O 2828.24 -0.889747 -3.44909 0
M  V30 31096 O 2827.1 -1.12031 -5.34894 0
M  V30 31097 H 2824.19 -0.134582 -0.815976 0
M  V30 31098 H 2826.74 -0.982508 -1.38365 0
M  V30 31099 H 2825.51 -1.98646 -3.37128 0
M  V30 31100 H 2825.13 -0.375022 -3.95827 0
M  V30 31101 N 2826.13 1.4335 -0.654865 0
M  V30 31102 C 2827.07 2.30772 0.0357308 0
M  V30 31103 C 2828.04 1.44843 0.81301 0
M  V30 31104 O 2829.23 1.73709 0.789283 0
M  V30 31105 C 2826.37 3.30444 0.995025 0
M  V30 31106 C 2825.48 4.31471 0.213675 0
M  V30 31107 C 2824.62 5.18224 1.16692 0
M  V30 31108 C 2823.66 6.10943 0.376094 0
M  V30 31109 N 2822.79 6.90315 1.28101 0
M  V30 31110 H 2827.63 2.89279 -0.71564 0
M  V30 31111 H 2825.17 1.42508 -0.36467 0
M  V30 31112 H 2827.13 3.86741 1.56483 0
M  V30 31113 H 2825.76 2.73583 1.71325 0
M  V30 31114 H 2824.81 3.77455 -0.472444 0
M  V30 31115 H 2826.12 4.97184 -0.401191 0
M  V30 31116 H 2825.28 5.79156 1.8073 0
M  V30 31117 H 2824.02 4.52641 1.81569 0
M  V30 31118 H 2823.02 5.49099 -0.27763 0
M  V30 31119 H 2824.25 6.7857 -0.268298 0
M  V30 31120 H 2822.19 6.27379 1.91655 0
M  V30 31121 H 2822.11 7.52556 0.720747 0
M  V30 31122 H 2823.38 7.5575 1.90949 0
M  V30 31123 N 2827.61 0.39689 1.52521 0
M  V30 31124 C 2828.85 -0.182862 2.01673 0
M  V30 31125 C 2829.18 -1.46179 1.28305 0
M  V30 31126 O 2828.44 -1.9209 0.374152 0
M  V30 31127 C 2828.73 -0.489614 3.5403 0
M  V30 31128 C 2828.4 0.698659 4.45454 0
M  V30 31129 C 2827.06 1.02463 4.70165 0
M  V30 31130 C 2829.41 1.49325 4.99351 0
M  V30 31131 C 2826.74 2.1466 5.4602 0
M  V30 31132 C 2829.09 2.60589 5.76434 0
M  V30 31133 C 2827.76 2.93685 5.99421 0
M  V30 31134 H 2827.03 -0.0669141 0.737973 0
M  V30 31135 H 2829.68 0.535796 1.83852 0
M  V30 31136 H 2827.98 -1.28969 3.69965 0
M  V30 31137 H 2829.68 -0.95095 3.89561 0
M  V30 31138 H 2826.27 0.4346 4.26391 0
M  V30 31139 H 2830.45 1.25465 4.80179 0
M  V30 31140 H 2825.71 2.40664 5.62042 0
M  V30 31141 H 2829.88 3.22555 6.17196 0
M  V30 31142 H 2827.51 3.80742 6.57981 0
M  V30 31143 N 2829.08 -1.57088 0.126936 0
M  V30 31144 C 2830.5 -1.5794 -0.229614 0
M  V30 31145 C 2830.7 -1.14013 -1.66143 0
M  V30 31146 O 2829.76 -0.831161 -2.38428 0
M  V30 31147 C 2831.07 -3.00698 0.0109177 0
M  V30 31148 C 2832.62 -3.12953 -0.054363 0
M  V30 31149 C 2833.09 -4.57725 0.158577 0
M  V30 31150 N 2834.58 -4.63081 0.104817 0
M  V30 31151 C 2835.32 -5.72879 0.244371 0
M  V30 31152 N 2834.81 -6.91398 0.440537 0
M  V30 31153 N 2836.61 -5.61801 0.183385 0
M  V30 31154 H 2828.76 -1.8394 1.06206 0
M  V30 31155 H 2831.02 -0.850453 0.418849 0
M  V30 31156 H 2830.73 -3.37152 1.00108 0
M  V30 31157 H 2830.6 -3.70314 -0.717447 0
M  V30 31158 H 2832.99 -2.76352 -1.03506 0
M  V30 31159 H 2833.07 -2.45864 0.70601 0
M  V30 31160 H 2832.71 -4.95026 1.13628 0
M  V30 31161 H 2832.64 -5.22915 -0.621878 0
M  V30 31162 H 2835.13 -3.77876 -0.0429634 0
M  V30 31163 H 2835.45 -7.70927 0.537672 0
M  V30 31164 H 2833.79 -6.93364 0.476609 0
M  V30 31165 H 2836.98 -4.6809 0.0310384 0
M  V30 31166 H 2837.16 -6.47325 0.295585 0
M  V30 31167 N 2830.56 0.146848 -1.56914 0
M  V30 31168 C 2831.81 0.859435 -1.83357 0
M  V30 31169 C 2832.14 1.81162 -0.707843 0
M  V30 31170 O 2831.39 1.93338 0.303121 0
M  V30 31171 C 2831.69 1.66722 -3.16131 0
M  V30 31172 C 2831.36 0.861804 -4.42588 0
M  V30 31173 C 2830.02 0.639603 -4.7693 0
M  V30 31174 C 2832.37 0.298551 -5.20344 0
M  V30 31175 C 2829.7 -0.156555 -5.86491 0
M  V30 31176 C 2832.05 -0.484647 -6.30741 0
M  V30 31177 C 2830.71 -0.717423 -6.63633 0
M  V30 31178 H 2829.98 0.31449 -0.670953 0
M  V30 31179 H 2832.63 0.123074 -1.91104 0
M  V30 31180 H 2830.94 2.47369 -3.03835 0
M  V30 31181 H 2832.63 2.22205 -3.33806 0
M  V30 31182 H 2829.22 1.04505 -4.15664 0
M  V30 31183 H 2833.41 0.457499 -4.94187 0
M  V30 31184 H 2828.66 -0.346399 -6.10418 0
M  V30 31185 H 2832.84 -0.928226 -6.90186 0
M  V30 31186 H 2830.46 -1.3362 -7.48365 0
M  V30 31187 N 2832.04 1.52005 0.4162 0
M  V30 31188 C 2833.29 1.65717 1.1638 0
M  V30 31189 C 2833.61 0.383628 1.90679 0
M  V30 31190 O 2832.87 -0.633153 1.85175 0
M  V30 31191 C 2833.17 2.82506 2.18918 0
M  V30 31192 C 2832.83 4.20994 1.61478 0
M  V30 31193 C 2831.5 4.58664 1.45536 0
M  V30 31194 C 2833.85 5.07325 1.19459 0
M  V30 31195 C 2831.18 5.8035 0.860835 0
M  V30 31196 C 2833.53 6.29611 0.614276 0
M  V30 31197 C 2832.19 6.66035 0.441939 0
M  V30 31198 H 2831.46 0.6064 0.425864 0
M  V30 31199 H 2834.11 1.8609 0.451957 0
M  V30 31200 H 2832.41 2.56439 2.9622 0
M  V30 31201 H 2834.11 2.90312 2.76623 0
M  V30 31202 H 2830.7 3.91305 1.74867 0
M  V30 31203 H 2834.89 4.78812 1.30587 0
M  V30 31204 H 2830.14 6.07202 0.715265 0
M  V30 31205 H 2834.32 6.95836 0.280271 0
M  V30 31206 H 2831.94 7.60197 -0.0208554 0
M  V30 31207 N 2833.52 -0.672992 1.42508 0
M  V30 31208 C 2834.74 -1.46625 1.46683 0
M  V30 31209 C 2835.17 -1.87929 0.080099 0
M  V30 31210 O 2834.53 -1.56114 -0.921851 0
M  V30 31211 C 2834.57 -2.69047 2.40096 0
M  V30 31212 O 2833.68 -3.67384 1.87357 0
M  V30 31213 H 2833.02 -0.440421 0.496915 0
M  V30 31214 H 2835.55 -0.825302 1.87216 0
M  V30 31215 H 2835.56 -3.17097 2.56737 0
M  V30 31216 H 2834.23 -2.38324 3.40844 0
M  V30 31217 H 2832.81 -3.26425 1.8028 0
M  V30 31218 N 2835 -1.2871 -0.909472 0
M  V30 31219 C 2835.93 -1.07327 -2.01386 0
M  V30 31220 C 2836.91 0.0119471 -1.62596 0
M  V30 31221 O 2838.09 -0.136829 -1.88003 0
M  V30 31222 C 2835.22 -0.631855 -3.32754 0
M  V30 31223 C 2834.26 -1.71434 -3.90528 0
M  V30 31224 S 2835.1 -3.31131 -4.20847 0
M  V30 31225 C 2836.25 -2.88835 -5.55271 0
M  V30 31226 H 2836.49 -2.00828 -2.19215 0
M  V30 31227 H 2834.02 -1.12747 -1.05487 0
M  V30 31228 H 2835.98 -0.383881 -4.08701 0
M  V30 31229 H 2834.64 0.283396 -3.12819 0
M  V30 31230 H 2833.83 -1.35721 -4.85382 0
M  V30 31231 H 2833.43 -1.91533 -3.21234 0
M  V30 31232 H 2835.72 -2.35272 -6.35337 0
M  V30 31233 H 2836.67 -3.82502 -5.95901 0
M  V30 31234 H 2837.08 -2.27421 -5.16662 0
M  V30 31235 N 2836.47 1.1185 -1.11028 0
M  V30 31236 C 2837.72 1.83767 -0.857762 0
M  V30 31237 C 2838.05 1.84201 0.61511 0
M  V30 31238 O 2837.33 1.29199 1.45389 0
M  V30 31239 C 2837.61 3.31152 -1.41459 0
M  V30 31240 C 2837.46 3.39137 -2.95477 0
M  V30 31241 C 2838.78 4.27095 -1.06198 0
M  V30 31242 H 2835.9 0.667207 -0.313056 0
M  V30 31243 H 2838.54 1.31182 -1.37445 0
M  V30 31244 H 2836.69 3.76063 -0.975118 0
M  V30 31245 H 2838.37 3.02815 -3.47995 0
M  V30 31246 H 2836.61 2.79491 -3.31764 0
M  V30 31247 H 2837.28 4.42853 -3.29523 0
M  V30 31248 H 2839.76 3.90341 -1.44128 0
M  V30 31249 H 2838.63 5.28615 -1.47841 0
M  V30 31250 H 2838.89 4.42091 0.0278135 0
M  V30 31251 N 2837.95 0.89995 1.29378 0
M  V30 31252 C 2839.37 0.596085 1.48051 0
M  V30 31253 C 2839.57 -0.86234 1.82115 0
M  V30 31254 O 2838.62 -1.6425 1.91777 0
M  V30 31255 C 2839.94 1.52212 2.5933 0
M  V30 31256 C 2841.48 1.52735 2.73205 0
M  V30 31257 C 2841.96 2.43968 3.87613 0
M  V30 31258 N 2843.45 2.42016 3.94946 0
M  V30 31259 C 2844.19 3.09312 4.82819 0
M  V30 31260 N 2843.68 3.85887 5.75381 0
M  V30 31261 N 2845.47 2.98468 4.76312 0
M  V30 31262 H 2837.63 1.84321 1.05543 0
M  V30 31263 H 2839.89 0.789819 0.5243 0
M  V30 31264 H 2839.59 2.56126 2.41024 0
M  V30 31265 H 2839.47 1.24284 3.56137 0
M  V30 31266 H 2841.86 0.495665 2.90907 0
M  V30 31267 H 2841.94 1.84701 1.76972 0
M  V30 31268 H 2841.58 3.47231 3.70666 0
M  V30 31269 H 2841.51 2.09311 4.83215 0
M  V30 31270 H 2844 1.8638 3.28741 0
M  V30 31271 H 2844.31 4.3429 6.39228 0
M  V30 31272 H 2842.66 3.89994 5.75265 0
M  V30 31273 H 2845.85 2.38159 4.02986 0
M  V30 31274 H 2846.02 3.51189 5.44583 0
M  V30 31275 N 2839.43 -1.43001 0.662458 0
M  V30 31276 C 2840.71 -1.95295 0.10913 0
M  V30 31277 C 2841.09 -1.60341 -1.3731 0
M  V30 31278 O 2840.44 -0.893224 -2.10318 0
M  V30 31279 C 2840.65 -3.47084 0.365157 0
M  V30 31280 C 2841.99 -4.23708 0.275039 0
M  V30 31281 O 2843.02 -3.54949 0.298222 0
M  V30 31282 O 2841.88 -5.46109 0.206645 0
M  V30 31283 H 2838.97 -0.826989 -0.0042827 0
M  V30 31284 H 2841.52 -1.52893 0.736335 0
M  V30 31285 H 2840.29 -3.65687 1.39243 0
M  V30 31286 H 2839.91 -3.96507 -0.294664 0
M  V30 31287 N 2840.91 -0.404973 -1.52308 0
M  V30 31288 C 2841.84 0.41372 -2.29806 0
M  V30 31289 C 2842.82 1.04978 -1.33842 0
M  V30 31290 O 2844 1.05958 -1.62747 0
M  V30 31291 C 2841.13 1.53287 -3.11641 0
M  V30 31292 C 2840.09 1.02203 -4.15618 0
M  V30 31293 C 2839.41 2.23446 -4.85774 0
M  V30 31294 C 2840.71 0.0789807 -5.2224 0
M  V30 31295 H 2842.41 -0.23293 -2.98493 0
M  V30 31296 H 2839.95 -0.113466 -1.43552 0
M  V30 31297 H 2841.91 2.11256 -3.64622 0
M  V30 31298 H 2840.63 2.20734 -2.40716 0
M  V30 31299 H 2839.29 0.464776 -3.63642 0
M  V30 31300 H 2838.94 2.89438 -4.11381 0
M  V30 31301 H 2838.64 1.8992 -5.56061 0
M  V30 31302 H 2840.16 2.82029 -5.41565 0
M  V30 31303 H 2841.58 0.567338 -5.70486 0
M  V30 31304 H 2839.97 -0.167272 -5.99867 0
M  V30 31305 H 2841.04 -0.867531 -4.77076 0
M  V30 31306 N 2842.39 1.57018 -0.135265 0
M  V30 31307 C 2843.32 2.11916 0.84658 0
M  V30 31308 C 2844.3 1.03968 1.25018 0
M  V30 31309 O 2845.48 1.31725 1.34836 0
M  V30 31310 C 2842.61 2.62923 2.13516 0
M  V30 31311 C 2841.65 3.82908 1.87839 0
M  V30 31312 S 2842.49 5.24497 1.07996 0
M  V30 31313 C 2843.64 5.78885 2.37998 0
M  V30 31314 H 2843.88 2.94865 0.3797 0
M  V30 31315 H 2841.41 1.54199 0.0788116 0
M  V30 31316 H 2843.37 2.92963 2.87546 0
M  V30 31317 H 2842.03 1.80126 2.5732 0
M  V30 31318 H 2841.22 4.16802 2.83358 0
M  V30 31319 H 2840.82 3.53569 1.21923 0
M  V30 31320 H 2843.12 5.89601 3.33731 0
M  V30 31321 H 2844.06 6.76669 2.08626 0
M  V30 31322 H 2844.47 5.07052 2.4811 0
M  V30 31323 N 2843.86 -0.138524 1.5699 0
M  V30 31324 C 2844.79 -1.17237 2.01935 0
M  V30 31325 C 2845.78 -1.44318 0.900356 0
M  V30 31326 O 2846.96 -1.55093 1.16875 0
M  V30 31327 C 2844.09 -2.50347 2.40715 0
M  V30 31328 C 2843.04 -2.3777 3.55878 0
M  V30 31329 C 2842.37 -3.75667 3.80498 0
M  V30 31330 C 2843.67 -1.85463 4.88263 0
M  V30 31331 H 2845.36 -0.798622 2.88552 0
M  V30 31332 H 2842.91 -0.382719 1.38821 0
M  V30 31333 H 2844.86 -3.22905 2.70759 0
M  V30 31334 H 2843.59 -2.89574 1.51045 0
M  V30 31335 H 2842.25 -1.67663 3.26013 0
M  V30 31336 H 2841.89 -4.12344 2.88064 0
M  V30 31337 H 2841.59 -3.68111 4.58005 0
M  V30 31338 H 2843.12 -4.4976 4.12975 0
M  V30 31339 H 2844.53 -2.47821 5.1697 0
M  V30 31340 H 2842.93 -1.88777 5.69634 0
M  V30 31341 H 2844 -0.810851 4.78072 0
M  V30 31342 N 2845.34 -1.52224 -0.408133 0
M  V30 31343 C 2846.59 -1.67533 -1.15344 0
M  V30 31344 C 2846.94 -0.400781 -1.88179 0
M  V30 31345 O 2846.24 0.604813 -1.81804 0
M  V30 31346 C 2846.43 -2.83663 -2.17417 0
M  V30 31347 C 2846.26 -4.22289 -1.54604 0
M  V30 31348 C 2845.03 -4.87799 -1.31832 0
M  V30 31349 C 2847.23 -5.04357 -1.00639 0
M  V30 31350 N 2845.21 -6.10457 -0.649231 0
M  V30 31351 C 2846.58 -6.18259 -0.464276 0
M  V30 31352 C 2848.64 -4.89681 -0.900955 0
M  V30 31353 C 2847.34 -7.19092 0.172951 0
M  V30 31354 C 2849.36 -5.90748 -0.27758 0
M  V30 31355 C 2848.73 -7.03942 0.253858 0
M  V30 31356 H 2844.83 -0.666693 -0.40871 0
M  V30 31357 H 2847.41 -1.8953 -0.445679 0
M  V30 31358 H 2845.58 -2.63279 -2.85549 0
M  V30 31359 H 2847.31 -2.88004 -2.84316 0
M  V30 31360 H 2844.07 -4.46179 -1.58811 0
M  V30 31361 H 2844.49 -6.76189 -0.331282 0
M  V30 31362 H 2849.13 -4.02394 -1.29765 0
M  V30 31363 H 2846.85 -8.06004 0.581706 0
M  V30 31364 H 2850.44 -5.81465 -0.197502 0
M  V30 31365 H 2849.32 -7.80808 0.72862 0
M  V30 31366 N 2846.82 0.665425 -1.42863 0
M  V30 31367 C 2847.75 1.79024 -1.41512 0
M  V30 31368 C 2848.73 1.60204 -0.278134 0
M  V30 31369 O 2849.92 1.82551 -0.469825 0
M  V30 31370 C 2847.04 3.16158 -1.21499 0
M  V30 31371 C 2846.09 3.53707 -2.38314 0
M  V30 31372 S 2846.92 3.55068 -4.00858 0
M  V30 31373 C 2848.08 4.94878 -3.83205 0
M  V30 31374 H 2848.31 1.79898 -2.36694 0
M  V30 31375 H 2845.84 0.836954 -1.29748 0
M  V30 31376 H 2847.8 3.95309 -1.1064 0
M  V30 31377 H 2846.46 3.1286 -0.278865 0
M  V30 31378 H 2845.66 4.53408 -2.20084 0
M  V30 31379 H 2845.26 2.81939 -2.45737 0
M  V30 31380 H 2847.55 5.83212 -3.44776 0
M  V30 31381 H 2848.49 5.18157 -4.82616 0
M  V30 31382 H 2848.9 4.67838 -3.15892 0
M  V30 31383 N 2848.3 1.29191 0.902633 0
M  V30 31384 C 2849.21 1.15948 2.03944 0
M  V30 31385 C 2850.22 0.0834109 1.738 0
M  V30 31386 O 2851.4 0.294905 1.99229 0
M  V30 31387 C 2848.47 0.834065 3.36518 0
M  V30 31388 C 2847.53 1.99366 3.80199 0
M  V30 31389 C 2846.76 1.68368 5.06446 0
M  V30 31390 O 2846.98 0.603241 5.67201 0
M  V30 31391 O 2845.92 2.53077 5.4611 0
M  V30 31392 H 2849.74 2.11407 2.18039 0
M  V30 31393 H 2847.33 1.08615 1.02582 0
M  V30 31394 H 2849.21 0.667022 4.16087 0
M  V30 31395 H 2847.88 -0.0907676 3.23573 0
M  V30 31396 H 2846.79 2.21593 3.01409 0
M  V30 31397 H 2848.12 2.89959 3.97724 0
M  V30 31398 N 2849.78 -1.1126 1.1162 0
M  V30 31399 C 2851.05 -1.79466 0.777907 0
M  V30 31400 C 2851.43 -1.97938 -0.73374 0
M  V30 31401 O 2850.78 -1.56557 -1.6644 0
M  V30 31402 C 2850.99 -3.1303 1.54316 0
M  V30 31403 C 2852.34 -3.88041 1.72364 0
M  V30 31404 O 2853.36 -3.22724 1.50756 0
M  V30 31405 O 2852.22 -5.05252 2.08284 0
M  V30 31406 H 2849.32 -0.777423 0.282032 0
M  V30 31407 H 2851.86 -1.17986 1.21973 0
M  V30 31408 H 2850.63 -2.94951 2.57137 0
M  V30 31409 H 2850.26 -3.82224 1.09501 0
M  V30 31410 N 2851.25 -0.906798 -1.28899 0
M  V30 31411 C 2852.5 -0.537155 -1.95557 0
M  V30 31412 C 2852.83 0.915552 -1.71264 0
M  V30 31413 O 2852.11 1.65011 -1.02964 0
M  V30 31414 C 2852.39 -0.838707 -3.50197 0
M  V30 31415 C 2852.24 -2.34364 -3.83919 0
M  V30 31416 C 2853.56 -0.330065 -4.38861 0
M  V30 31417 H 2850.68 -0.19663 -0.710286 0
M  V30 31418 H 2853.32 -1.13478 -1.5239 0
M  V30 31419 H 2851.47 -0.330092 -3.87095 0
M  V30 31420 H 2853.15 -2.92234 -3.56928 0
M  V30 31421 H 2851.39 -2.80147 -3.3121 0
M  V30 31422 H 2852.06 -2.50519 -4.91878 0
M  V30 31423 H 2854.54 -0.765681 -4.08995 0
M  V30 31424 H 2853.41 -0.5702 -5.4593 0
M  V30 31425 H 2853.67 0.769435 -4.35353 0
M  V30 31426 N 2852.73 1.42648 -0.670032 0
M  V30 31427 C 2853.98 2.00826 -0.187561 0
M  V30 31428 C 2854.29 1.53573 1.21139 0
M  V30 31429 O 2855.5 2.04138 1.78997 0
M  V30 31430 C 2853.96 3.58774 -0.284473 0
M  V30 31431 C 2853.56 4.15016 -1.68717 0
M  V30 31432 C 2855.31 4.24271 0.139531 0
M  V30 31433 C 2853.22 5.65313 -1.73711 0
M  V30 31434 H 2852.15 0.751074 -0.06636 0
M  V30 31435 H 2854.8 1.63426 -0.83452 0
M  V30 31436 H 2853.18 3.93655 0.430295 0
M  V30 31437 H 2854.35 3.91604 -2.42864 0
M  V30 31438 H 2852.67 3.61953 -2.05861 0
M  V30 31439 H 2855.26 5.3456 0.122304 0
M  V30 31440 H 2855.61 3.99405 1.17396 0
M  V30 31441 H 2856.14 3.94333 -0.524064 0
M  V30 31442 H 2852.88 5.9497 -2.75119 0
M  V30 31443 H 2852.4 5.9073 -1.03913 0
M  V30 31444 H 2854.08 6.29647 -1.4884 0
M  V30 31445 N 2854.21 0.413044 1.52091 0
M  V30 31446 C 2855.63 0.0641116 1.59471 0
M  V30 31447 C 2855.83 -1.42399 1.42565 0
M  V30 31448 O 2854.88 -2.19127 1.25457 0
M  V30 31449 C 2856.2 0.562526 2.95391 0
M  V30 31450 C 2857.74 0.520842 3.08636 0
M  V30 31451 C 2858.22 0.995831 4.47043 0
M  V30 31452 N 2859.71 0.952812 4.53294 0
M  V30 31453 C 2860.45 1.29148 5.58667 0
M  V30 31454 N 2859.94 1.7018 6.71573 0
M  V30 31455 N 2861.73 1.2112 5.48896 0
M  V30 31456 H 2853.89 1.38156 1.61328 0
M  V30 31457 H 2856.15 0.567798 0.75915 0
M  V30 31458 H 2855.85 1.60277 3.13056 0
M  V30 31459 H 2855.73 -0.0257212 3.77191 0
M  V30 31460 H 2858.12 -0.510361 2.90653 0
M  V30 31461 H 2858.2 1.14519 2.28733 0
M  V30 31462 H 2857.84 2.02538 4.65769 0
M  V30 31463 H 2857.77 0.348255 5.25447 0
M  V30 31464 H 2860.26 0.651184 3.72247 0
M  V30 31465 H 2860.57 1.94323 7.4797 0
M  V30 31466 H 2858.92 1.74087 6.72844 0
M  V30 31467 H 2862.11 0.889477 4.59571 0
M  V30 31468 H 2862.28 1.47844 6.30909 0
M  V30 31469 N 2855.69 -1.56945 0.143591 0
M  V30 31470 C 2856.62 -2.13709 -0.828315 0
M  V30 31471 C 2857.63 -1.0857 -1.21311 0
M  V30 31472 O 2858.82 -1.35859 -1.15778 0
M  V30 31473 C 2855.92 -2.64208 -2.12244 0
M  V30 31474 C 2855.1 -3.9371 -1.90554 0
M  V30 31475 C 2854.16 -4.29555 -3.03923 0
M  V30 31476 O 2853.18 -4.97939 -2.75763 0
M  V30 31477 N 2854.38 -3.8886 -4.31009 0
M  V30 31478 H 2857.15 -2.97729 -0.343189 0
M  V30 31479 H 2854.71 -1.6185 -0.0400867 0
M  V30 31480 H 2856.7 -2.85202 -2.87127 0
M  V30 31481 H 2855.27 -1.84932 -2.5203 0
M  V30 31482 H 2854.49 -3.81377 -0.99726 0
M  V30 31483 H 2855.78 -4.78342 -1.73397 0
M  V30 31484 H 2855.18 -3.33751 -4.56756 0
M  V30 31485 H 2853.73 -4.14912 -5.02684 0
M  V30 31486 N 2857.17 0.130197 -1.57061 0
M  V30 31487 C 2858.42 0.838456 -1.83447 0
M  V30 31488 C 2858.73 1.81568 -0.7275 0
M  V30 31489 O 2859.94 2.5693 -0.877439 0
M  V30 31490 C 2858.39 1.54176 -3.25204 0
M  V30 31491 C 2858 0.6061 -4.43881 0
M  V30 31492 C 2859.74 2.23581 -3.60848 0
M  V30 31493 C 2857.65 1.31199 -5.76663 0
M  V30 31494 H 2856.58 0.316859 -0.68419 0
M  V30 31495 H 2859.23 0.0911736 -1.83273 0
M  V30 31496 H 2857.61 2.33527 -3.19814 0
M  V30 31497 H 2858.79 -0.153389 -4.60545 0
M  V30 31498 H 2857.1 0.0195973 -4.16395 0
M  V30 31499 H 2859.7 2.77064 -4.57318 0
M  V30 31500 H 2860.04 3.00862 -2.87729 0
M  V30 31501 H 2860.58 1.51131 -3.67973 0
M  V30 31502 H 2857.31 0.580708 -6.52923 0
M  V30 31503 H 2856.83 2.04377 -5.63906 0
M  V30 31504 H 2858.51 1.84829 -6.20038 0
M  V30 31505 N 2858.65 1.52438 0.400055 0
M  V30 31506 C 2859.56 1.79334 1.5125 0
M  V30 31507 C 2860.57 0.679425 1.60187 0
M  V30 31508 O 2861.75 0.965822 1.76731 0
M  V30 31509 C 2858.81 1.94657 2.86896 0
M  V30 31510 C 2857.87 3.18569 2.87772 0
M  V30 31511 C 2857.11 3.33152 4.16948 0
M  V30 31512 O 2857.33 2.52792 5.11324 0
M  V30 31513 O 2856.26 4.26351 4.24863 0
M  V30 31514 H 2860.09 2.73775 1.31456 0
M  V30 31515 H 2857.67 1.37393 0.58681 0
M  V30 31516 H 2859.56 2.06507 3.67332 0
M  V30 31517 H 2858.23 1.03405 3.06739 0
M  V30 31518 H 2857.14 3.1217 2.06157 0
M  V30 31519 H 2858.47 4.09631 2.72879 0
M  V30 31520 N 2860.12 -0.657839 1.43214 0
M  V30 31521 C 2861.09 -1.75272 1.4769 0
M  V30 31522 C 2862.09 -1.56667 0.362207 0
M  V30 31523 O 2863.28 -1.62649 0.623762 0
M  V30 31524 C 2860.41 -3.14095 1.32502 0
M  V30 31525 H 2861.6 -1.72685 2.45193 0
M  V30 31526 H 2859.15 -0.869065 1.29911 0
M  V30 31527 H 2859.89 -3.22297 0.359887 0
M  V30 31528 H 2859.67 -3.29004 2.13304 0
M  V30 31529 H 2861.16 -3.93944 1.38556 0
M  V30 31530 N 2861.6 -1.29668 -0.895769 0
M  V30 31531 C 2862.53 -1.10941 -2.00561 0
M  V30 31532 C 2863.55 -0.0557626 -1.62704 0
M  V30 31533 O 2864.74 -0.300687 -1.75949 0
M  V30 31534 C 2861.84 -0.667506 -3.32261 0
M  V30 31535 C 2861.01 -1.80054 -3.98622 0
M  V30 31536 C 2860.07 -1.34899 -5.08615 0
M  V30 31537 O 2859.09 -2.05438 -5.30833 0
M  V30 31538 N 2860.3 -0.222039 -5.80075 0
M  V30 31539 H 2863.06 -2.06526 -2.1718 0
M  V30 31540 H 2860.62 -1.2166 -1.0682 0
M  V30 31541 H 2862.61 -0.348657 -4.03195 0
M  V30 31542 H 2861.18 0.196 -3.11985 0
M  V30 31543 H 2860.4 -2.28806 -3.21001 0
M  V30 31544 H 2861.69 -2.56011 -4.397 0
M  V30 31545 H 2861.09 0.365984 -5.64515 0
M  V30 31546 H 2859.65 0.0374201 -6.51789 0
M  V30 31547 N 2863.08 1.10667 -1.12208 0
M  V30 31548 C 2863.99 2.20512 -0.800724 0
M  V30 31549 C 2865.01 1.72734 0.209482 0
M  V30 31550 O 2866.18 2.01353 0.0436696 0
M  V30 31551 C 2863.25 3.45743 -0.257414 0
M  V30 31552 C 2862.31 4.08268 -1.32725 0
M  V30 31553 C 2861.54 5.27521 -0.809767 0
M  V30 31554 O 2861.76 5.6928 0.35732 0
M  V30 31555 O 2860.7 5.80839 -1.57826 0
M  V30 31556 H 2864.52 2.50429 -1.71811 0
M  V30 31557 H 2862.11 1.19357 -0.898567 0
M  V30 31558 H 2863.99 4.2138 0.0408108 0
M  V30 31559 H 2862.67 3.17459 0.632572 0
M  V30 31560 H 2861.57 3.34326 -1.6786 0
M  V30 31561 H 2862.91 4.40749 -2.19091 0
M  V30 31562 N 2864.56 0.913621 1.28416 0
M  V30 31563 C 2865.5 0.400413 2.273 0
M  V30 31564 C 2866.47 -0.525062 1.57583 0
M  V30 31565 O 2867.66 -0.447285 1.85483 0
M  V30 31566 C 2864.8 -0.353549 3.43284 0
M  V30 31567 C 2863.91 0.604416 4.27751 0
M  V30 31568 C 2863.05 -0.167982 5.30934 0
M  V30 31569 C 2862.09 0.783606 6.07063 0
M  V30 31570 N 2861.22 0.0447346 7.02086 0
M  V30 31571 H 2866.06 1.2487 2.70576 0
M  V30 31572 H 2863.6 0.627051 1.33066 0
M  V30 31573 H 2865.56 -0.806873 4.09323 0
M  V30 31574 H 2864.19 -1.16618 3.00999 0
M  V30 31575 H 2863.24 1.17627 3.61757 0
M  V30 31576 H 2864.55 1.33224 4.80679 0
M  V30 31577 H 2863.71 -0.681873 6.02856 0
M  V30 31578 H 2862.45 -0.928862 4.78773 0
M  V30 31579 H 2861.45 1.30887 5.33993 0
M  V30 31580 H 2862.68 1.54404 6.61314 0
M  V30 31581 H 2860.62 -0.698158 6.52274 0
M  V30 31582 H 2860.54 0.712391 7.52636 0
M  V30 31583 H 2861.81 -0.448965 7.78206 0
M  V30 31584 N 2866.04 -1.4229 0.677588 0
M  V30 31585 C 2867.45 -1.84619 0.277945 0
M  V30 31586 C 2867.8 -1.56716 -1.18045 0
M  V30 31587 O 2866.92 -1.0284 -1.90402 0
M  V30 31588 C 2867.52 -3.35125 0.497678 0
M  V30 31589 C 2866.08 -3.76092 0.152129 0
M  V30 31590 C 2865.22 -2.65845 0.788767 0
M  V30 31591 H 2868.17 -1.32097 0.87955 0
M  V30 31592 H 2868.2 -3.79682 -0.249323 0
M  V30 31593 H 2867.71 -3.55402 1.55919 0
M  V30 31594 H 2865.81 -3.61421 -0.905833 0
M  V30 31595 H 2865.92 -4.75396 0.594597 0
M  V30 31596 H 2864.29 -2.53749 0.219858 0
M  V30 31597 H 2865.07 -2.88945 1.85379 0
M  V30 31598 N 2867.51 -0.421104 -1.5187 0
M  V30 31599 C 2868.93 -0.0725678 -1.59435 0
M  V30 31600 C 2869.13 1.41641 -1.43318 0
M  V30 31601 O 2868.19 2.18459 -1.26618 0
M  V30 31602 C 2869.5 -0.578184 -2.95089 0
M  V30 31603 C 2871.05 -0.537203 -3.08356 0
M  V30 31604 C 2871.52 -1.01952 -4.46508 0
M  V30 31605 N 2873.01 -0.976837 -4.52783 0
M  V30 31606 C 2873.75 -1.32109 -5.57974 0
M  V30 31607 N 2873.24 -1.73739 -6.70661 0
M  V30 31608 N 2875.04 -1.24029 -5.48246 0
M  V30 31609 H 2867.19 -1.3901 -1.60593 0
M  V30 31610 H 2869.45 -0.571816 -0.756128 0
M  V30 31611 H 2869.16 -1.61935 -3.12202 0
M  V30 31612 H 2869.03 0.00571743 -3.772 0
M  V30 31613 H 2871.42 0.49494 -2.9092 0
M  V30 31614 H 2871.5 -1.15731 -2.28123 0
M  V30 31615 H 2871.14 -2.05005 -4.64688 0
M  V30 31616 H 2871.07 -0.376116 -5.25255 0
M  V30 31617 H 2873.56 -0.670916 -3.71897 0
M  V30 31618 H 2873.88 -1.98287 -7.46929 0
M  V30 31619 H 2872.22 -1.77653 -6.71911 0
M  V30 31620 H 2875.41 -0.913836 -4.59093 0
M  V30 31621 H 2875.59 -1.51187 -6.30116 0
M  V30 31622 N 2868.99 1.56866 -0.151912 0
M  V30 31623 C 2870.27 1.87903 0.543295 0
M  V30 31624 C 2870.65 1.05868 1.82634 0
M  V30 31625 O 2870 0.146908 2.28027 0
M  V30 31626 C 2870.21 3.39613 0.803997 0
M  V30 31627 C 2871.56 4.08937 1.1426 0
M  V30 31628 O 2872.58 3.4482 0.893187 0
M  V30 31629 O 2871.44 5.22179 1.6122 0
M  V30 31630 H 2868.53 0.778977 0.277711 0
M  V30 31631 H 2871.08 1.68645 -0.188892 0
M  V30 31632 H 2869.85 3.91162 -0.103841 0
M  V30 31633 H 2869.47 3.64416 1.59019 0
M  V30 31634 N 2870.47 -0.121866 1.57128 0
M  V30 31635 C 2871.72 -0.831386 1.84975 0
M  V30 31636 C 2872.05 -1.79662 0.737236 0
M  V30 31637 O 2871.32 -1.92792 -0.257165 0
M  V30 31638 C 2871.61 -1.58381 3.234 0
M  V30 31639 C 2871.46 -0.638367 4.45247 0
M  V30 31640 C 2872.78 -2.54064 3.5936 0
M  V30 31641 H 2869.9 -0.300791 0.672825 0
M  V30 31642 H 2872.54 -0.0957254 1.89759 0
M  V30 31643 H 2870.69 -2.21093 3.19453 0
M  V30 31644 H 2872.36 -0.0203115 4.61296 0
M  V30 31645 H 2870.61 0.0503062 4.33771 0
M  V30 31646 H 2871.28 -1.20141 5.38767 0
M  V30 31647 H 2873.75 -2.01459 3.64079 0
M  V30 31648 H 2872.63 -3.03744 4.57199 0
M  V30 31649 H 2872.89 -3.36596 2.86628 0
M  V30 31650 N 2871.95 -1.52648 -0.391965 0
M  V30 31651 C 2873.17 -1.71718 -1.16309 0
M  V30 31652 C 2873.6 -0.433311 -1.83041 0
M  V30 31653 O 2872.96 0.610677 -1.70706 0
M  V30 31654 C 2873 -2.86555 -2.18903 0
M  V30 31655 O 2872.11 -2.53321 -3.25426 0
M  V30 31656 H 2871.45 -0.571101 -0.338733 0
M  V30 31657 H 2873.98 -1.99427 -0.457167 0
M  V30 31658 H 2873.99 -3.11964 -2.62949 0
M  V30 31659 H 2872.66 -3.79695 -1.69719 0
M  V30 31660 H 2871.24 -2.38642 -2.86539 0
M  V30 31661 N 2873.43 0.650235 -1.43561 0
M  V30 31662 C 2874.65 1.44273 -1.48997 0
M  V30 31663 C 2875.08 1.87778 -0.109987 0
M  V30 31664 O 2874.43 1.57561 0.896898 0
M  V30 31665 C 2874.48 2.65193 -2.44346 0
M  V30 31666 O 2873.59 3.64357 -1.93178 0
M  V30 31667 H 2872.93 0.43246 -0.503859 0
M  V30 31668 H 2875.46 0.795413 -1.88506 0
M  V30 31669 H 2875.47 3.12972 -2.61749 0
M  V30 31670 H 2874.14 2.32871 -3.44592 0
M  V30 31671 H 2872.72 3.23516 -1.8545 0
M  V30 31672 N 2874.9 1.30141 0.88888 0
M  V30 31673 C 2876.15 1.18915 1.64278 0
M  V30 31674 C 2876.48 -0.256443 1.92499 0
M  V30 31675 O 2875.76 -1.18395 1.54314 0
M  V30 31676 C 2876.04 2.0141 2.98506 0
M  V30 31677 C 2875.89 3.54168 2.77282 0
M  V30 31678 C 2877.21 1.84889 3.9938 0
M  V30 31679 H 2874.33 0.433343 0.59614 0
M  V30 31680 H 2876.97 1.59732 1.02887 0
M  V30 31681 H 2875.12 1.66729 3.50904 0
M  V30 31682 H 2876.8 3.98888 2.31702 0
M  V30 31683 H 2875.04 3.78547 2.1186 0
M  V30 31684 H 2875.71 4.07175 3.7271 0
M  V30 31685 H 2878.19 2.15202 3.56128 0
M  V30 31686 H 2877.06 2.44943 4.91217 0
M  V30 31687 H 2877.32 0.806979 4.34673 0
M  V30 31688 N 2876.38 -1.1007 1.12794 0
M  V30 31689 C 2877.29 -2.20084 0.812407 0
M  V30 31690 C 2878.31 -1.72843 -0.200319 0
M  V30 31691 O 2879.48 -2.01373 -0.0329908 0
M  V30 31692 C 2876.55 -3.45602 0.275746 0
M  V30 31693 C 2875.61 -4.07558 1.34888 0
M  V30 31694 C 2874.84 -5.27084 0.837731 0
M  V30 31695 O 2875.07 -5.69461 -0.327124 0
M  V30 31696 O 2874 -5.79994 1.60904 0
M  V30 31697 H 2877.83 -2.49514 1.73137 0
M  V30 31698 H 2875.41 -1.18879 0.904884 0
M  V30 31699 H 2877.29 -4.21396 -0.0184635 0
M  V30 31700 H 2875.97 -3.1779 -0.615727 0
M  V30 31701 H 2874.88 -3.33431 1.69631 0
M  V30 31702 H 2876.21 -4.39581 2.21425 0
M  V30 31703 N 2877.86 -0.920419 -1.2793 0
M  V30 31704 C 2878.79 -0.431064 -2.29487 0
M  V30 31705 C 2879.77 0.504833 -1.62436 0
M  V30 31706 O 2880.96 0.411142 -1.89798 0
M  V30 31707 C 2878.09 0.323648 -3.45789 0
M  V30 31708 C 2877.04 -0.523732 -4.24784 0
M  V30 31709 C 2876.37 0.359716 -5.33489 0
M  V30 31710 C 2877.67 -1.78445 -4.90871 0
M  V30 31711 H 2879.36 -1.2798 -2.70669 0
M  V30 31712 H 2876.91 -0.616836 -1.3012 0
M  V30 31713 H 2878.86 0.676879 -4.15928 0
M  V30 31714 H 2877.58 1.20634 -3.03504 0
M  V30 31715 H 2876.24 -0.859572 -3.5638 0
M  V30 31716 H 2875.89 1.24115 -4.87447 0
M  V30 31717 H 2875.59 -0.203709 -5.87247 0
M  V30 31718 H 2877.11 0.708681 -6.06473 0
M  V30 31719 H 2878.53 -1.49973 -5.53336 0
M  V30 31720 H 2876.93 -2.2908 -5.54655 0
M  V30 31721 H 2878 -2.50831 -4.14984 0
M  V30 31722 N 2879.34 1.41929 -0.685124 0
M  V30 31723 C 2880.27 2.33484 -0.0273917 0
M  V30 31724 C 2881.25 1.51248 0.778339 0
M  V30 31725 O 2882.43 1.79818 0.733417 0
M  V30 31726 C 2879.56 3.34969 0.917213 0
M  V30 31727 C 2878.52 4.27438 0.219334 0
M  V30 31728 C 2877.84 5.19213 1.27758 0
M  V30 31729 C 2879.14 5.14347 -0.907984 0
M  V30 31730 H 2880.84 2.88733 -0.792045 0
M  V30 31731 H 2878.38 1.38832 -0.382332 0
M  V30 31732 H 2880.34 3.97937 1.3865 0
M  V30 31733 H 2879.06 2.78046 1.71341 0
M  V30 31734 H 2877.72 3.65879 -0.229822 0
M  V30 31735 H 2877.37 4.58611 2.06604 0
M  V30 31736 H 2877.07 5.81911 0.815701 0
M  V30 31737 H 2878.59 5.85057 1.7476 0
M  V30 31738 H 2880.01 5.70942 -0.519448 0
M  V30 31739 H 2878.4 5.85932 -1.29631 0
M  V30 31740 H 2879.47 4.52133 -1.75226 0
M  V30 31741 N 2880.82 0.429152 1.51644 0
M  V30 31742 C 2881.75 -0.431452 2.24084 0
M  V30 31743 C 2882.73 -1.03151 1.25693 0
M  V30 31744 O 2883.91 -1.07554 1.54804 0
M  V30 31745 C 2881.04 -1.60062 2.98493 0
M  V30 31746 C 2880.08 -1.12203 4.11476 0
M  V30 31747 S 2880.92 -0.0707508 5.35453 0
M  V30 31748 C 2882.07 -1.24477 6.13397 0
M  V30 31749 H 2882.31 0.183577 2.96733 0
M  V30 31750 H 2879.84 0.213601 1.52915 0
M  V30 31751 H 2881.8 -2.27093 3.41964 0
M  V30 31752 H 2880.46 -2.18704 2.25449 0
M  V30 31753 H 2879.65 -1.9961 4.62787 0
M  V30 31754 H 2879.25 -0.530084 3.70224 0
M  V30 31755 H 2881.55 -2.16468 6.41987 0
M  V30 31756 H 2882.49 -0.771797 7.03881 0
M  V30 31757 H 2882.9 -1.47964 5.44763 0
M  V30 31758 N 2882.29 -1.56783 0.160229 0
M  V30 31759 C 2883.24 -2.18724 -0.791363 0
M  V30 31760 C 2884.24 -1.14804 -1.24565 0
M  V30 31761 O 2885.44 -1.33027 -1.2126 0
M  V30 31762 H 2881.82 -0.700522 -0.273446 0
M  V30 31763 H 2883.79 -2.97394 -0.244878 0
M  V30 31764 C 2882.54 -2.83358 -2.01504 0
M  V30 31765 H 2881.86 -3.63044 -1.67448 0
M  V30 31766 H 2883.3 -3.30182 -2.66 0
M  V30 31767 C 2881.76 -1.8255 -2.83155 0
M  V30 31768 O 2882.29 -1.30411 -3.79942 0
M  V30 31769 N 2880.5 -1.51556 -2.4795 0
M  V30 31770 H 2880.04 -1.94147 -1.69306 0
M  V30 31771 H 2880 -0.843572 -3.02872 0
M  V30 31772 N 2883.77 0.113531 -1.57191 0
M  V30 31773 C 2884.72 1.15796 -2.01728 0
M  V30 31774 C 2885.72 1.42554 -0.91513 0
M  V30 31775 O 2886.92 1.42452 -1.10033 0
M  V30 31776 H 2883.3 0.390557 -0.642627 0
M  V30 31777 H 2885.27 0.755876 -2.88668 0
M  V30 31778 C 2884.02 2.47503 -2.44208 0
M  V30 31779 H 2883.34 2.27753 -3.28586 0
M  V30 31780 H 2884.78 3.1913 -2.79163 0
M  V30 31781 C 2883.24 3.10476 -1.3079 0
M  V30 31782 O 2883.77 3.96778 -0.626877 0
M  V30 31783 N 2881.97 2.70438 -1.06357 0
M  V30 31784 H 2881.52 2.00352 -1.61916 0
M  V30 31785 H 2881.48 3.12901 -0.306669 0
M  V30 31786 N 2885.25 1.52854 0.383864 0
M  V30 31787 C 2886.2 1.74378 1.46889 0
M  V30 31788 C 2887.19 0.597936 1.49377 0
M  V30 31789 O 2888.38 0.855956 1.54927 0
M  V30 31790 C 2885.51 1.92068 2.84543 0
M  V30 31791 C 2884.59 3.12599 2.86605 0
M  V30 31792 N 2884.98 4.34855 2.58332 0
M  V30 31793 C 2883.28 3.12949 3.17771 0
M  V30 31794 C 2883.98 5.1649 2.67607 0
M  V30 31795 N 2882.96 4.5229 3.01554 0
M  V30 31796 H 2886.76 2.66524 1.23864 0
M  V30 31797 H 2884.27 1.51231 0.591869 0
M  V30 31798 H 2886.27 2.05611 3.6267 0
M  V30 31799 H 2884.93 1.01138 3.08547 0
M  V30 31800 H 2885.94 4.629 2.32258 0
M  V30 31801 H 2882.62 2.31848 3.47207 0
M  V30 31802 H 2884.01 6.23959 2.49249 0
M  V30 31803 N 2886.73 -0.642612 1.43904 0
M  V30 31804 C 2887.66 -1.76797 1.45861 0
M  V30 31805 C 2888.67 -1.58918 0.353386 0
M  V30 31806 O 2889.86 -1.67444 0.618455 0
M  V30 31807 C 2886.96 -3.1437 1.26589 0
M  V30 31808 C 2886.14 -3.58812 2.50145 0
M  V30 31809 C 2885.2 -4.75223 2.25941 0
M  V30 31810 O 2884.22 -4.8412 2.9936 0
M  V30 31811 N 2885.42 -5.6615 1.28273 0
M  V30 31812 H 2888.19 -1.75593 2.42872 0
M  V30 31813 H 2885.75 -0.826807 1.39196 0
M  V30 31814 H 2887.74 -3.89951 1.08262 0
M  V30 31815 H 2886.31 -3.10284 0.379834 0
M  V30 31816 H 2885.53 -2.73563 2.83826 0
M  V30 31817 H 2886.82 -3.85254 3.32351 0
M  V30 31818 H 2886.22 -5.61645 0.67614 0
M  V30 31819 H 2884.77 -6.41408 1.15928 0
M  V30 31820 N 2888.21 -1.30611 -0.881966 0
M  V30 31821 C 2889.46 -1.19371 -1.6308 0
M  V30 31822 C 2889.78 0.251113 -1.93376 0
M  V30 31823 O 2889.05 1.16855 -1.57232 0
M  V30 31824 H 2887.63 -0.438802 -0.604535 0
M  V30 31825 H 2890.29 -1.63778 -1.05655 0
M  V30 31826 H 2889.38 -1.75675 -2.57963 0
M  V30 31827 N 2889.69 1.0947 -1.13376 0
M  V30 31828 C 2890.93 1.81009 -0.889876 0
M  V30 31829 C 2891.25 1.86627 0.585653 0
M  V30 31830 O 2892.45 2.54469 0.946452 0
M  V30 31831 C 2890.91 3.25171 -1.54246 0
M  V30 31832 C 2890.52 3.2782 -3.05349 0
M  V30 31833 C 2892.26 4.01468 -1.37926 0
M  V30 31834 C 2890.17 4.66504 -3.63495 0
M  V30 31835 H 2889.1 0.678306 -0.329268 0
M  V30 31836 H 2891.75 1.23036 -1.36141 0
M  V30 31837 H 2890.13 3.83202 -0.998592 0
M  V30 31838 H 2891.31 2.79557 -3.66312 0
M  V30 31839 H 2889.62 2.65014 -3.2118 0
M  V30 31840 H 2892.22 5.03926 -1.7878 0
M  V30 31841 H 2892.56 4.15037 -0.32406 0
M  V30 31842 H 2893.09 3.49877 -1.8929 0
M  V30 31843 H 2889.83 4.58137 -4.68819 0
M  V30 31844 H 2889.35 5.15093 -3.07309 0
M  V30 31845 H 2891.03 5.35478 -3.63143 0
M  V30 31846 N 2891.16 0.92719 1.2744 0
M  V30 31847 C 2892.11 0.424499 2.26863 0
M  V30 31848 C 2893.08 -0.508319 1.58131 0
M  V30 31849 O 2894.27 -0.427587 1.85947 0
M  V30 31850 C 2891.41 -0.317119 3.4364 0
M  V30 31851 C 2890.52 0.64975 4.27086 0
M  V30 31852 C 2889.65 -0.11166 5.31083 0
M  V30 31853 C 2888.69 0.847949 6.06198 0
M  V30 31854 N 2887.83 0.119198 7.01999 0
M  V30 31855 H 2892.67 1.27732 2.69237 0
M  V30 31856 H 2890.21 0.64113 1.32393 0
M  V30 31857 H 2892.16 -0.763413 4.10156 0
M  V30 31858 H 2890.79 -1.13419 3.02219 0
M  V30 31859 H 2889.85 1.21457 3.60489 0
M  V30 31860 H 2891.16 1.38315 4.79239 0
M  V30 31861 H 2890.31 -0.617894 6.03545 0
M  V30 31862 H 2889.05 -0.87803 4.79731 0
M  V30 31863 H 2888.06 1.36544 5.32575 0
M  V30 31864 H 2889.28 1.61409 6.59639 0
M  V30 31865 H 2887.23 -0.628936 6.52978 0
M  V30 31866 H 2887.14 0.792178 7.51838 0
M  V30 31867 H 2888.41 -0.3664 7.78638 0
M  V30 31868 N 2892.64 -1.41564 0.692641 0
M  V30 31869 C 2893.6 -2.29174 0.0344577 0
M  V30 31870 C 2894.6 -1.4423 -0.710936 0
M  V30 31871 O 2895.79 -1.65413 -0.546264 0
M  V30 31872 C 2892.93 -3.27056 -0.961624 0
M  V30 31873 H 2894.12 -2.88872 0.805806 0
M  V30 31874 H 2891.67 -1.49501 0.455973 0
M  V30 31875 H 2892.41 -2.72332 -1.76084 0
M  V30 31876 H 2892.19 -3.89732 -0.430306 0
M  V30 31877 H 2893.68 -3.92715 -1.42003 0
M  V30 31878 N 2894.12 -0.437188 -1.51415 0
M  V30 31879 C 2895.03 0.380497 -2.31494 0
M  V30 31880 C 2896.05 1.02779 -1.40401 0
M  V30 31881 O 2897.22 1.0232 -1.73472 0
M  V30 31882 C 2894.29 1.46703 -3.14132 0
M  V30 31883 C 2893.35 0.839879 -4.21004 0
M  V30 31884 C 2892.58 1.87464 -4.99693 0
M  V30 31885 O 2892.8 3.09681 -4.79013 0
M  V30 31886 O 2891.74 1.46526 -5.83793 0
M  V30 31887 H 2895.56 -0.273236 -3.02468 0
M  V30 31888 H 2893.15 -0.199732 -1.48059 0
M  V30 31889 H 2895.03 2.09718 -3.65508 0
M  V30 31890 H 2893.71 2.10485 -2.45922 0
M  V30 31891 H 2892.61 0.171686 -3.73706 0
M  V30 31892 H 2893.95 0.245551 -4.91587 0
M  V30 31893 N 2895.6 1.56696 -0.168541 0
M  V30 31894 C 2896.85 1.95974 0.477198 0
M  V30 31895 C 2897.16 1.05707 1.64576 0
M  V30 31896 O 2898.37 1.34654 2.35755 0
M  V30 31897 C 2896.82 3.48456 0.900352 0
M  V30 31898 C 2896.43 4.47343 -0.242461 0
M  V30 31899 C 2898.17 3.96558 1.51467 0
M  V30 31900 C 2896.08 5.91061 0.200168 0
M  V30 31901 H 2895.01 0.731693 0.182048 0
M  V30 31902 H 2897.66 1.81701 -0.256329 0
M  V30 31903 H 2896.04 3.58138 1.68978 0
M  V30 31904 H 2897.22 4.49375 -1.01975 0
M  V30 31905 H 2895.53 4.09283 -0.766555 0
M  V30 31906 H 2898.13 5.01387 1.85783 0
M  V30 31907 H 2898.47 3.39336 2.41157 0
M  V30 31908 H 2899.01 3.89882 0.789733 0
M  V30 31909 H 2895.74 6.5215 -0.661889 0
M  V30 31910 H 2895.26 5.92343 0.942875 0
M  V30 31911 H 2896.94 6.43777 0.644975 0
M  V30 31912 N 2897.08 -0.105193 1.57249 0
M  V30 31913 C 2898.35 -0.841616 1.76568 0
M  V30 31914 C 2898.73 -1.97419 0.7476 0
M  V30 31915 O 2898.08 -2.27381 -0.225846 0
M  V30 31916 C 2898.29 -1.34555 3.22019 0
M  V30 31917 C 2899.64 -1.79238 3.84914 0
M  V30 31918 O 2900.66 -1.44202 3.25706 0
M  V30 31919 O 2899.52 -2.43986 4.89012 0
M  V30 31920 H 2896.62 -0.400685 0.72345 0
M  V30 31921 H 2899.16 -0.0878595 1.69472 0
M  V30 31922 H 2897.93 -0.533617 3.87644 0
M  V30 31923 H 2897.56 -2.16161 3.33707 0
M  V30 31924 N 2898.55 -1.53055 -0.375752 0
M  V30 31925 C 2899.52 -1.78113 -1.44251 0
M  V30 31926 C 2900.52 -0.651354 -1.47017 0
M  V30 31927 O 2901.71 -0.919498 -1.47956 0
M  V30 31928 C 2898.84 -1.89396 -2.83447 0
M  V30 31929 H 2900.03 -2.73376 -1.23311 0
M  V30 31930 H 2897.59 -1.43978 -0.608287 0
M  V30 31931 H 2898.32 -0.961643 -3.09714 0
M  V30 31932 H 2898.11 -2.7156 -2.82839 0
M  V30 31933 H 2899.6 -2.1041 -3.60718 0
M  V30 31934 N 2900.03 0.634971 -1.44242 0
M  V30 31935 C 2901.45 0.952719 -1.28045 0
M  V30 31936 C 2901.65 2.00367 -0.213415 0
M  V30 31937 O 2900.7 2.49279 0.401998 0
M  V30 31938 C 2902.02 1.41964 -2.65079 0
M  V30 31939 C 2903.57 1.53532 -2.72758 0
M  V30 31940 C 2904.04 2.03609 -4.10253 0
M  V30 31941 N 2905.53 2.10885 -4.1241 0
M  V30 31942 C 2906.27 2.50794 -5.15645 0
M  V30 31943 N 2905.76 2.89868 -6.29244 0
M  V30 31944 N 2907.56 2.50894 -5.03 0
M  V30 31945 H 2899.71 -0.0601353 -2.12315 0
M  V30 31946 H 2901.97 0.0357159 -0.947327 0
M  V30 31947 H 2901.68 0.721743 -3.44215 0
M  V30 31948 H 2901.55 2.39136 -2.91709 0
M  V30 31949 H 2903.94 2.22419 -1.93943 0
M  V30 31950 H 2904.02 0.547452 -2.49873 0
M  V30 31951 H 2903.66 1.35318 -4.89542 0
M  V30 31952 H 2903.59 3.0326 -4.30512 0
M  V30 31953 H 2906.08 1.83387 -3.3042 0
M  V30 31954 H 2906.4 3.19123 -7.03833 0
M  V30 31955 H 2904.74 2.87629 -6.32688 0
M  V30 31956 H 2907.93 2.19756 -4.1331 0
M  V30 31957 H 2908.1 2.81673 -5.83579 0
M  V30 31958 N 2901.51 1.31076 0.875027 0
M  V30 31959 C 2902.46 1.18222 2.00315 0
M  V30 31960 C 2903.45 0.091717 1.69152 0
M  V30 31961 O 2904.66 0.253261 1.78209 0
M  V30 31962 H 2901.03 0.365907 0.656975 0
M  V30 31963 H 2903 2.13678 2.08289 0
M  V30 31964 C 2901.75 0.901154 3.35819 0
M  V30 31965 H 2901.08 1.7324 3.60317 0
M  V30 31966 H 2902.52 0.851368 4.15365 0
M  V30 31967 C 2900.98 -0.396056 3.34564 0
M  V30 31968 O 2901.51 -1.41445 3.75974 0
M  V30 31969 N 2899.71 -0.410781 2.87682 0
M  V30 31970 H 2899.26 0.41846 2.54178 0
M  V30 31971 H 2899.22 -1.27864 2.87225 0
M  V30 31972 N 2902.99 -1.08867 1.13955 0
M  V30 31973 C 2904.27 -1.77775 0.815799 0
M  V30 31974 C 2904.65 -1.9945 -0.691589 0
M  V30 31975 O 2903.99 -1.60052 -1.63082 0
M  V30 31976 C 2904.2 -3.09686 1.60921 0
M  V30 31977 C 2905.55 -3.84298 1.80556 0
M  V30 31978 O 2906.58 -3.19454 1.57568 0
M  V30 31979 O 2905.43 -5.00721 2.18955 0
M  V30 31980 H 2902.53 -0.771266 0.298458 0
M  V30 31981 H 2905.07 -1.15372 1.24448 0
M  V30 31982 H 2903.85 -2.89431 2.63336 0
M  V30 31983 H 2903.47 -3.79815 1.17584 0
M  V30 31984 N 2904.47 -0.933936 -1.26946 0
M  V30 31985 C 2905.69 -0.593624 -1.98723 0
M  V30 31986 C 2906.12 0.822772 -1.69151 0
M  V30 31987 O 2905.47 1.55309 -0.935357 0
M  V30 31988 C 2905.52 -0.833604 -3.50832 0
M  V30 31989 O 2904.63 0.0978064 -4.12284 0
M  V30 31990 H 2903.97 -0.22786 -0.623679 0
M  V30 31991 H 2906.5 -1.25489 -1.61597 0
M  V30 31992 H 2906.51 -0.75163 -4.01017 0
M  V30 31993 H 2905.18 -1.86604 -3.71688 0
M  V30 31994 H 2903.76 -0.0346098 -3.72884 0
M  V30 31995 N 2905.94 1.41194 -0.700139 0
M  V30 31996 C 2907.19 2.01155 -0.233041 0
M  V30 31997 C 2907.52 1.55464 1.16881 0
M  V30 31998 O 2906.77 0.758727 1.80394 0
M  V30 31999 C 2907.07 3.56566 -0.244049 0
M  V30 32000 C 2906.74 4.21783 -1.59405 0
M  V30 32001 C 2905.4 4.39312 -1.96363 0
M  V30 32002 C 2907.75 4.58308 -2.482 0
M  V30 32003 C 2905.08 4.90644 -3.21691 0
M  V30 32004 C 2907.43 5.11032 -3.72866 0
M  V30 32005 C 2906.1 5.26772 -4.09961 0
M  V30 32006 H 2905.37 0.736077 -0.0852759 0
M  V30 32007 H 2908.01 1.69026 -0.900129 0
M  V30 32008 H 2906.32 3.88511 0.506595 0
M  V30 32009 H 2908.02 4.00773 0.13496 0
M  V30 32010 H 2904.61 4.08517 -1.29661 0
M  V30 32011 H 2908.79 4.44416 -2.20926 0
M  V30 32012 H 2904.05 5.01014 -3.5042 0
M  V30 32013 H 2908.22 5.38274 -4.41853 0
M  V30 32014 H 2905.85 5.6631 -5.07146 0
M  V30 32015 N 2907.42 0.445212 1.51181 0
M  V30 32016 C 2908.65 -0.117055 2.06569 0
M  V30 32017 C 2909.07 -1.35779 1.31185 0
M  V30 32018 O 2908.42 -1.78634 0.373637 0
M  V30 32019 C 2908.47 -0.431345 3.58917 0
M  V30 32020 O 2908.19 0.760153 4.31455 0
M  V30 32021 C 2909.7 -1.04342 4.30845 0
M  V30 32022 H 2906.92 -0.00443256 0.670985 0
M  V30 32023 H 2909.46 0.626559 1.94665 0
M  V30 32024 H 2907.61 -1.12487 3.7071 0
M  V30 32025 H 2908.03 0.48914 5.22214 0
M  V30 32026 H 2909.5 -1.21328 5.38501 0
M  V30 32027 H 2909.98 -2.0266 3.89648 0
M  V30 32028 H 2910.59 -0.389055 4.23517 0
M  V30 32029 N 2908.9 -1.56605 0.176849 0
M  V30 32030 C 2910.13 -2.01426 -0.472793 0
M  V30 32031 C 2910.54 -1.05706 -1.56434 0
M  V30 32032 O 2909.9 -0.05884 -1.82405 0
M  V30 32033 C 2909.95 -3.46036 -1.04601 0
M  V30 32034 O 2909.67 -4.381 0.00197309 0
M  V30 32035 C 2911.17 -4.06285 -1.77333 0
M  V30 32036 H 2908.39 -0.660093 -0.120492 0
M  V30 32037 H 2910.94 -2.02571 0.280202 0
M  V30 32038 H 2909.09 -3.45648 -1.74947 0
M  V30 32039 H 2909.51 -5.22799 -0.422026 0
M  V30 32040 H 2910.98 -5.09377 -2.12694 0
M  V30 32041 H 2911.46 -3.48694 -2.67037 0
M  V30 32042 H 2912.06 -4.10393 -1.11616 0
M  V30 32043 N 2910.38 0.0968524 -1.57302 0
M  V30 32044 C 2911.62 0.806301 -1.87825 0
M  V30 32045 C 2911.98 1.75987 -0.767624 0
M  V30 32046 O 2913.18 2.51255 -0.955217 0
M  V30 32047 C 2911.45 1.51743 -3.23587 0
M  V30 32048 S 2913.01 2.26541 -3.75799 0
M  V30 32049 H 2909.83 0.268665 -0.658286 0
M  V30 32050 H 2912.43 0.0635132 -1.95397 0
M  V30 32051 H 2911.14 0.809278 -4.02342 0
M  V30 32052 H 2910.67 2.30016 -3.19149 0
M  V30 32053 H 2912.68 3.5265 -3.49074 0
M  V30 32054 N 2911.86 1.53252 0.36763 0
M  V30 32055 C 2913.11 1.68556 1.10779 0
M  V30 32056 C 2913.42 0.442799 1.90522 0
M  V30 32057 O 2914.62 0.476337 2.67289 0
M  V30 32058 C 2913.08 2.97962 2.01857 0
M  V30 32059 C 2912.69 4.29493 1.27435 0
M  V30 32060 C 2914.43 3.22633 2.75877 0
M  V30 32061 C 2912.34 5.4999 2.17404 0
M  V30 32062 H 2911.27 0.62802 0.417261 0
M  V30 32063 H 2913.92 1.79753 0.36894 0
M  V30 32064 H 2912.3 2.80563 2.79465 0
M  V30 32065 H 2913.48 4.57517 0.549058 0
M  V30 32066 H 2911.79 4.1125 0.652863 0
M  V30 32067 H 2914.39 4.09843 3.43414 0
M  V30 32068 H 2914.73 2.38607 3.41134 0
M  V30 32069 H 2915.26 3.40697 2.05354 0
M  V30 32070 H 2912 6.36487 1.56729 0
M  V30 32071 H 2911.52 5.26248 2.87789 0
M  V30 32072 H 2913.2 5.84701 2.77009 0
M  V30 32073 N 2913.34 -0.627313 1.44577 0
M  V30 32074 C 2914.25 -1.76773 1.54235 0
M  V30 32075 C 2915.26 -1.68659 0.427811 0
M  V30 32076 O 2916.44 -1.89368 0.685705 0
M  V30 32077 C 2913.5 -3.13171 1.48744 0
M  V30 32078 C 2912.56 -3.32888 2.71079 0
M  V30 32079 C 2911.8 -4.62779 2.6584 0
M  V30 32080 O 2912.02 -5.43831 1.72057 0
M  V30 32081 O 2910.95 -4.84781 3.5675 0
M  V30 32082 H 2914.78 -1.71577 2.50589 0
M  V30 32083 H 2912.36 -0.789006 1.26866 0
M  V30 32084 H 2914.25 -3.94474 1.48218 0
M  V30 32085 H 2912.92 -3.18901 0.555348 0
M  V30 32086 H 2911.83 -2.5125 2.77172 0
M  V30 32087 H 2913.16 -3.32023 3.63348 0
M  V30 32088 N 2914.81 -1.31539 -0.868063 0
M  V30 32089 C 2915.74 -1.21942 -1.99129 0
M  V30 32090 C 2916.72 -0.106196 -1.69768 0
M  V30 32091 O 2917.91 -0.291115 -1.92006 0
M  V30 32092 C 2915.04 -0.927938 -3.34674 0
M  V30 32093 C 2913.99 -2.00094 -3.78347 0
M  V30 32094 C 2913.32 -1.56212 -5.11373 0
M  V30 32095 C 2914.62 -3.41431 -3.9525 0
M  V30 32096 H 2916.31 -2.15915 -2.07416 0
M  V30 32097 H 2913.86 -1.03946 -0.996551 0
M  V30 32098 H 2915.81 -0.847399 -4.12792 0
M  V30 32099 H 2914.54 0.0474468 -3.26566 0
M  V30 32100 H 2913.2 -2.07141 -3.0247 0
M  V30 32101 H 2912.84 -0.574538 -4.99708 0
M  V30 32102 H 2912.54 -2.27995 -5.41564 0
M  V30 32103 H 2914.07 -1.49569 -5.91998 0
M  V30 32104 H 2915.48 -3.37048 -4.63758 0
M  V30 32105 H 2913.88 -4.11448 -4.36842 0
M  V30 32106 H 2914.95 -3.82077 -2.98572 0
M  V30 32107 N 2916.29 1.08262 -1.1453 0
M  V30 32108 C 2917.54 1.8032 -0.91263 0
M  V30 32109 C 2917.86 1.86719 0.562224 0
M  V30 32110 O 2917.13 1.36137 1.40867 0
M  V30 32111 H 2915.71 0.667843 -0.334657 0
M  V30 32112 H 2918.37 1.30881 -1.44417 0
M  V30 32113 H 2917.47 2.83096 -1.31389 0
M  V30 32114 N 2917.77 0.940655 1.26449 0
M  V30 32115 C 2918.72 0.448537 2.264 0
M  V30 32116 C 2919.69 -0.491518 1.58661 0
M  V30 32117 O 2920.87 -0.407841 1.8639 0
M  V30 32118 C 2918.01 -0.280654 3.43957 0
M  V30 32119 C 2917.12 0.695012 4.26373 0
M  V30 32120 C 2916.26 -0.0553253 5.31171 0
M  V30 32121 C 2915.3 0.912197 6.05265 0
M  V30 32122 N 2914.44 0.193647 7.01833 0
M  V30 32123 H 2919.28 1.30581 2.67867 0
M  V30 32124 H 2916.81 0.655136 1.31706 0
M  V30 32125 H 2918.77 -0.719868 4.10943 0
M  V30 32126 H 2917.4 -1.10207 3.03405 0
M  V30 32127 H 2916.45 1.25274 3.59181 0
M  V30 32128 H 2917.76 1.4339 4.77745 0
M  V30 32129 H 2916.92 -0.553845 6.04167 0
M  V30 32130 H 2915.66 -0.827099 4.80635 0
M  V30 32131 H 2914.66 1.42185 5.31097 0
M  V30 32132 H 2915.89 1.68397 6.5789 0
M  V30 32133 H 2913.83 -0.559644 6.53608 0
M  V30 32134 H 2913.75 0.871876 7.50956 0
M  V30 32135 H 2915.02 -0.283795 7.78983 0
M  V30 32136 N 2919.25 -1.40821 0.707617 0
M  V30 32137 C 2920.47 -2.05867 0.251662 0
M  V30 32138 C 2920.9 -1.52942 -1.09501 0
M  V30 32139 O 2920.26 -0.661415 -1.68805 0
M  V30 32140 C 2920.3 -3.59847 0.232933 0
M  V30 32141 O 2919.41 -4.04794 -0.788405 0
M  V30 32142 H 2918.75 -0.653076 0.119947 0
M  V30 32143 H 2921.28 -1.80367 0.965862 0
M  V30 32144 H 2921.29 -4.07944 0.0678921 0
M  V30 32145 H 2919.96 -3.97735 1.21572 0
M  V30 32146 H 2918.54 -3.68175 -0.591738 0
M  V30 32147 N 2920.73 -0.453223 -1.50943 0
M  V30 32148 C 2921.66 0.340399 -2.31005 0
M  V30 32149 C 2922.64 1.00667 -1.37114 0
M  V30 32150 O 2923.82 1.00727 -1.66035 0
M  V30 32151 C 2920.95 1.43295 -3.1636 0
M  V30 32152 C 2919.91 0.889289 -4.18659 0
M  V30 32153 C 2919.23 2.07879 -4.92636 0
M  V30 32154 C 2920.53 -0.087206 -5.22227 0
M  V30 32155 H 2922.23 -0.327775 -2.976 0
M  V30 32156 H 2919.77 -0.159079 -1.43119 0
M  V30 32157 H 2921.72 1.99549 -3.71158 0
M  V30 32158 H 2920.45 2.12964 -2.47617 0
M  V30 32159 H 2919.11 0.348851 -3.64936 0
M  V30 32160 H 2918.76 2.76204 -4.20381 0
M  V30 32161 H 2918.46 1.72133 -5.61822 0
M  V30 32162 H 2919.98 2.64656 -5.50263 0
M  V30 32163 H 2921.39 0.385555 -5.72002 0
M  V30 32164 H 2919.79 -0.358031 -5.99031 0
M  V30 32165 H 2920.86 -1.01887 -4.74075 0
M  V30 32166 N 2922.2 1.56509 -0.185151 0
M  V30 32167 C 2923.13 2.21628 0.735059 0
M  V30 32168 C 2924.11 1.17622 1.22878 0
M  V30 32169 O 2925.3 1.46097 1.27942 0
M  V30 32170 C 2922.43 2.86787 1.95884 0
M  V30 32171 C 2921.38 3.96951 1.60043 0
M  V30 32172 C 2920.71 4.49225 2.90001 0
M  V30 32173 C 2922.01 5.15856 0.817917 0
M  V30 32174 H 2923.7 2.98782 0.192221 0
M  V30 32175 H 2921.25 1.43712 0.0910141 0
M  V30 32176 H 2923.2 3.31022 2.60773 0
M  V30 32177 H 2921.93 2.07023 2.52605 0
M  V30 32178 H 2920.59 3.53392 0.975174 0
M  V30 32179 H 2920.23 3.66236 3.4479 0
M  V30 32180 H 2919.93 5.23553 2.66769 0
M  V30 32181 H 2921.46 4.96156 3.55896 0
M  V30 32182 H 2922.87 5.56698 1.36969 0
M  V30 32183 H 2921.27 5.96188 0.684102 0
M  V30 32184 H 2922.34 4.84554 -0.183024 0
M  V30 32185 N 2923.68 -0.0885089 1.57351 0
M  V30 32186 C 2924.64 -1.09117 2.01559 0
M  V30 32187 C 2925.64 -1.32568 0.910076 0
M  V30 32188 O 2926.83 -1.2857 1.17539 0
M  V30 32189 C 2923.97 -2.43878 2.38194 0
M  V30 32190 H 2925.16 -0.71051 2.91362 0
M  V30 32191 H 2922.71 -0.333752 1.52695 0
M  V30 32192 H 2923.45 -2.86808 1.51365 0
M  V30 32193 H 2923.23 -2.28203 3.1885 0
M  V30 32194 H 2924.72 -3.15981 2.7303 0
M  V30 32195 N 2925.16 -1.53445 -0.359498 0
M  V30 32196 C 2926.58 -1.43353 -0.701574 0
M  V30 32197 C 2926.78 -0.577473 -1.93048 0
M  V30 32198 O 2925.83 -0.0622668 -2.52423 0
M  V30 32199 C 2927.14 -2.86628 -0.909099 0
M  V30 32200 C 2928.69 -2.963 -1.00873 0
M  V30 32201 C 2929.17 -4.40649 -1.24868 0
M  V30 32202 N 2930.66 -4.44105 -1.31624 0
M  V30 32203 C 2931.39 -5.52911 -1.51912 0
M  V30 32204 N 2930.89 -6.71751 -1.69477 0
M  V30 32205 N 2932.68 -5.40498 -1.54331 0
M  V30 32206 H 2924.83 -2.07606 0.448721 0
M  V30 32207 H 2927.1 -0.937794 0.138729 0
M  V30 32208 H 2926.8 -3.51614 -0.0778379 0
M  V30 32209 H 2926.68 -3.30638 -1.81545 0
M  V30 32210 H 2929.06 -2.31464 -1.83053 0
M  V30 32211 H 2929.14 -2.55676 -0.0796272 0
M  V30 32212 H 2928.79 -5.06061 -0.431872 0
M  V30 32213 H 2928.72 -4.78851 -2.19109 0
M  V30 32214 H 2931.21 -3.58462 -1.1964 0
M  V30 32215 H 2931.52 -7.50441 -1.84547 0
M  V30 32216 H 2929.87 -6.74726 -1.66643 0
M  V30 32217 H 2933.06 -4.46617 -1.4018 0
M  V30 32218 H 2933.23 -6.25357 -1.69801 0
M  V30 32219 N 2926.64 0.619637 -1.44908 0
M  V30 32220 C 2927.58 1.73102 -1.52657 0
M  V30 32221 C 2928.55 1.61849 -0.373362 0
M  V30 32222 O 2929.74 1.81605 -0.585174 0
M  V30 32223 C 2926.88 3.11384 -1.48775 0
M  V30 32224 C 2925.99 3.3353 -2.74557 0
M  V30 32225 C 2925.13 4.61849 -2.62429 0
M  V30 32226 C 2924.17 4.77213 -3.83321 0
M  V30 32227 N 2923.3 5.96819 -3.69799 0
M  V30 32228 H 2928.14 1.65815 -2.47607 0
M  V30 32229 H 2925.68 0.808698 -1.22876 0
M  V30 32230 H 2927.64 3.91372 -1.44513 0
M  V30 32231 H 2926.27 3.17659 -0.573839 0
M  V30 32232 H 2925.32 2.47402 -2.88957 0
M  V30 32233 H 2926.63 3.40759 -3.64259 0
M  V30 32234 H 2925.79 5.50014 -2.56065 0
M  V30 32235 H 2924.53 4.56998 -1.70306 0
M  V30 32236 H 2923.53 3.87474 -3.90056 0
M  V30 32237 H 2924.76 4.8387 -4.76495 0
M  V30 32238 H 2922.7 5.93036 -2.80436 0
M  V30 32239 H 2922.62 6.05155 -4.53127 0
M  V30 32240 H 2923.89 6.87515 -3.67347 0
M  V30 32241 N 2928.12 1.31997 0.861075 0
M  V30 32242 C 2929.07 1.16983 1.95701 0
M  V30 32243 C 2930.05 0.0784483 1.60709 0
M  V30 32244 O 2931.24 0.304293 1.74365 0
M  V30 32245 C 2928.37 0.888446 3.31604 0
M  V30 32246 C 2927.46 2.02123 3.72836 0
M  V30 32247 N 2927.85 3.26918 3.85951 0
M  V30 32248 C 2926.15 1.92296 4.02415 0
M  V30 32249 C 2926.85 4.01072 4.21326 0
M  V30 32250 N 2925.82 3.29315 4.32496 0
M  V30 32251 H 2929.63 2.11602 2.03965 0
M  V30 32252 H 2927.14 1.23684 1.05243 0
M  V30 32253 H 2929.14 0.761854 4.0988 0
M  V30 32254 H 2927.8 -0.0494328 3.24662 0
M  V30 32255 H 2928.81 3.6193 3.70442 0
M  V30 32256 H 2925.48 1.0603 4.03812 0
M  V30 32257 H 2926.87 5.08657 4.38996 0
M  V30 32258 N 2929.59 -1.07653 1.15103 0
M  V30 32259 C 2930.82 -1.83649 0.946389 0
M  V30 32260 C 2931.23 -1.82236 -0.508609 0
M  V30 32261 O 2930.58 -1.23 -1.36443 0
M  V30 32262 C 2930.64 -3.31979 1.37951 0
M  V30 32263 C 2930.3 -3.57117 2.85161 0
M  V30 32264 C 2931.3 -3.51316 3.8324 0
M  V30 32265 C 2928.98 -3.84881 3.22757 0
M  V30 32266 C 2930.98 -3.72923 5.16921 0
M  V30 32267 C 2928.66 -4.0614 4.56611 0
M  V30 32268 C 2929.66 -4.00156 5.53502 0
M  V30 32269 O 2929.35 -4.20849 6.84939 0
M  V30 32270 H 2929.08 -0.586366 0.336379 0
M  V30 32271 H 2931.64 -1.36816 1.53201 0
M  V30 32272 H 2929.87 -3.79607 0.737271 0
M  V30 32273 H 2931.56 -3.89432 1.14446 0
M  V30 32274 H 2932.32 -3.29872 3.55541 0
M  V30 32275 H 2928.2 -3.88655 2.47928 0
M  V30 32276 H 2931.74 -3.68167 5.92536 0
M  V30 32277 H 2927.64 -4.2707 4.84027 0
M  V30 32278 H 2928.41 -4.38213 6.91311 0
M  V30 32279 N 2931.07 -0.947348 -1.25949 0
M  V30 32280 C 2932.04 -0.466324 -2.24406 0
M  V30 32281 C 2933.04 0.425978 -1.55055 0
M  V30 32282 O 2934.23 0.224289 -1.7275 0
M  V30 32283 C 2931.36 0.327142 -3.39327 0
M  V30 32284 H 2932.55 -1.33647 -2.68474 0
M  V30 32285 H 2930.1 -0.729911 -1.3821 0
M  V30 32286 H 2930.84 1.21527 -3.00669 0
M  V30 32287 H 2930.62 -0.312907 -3.90849 0
M  V30 32288 H 2932.11 0.653404 -4.12457 0
M  V30 32289 N 2932.55 1.40444 -0.715075 0
M  V30 32290 C 2933.78 2.05731 -0.262576 0
M  V30 32291 C 2934.2 1.5352 1.08688 0
M  V30 32292 O 2933.56 0.670358 1.68451 0
M  V30 32293 C 2933.61 3.59718 -0.252013 0
M  V30 32294 O 2932.71 4.05206 0.766927 0
M  V30 32295 H 2932.05 0.652431 -0.123409 0
M  V30 32296 H 2934.58 1.79852 -0.975413 0
M  V30 32297 H 2934.59 4.07902 -0.0895254 0
M  V30 32298 H 2933.27 3.97085 -1.23679 0
M  V30 32299 H 2931.84 3.68484 0.572204 0
M  V30 32300 N 2934.03 0.461222 1.507 0
M  V30 32301 C 2934.94 -0.34362 2.3207 0
M  V30 32302 C 2935.95 -1.00533 1.42018 0
M  V30 32303 O 2937.13 -0.995468 1.75078 0
M  V30 32304 C 2934.2 -1.41687 3.16426 0
M  V30 32305 C 2933.26 -0.772795 4.22287 0
M  V30 32306 C 2932.49 -1.7949 5.02612 0
M  V30 32307 O 2932.71 -3.02021 4.8388 0
M  V30 32308 O 2931.65 -1.37219 5.8605 0
M  V30 32309 H 2935.47 0.321321 3.01995 0
M  V30 32310 H 2933.06 0.223261 1.47722 0
M  V30 32311 H 2934.94 -2.03876 3.68799 0
M  V30 32312 H 2933.61 -2.06546 2.4924 0
M  V30 32313 H 2932.52 -0.112211 3.73932 0
M  V30 32314 H 2933.85 -0.167313 4.91916 0
M  V30 32315 N 2935.51 -1.56408 0.193449 0
M  V30 32316 C 2936.42 -2.22621 -0.740073 0
M  V30 32317 C 2937.43 -1.22476 -1.23594 0
M  V30 32318 O 2938.61 -1.55208 -1.28345 0
M  V30 32319 C 2935.67 -2.8713 -1.94312 0
M  V30 32320 C 2934.73 -4.0254 -1.49198 0
M  V30 32321 C 2933.97 -4.63964 -2.63768 0
M  V30 32322 O 2934.19 -4.24308 -3.81208 0
M  V30 32323 O 2933.12 -5.53458 -2.36575 0
M  V30 32324 H 2936.95 -3.02999 -0.206184 0
M  V30 32325 H 2934.54 -1.49357 -0.0357676 0
M  V30 32326 H 2936.42 -3.27949 -2.64627 0
M  V30 32327 H 2935.09 -2.09732 -2.46564 0
M  V30 32328 H 2934 -3.66347 -0.757673 0
M  V30 32329 H 2935.33 -4.81597 -1.01614 0
M  V30 32330 N 2936.98 0.0801629 -1.57396 0
M  V30 32331 C 2938.23 0.779669 -1.86022 0
M  V30 32332 C 2938.55 1.79161 -0.784896 0
M  V30 32333 O 2939.75 2.54009 -0.958735 0
M  V30 32334 C 2938.21 1.43752 -3.29944 0
M  V30 32335 C 2937.82 0.464576 -4.45585 0
M  V30 32336 C 2939.56 2.11988 -3.67779 0
M  V30 32337 C 2937.47 1.12787 -5.80546 0
M  V30 32338 H 2936.4 0.294931 -0.693925 0
M  V30 32339 H 2939.05 0.0328205 -1.83471 0
M  V30 32340 H 2937.43 2.23234 -3.27082 0
M  V30 32341 H 2938.6 -0.29983 -4.59824 0
M  V30 32342 H 2936.92 -0.112886 -4.16247 0
M  V30 32343 H 2939.52 2.62374 -4.65901 0
M  V30 32344 H 2939.86 2.91555 -2.97155 0
M  V30 32345 H 2940.39 1.39348 -3.72595 0
M  V30 32346 H 2937.13 0.372692 -6.5444 0
M  V30 32347 H 2936.65 1.86334 -5.70123 0
M  V30 32348 H 2938.33 1.65009 -6.25604 0
M  V30 32349 N 2938.46 1.53634 0.351355 0
M  V30 32350 C 2939.41 1.81074 1.43112 0
M  V30 32351 C 2940.38 0.655939 1.526 0
M  V30 32352 O 2941.56 0.89958 1.68262 0
M  V30 32353 C 2938.7 2.01908 2.7987 0
M  V30 32354 C 2937.82 3.29623 2.79236 0
M  V30 32355 C 2936.95 3.40567 4.07661 0
M  V30 32356 C 2935.99 4.62261 4.01225 0
M  V30 32357 N 2935.13 4.7028 5.21326 0
M  V30 32358 H 2939.97 2.73203 1.19012 0
M  V30 32359 H 2937.51 1.35325 0.576667 0
M  V30 32360 H 2939.46 2.11975 3.59336 0
M  V30 32361 H 2938.09 1.13099 3.02338 0
M  V30 32362 H 2937.15 3.28436 1.91921 0
M  V30 32363 H 2938.46 4.19177 2.70356 0
M  V30 32364 H 2937.61 3.50024 4.95548 0
M  V30 32365 H 2936.35 2.49055 4.19313 0
M  V30 32366 H 2935.36 4.52889 3.11724 0
M  V30 32367 H 2936.58 5.55129 3.91164 0
M  V30 32368 H 2934.53 3.81675 5.33536 0
M  V30 32369 H 2934.44 5.53759 5.14672 0
M  V30 32370 H 2935.71 4.84038 6.11005 0
M  V30 32371 N 2939.94 -0.611943 1.45234 0
M  V30 32372 C 2940.85 -1.75127 1.56102 0
M  V30 32373 C 2941.87 -1.68196 0.445676 0
M  V30 32374 O 2943.04 -1.8863 0.705751 0
M  V30 32375 C 2940.11 -3.11576 1.52057 0
M  V30 32376 C 2939.17 -3.29994 2.74595 0
M  V30 32377 C 2938.4 -4.59934 2.70734 0
M  V30 32378 O 2938.62 -5.41976 1.77816 0
M  V30 32379 O 2937.56 -4.8097 3.61872 0
M  V30 32380 H 2941.38 -1.6891 2.52395 0
M  V30 32381 H 2938.97 -0.775505 1.27696 0
M  V30 32382 H 2940.85 -3.92879 1.52393 0
M  V30 32383 H 2939.53 -3.18294 0.589141 0
M  V30 32384 H 2938.43 -2.48296 2.79822 0
M  V30 32385 H 2939.77 -3.2815 3.66849 0
M  V30 32386 N 2941.42 -1.32452 -0.854063 0
M  V30 32387 C 2942.37 -1.21438 -1.96269 0
M  V30 32388 C 2943.34 -0.0964142 -1.6582 0
M  V30 32389 O 2944.52 -0.272063 -1.8885 0
M  V30 32390 C 2941.66 -0.94401 -3.31937 0
M  V30 32391 C 2940.77 -2.14682 -3.74881 0
M  V30 32392 C 2939.91 -1.81188 -4.99344 0
M  V30 32393 C 2938.95 -2.97786 -5.3478 0
M  V30 32394 N 2938.08 -2.64382 -6.5042 0
M  V30 32395 H 2942.92 -2.16264 -2.05021 0
M  V30 32396 H 2940.46 -1.07559 -1.00346 0
M  V30 32397 H 2942.42 -0.767747 -4.10075 0
M  V30 32398 H 2941.05 -0.032533 -3.22784 0
M  V30 32399 H 2940.1 -2.43333 -2.92392 0
M  V30 32400 H 2941.41 -3.01898 -3.97063 0
M  V30 32401 H 2940.57 -1.60117 -5.8519 0
M  V30 32402 H 2939.31 -0.911861 -4.791 0
M  V30 32403 H 2938.31 -3.19488 -4.47445 0
M  V30 32404 H 2939.54 -3.88521 -5.56981 0
M  V30 32405 H 2937.48 -1.76921 -6.31692 0
M  V30 32406 H 2937.4 -3.45128 -6.72624 0
M  V30 32407 H 2938.67 -2.46742 -7.39418 0
M  V30 32408 N 2942.9 1.07041 -1.15672 0
M  V30 32409 C 2943.83 2.16308 -0.879386 0
M  V30 32410 C 2944.81 1.69235 0.171281 0
M  V30 32411 O 2945.99 1.94184 0.0249834 0
M  V30 32412 C 2943.12 3.45309 -0.371368 0
M  V30 32413 C 2942.08 4.05849 -1.35907 0
M  V30 32414 C 2941.4 5.29968 -0.709771 0
M  V30 32415 C 2942.7 4.4551 -2.72614 0
M  V30 32416 H 2944.4 2.39765 -1.79313 0
M  V30 32417 H 2941.94 1.15232 -0.863578 0
M  V30 32418 H 2943.9 4.21077 -0.164872 0
M  V30 32419 H 2942.62 3.21447 0.577849 0
M  V30 32420 H 2941.28 3.32128 -1.55198 0
M  V30 32421 H 2940.93 5.024 0.245694 0
M  V30 32422 H 2940.63 5.71431 -1.36896 0
M  V30 32423 H 2942.15 6.0844 -0.513122 0
M  V30 32424 H 2943.57 5.12393 -2.5715 0
M  V30 32425 H 2941.96 4.97934 -3.34936 0
M  V30 32426 H 2943.03 3.56728 -3.2844 0
M  V30 32427 N 2944.38 0.954014 1.25445 0
M  V30 32428 C 2945.31 0.491757 2.28263 0
M  V30 32429 C 2946.29 -0.461588 1.63717 0
M  V30 32430 O 2947.47 -0.360676 1.90821 0
M  V30 32431 C 2944.6 -0.231854 3.46525 0
M  V30 32432 C 2943.56 0.636172 4.23246 0
M  V30 32433 C 2942.88 -0.218144 5.34255 0
M  V30 32434 C 2944.18 1.91397 4.85968 0
M  V30 32435 H 2945.88 1.35111 2.6718 0
M  V30 32436 H 2943.42 0.651118 1.28439 0
M  V30 32437 H 2945.37 -0.566365 4.17577 0
M  V30 32438 H 2944.1 -1.12545 3.06596 0
M  V30 32439 H 2942.76 0.953758 3.53976 0
M  V30 32440 H 2942.41 -1.11148 4.90566 0
M  V30 32441 H 2942.11 0.359335 5.865 0
M  V30 32442 H 2943.63 -0.547636 6.08139 0
M  V30 32443 H 2945.04 1.64591 5.49166 0
M  V30 32444 H 2943.44 2.43706 5.48386 0
M  V30 32445 H 2944.51 2.61746 4.08188 0
M  V30 32446 N 2945.85 -1.40063 0.722513 0
M  V30 32447 C 2946.79 -2.29173 0.034946 0
M  V30 32448 C 2947.8 -1.46183 -0.716545 0
M  V30 32449 O 2948.99 -1.69396 -0.562776 0
M  V30 32450 C 2946.09 -3.24579 -0.974782 0
M  V30 32451 C 2945.26 -4.36455 -0.287394 0
M  V30 32452 C 2944.32 -5.12253 -1.20347 0
M  V30 32453 O 2943.35 -5.65055 -0.685654 0
M  V30 32454 N 2944.55 -5.22266 -2.53413 0
M  V30 32455 H 2947.31 -2.88822 0.800109 0
M  V30 32456 H 2944.87 -1.51508 0.570707 0
M  V30 32457 H 2946.87 -3.72159 -1.58995 0
M  V30 32458 H 2945.44 -2.66048 -1.64125 0
M  V30 32459 H 2944.66 -3.90912 0.508076 0
M  V30 32460 H 2945.94 -5.08447 0.189472 0
M  V30 32461 H 2945.34 -4.80862 -2.97973 0
M  V30 32462 H 2943.9 -5.7333 -3.10057 0
M  V30 32463 N 2947.33 -0.469207 -1.50453 0
M  V30 32464 C 2948.26 0.315879 -2.31354 0
M  V30 32465 C 2949.24 0.99207 -1.38174 0
M  V30 32466 O 2950.43 0.989604 -1.67094 0
M  V30 32467 C 2947.56 1.39931 -3.17862 0
M  V30 32468 C 2946.51 0.844835 -4.19579 0
M  V30 32469 C 2945.84 2.02642 -4.94814 0
M  V30 32470 C 2947.14 -0.14259 -5.22105 0
M  V30 32471 H 2948.83 -0.359322 -2.97236 0
M  V30 32472 H 2946.38 -0.174249 -1.42942 0
M  V30 32473 H 2948.33 1.95601 -3.73254 0
M  V30 32474 H 2947.05 2.10326 -2.49861 0
M  V30 32475 H 2945.71 0.310125 -3.65286 0
M  V30 32476 H 2945.36 2.7173 -4.23287 0
M  V30 32477 H 2945.06 1.66164 -5.63616 0
M  V30 32478 H 2946.59 2.58805 -5.53039 0
M  V30 32479 H 2948 0.324865 -5.72379 0
M  V30 32480 H 2946.4 -0.421546 -5.98618 0
M  V30 32481 H 2947.47 -1.06909 -4.72968 0
M  V30 32482 N 2948.81 1.56303 -0.201741 0
M  V30 32483 C 2950.04 2.02152 0.440688 0
M  V30 32484 C 2950.45 1.08182 1.54733 0
M  V30 32485 O 2949.81 0.0878517 1.82288 0
M  V30 32486 C 2949.86 3.47656 0.990823 0
M  V30 32487 O 2949.58 4.38041 -0.0716707 0
M  V30 32488 C 2951.08 4.09055 1.70847 0
M  V30 32489 H 2948.3 0.661926 0.109975 0
M  V30 32490 H 2950.85 2.021 -0.312394 0
M  V30 32491 H 2949 3.48387 1.69426 0
M  V30 32492 H 2949.42 5.23405 0.3388 0
M  V30 32493 H 2950.89 5.12697 2.04563 0
M  V30 32494 H 2951.37 3.52899 2.61456 0
M  V30 32495 H 2951.97 4.12116 1.05072 0
M  V30 32496 N 2950.29 -0.0718147 1.57436 0
M  V30 32497 C 2951.2 -1.10323 2.07041 0
M  V30 32498 C 2952.21 -1.42398 0.999943 0
M  V30 32499 O 2953.39 -1.52575 1.31464 0
M  V30 32500 C 2950.45 -2.39748 2.50443 0
M  V30 32501 C 2949.52 -2.14644 3.71788 0
M  V30 32502 C 2948.75 -3.37899 4.1311 0
M  V30 32503 O 2948.97 -4.47016 3.54306 0
M  V30 32504 O 2947.91 -3.26113 5.05899 0
M  V30 32505 H 2951.73 -0.71182 2.9524 0
M  V30 32506 H 2949.32 -0.285945 1.46638 0
M  V30 32507 H 2951.2 -3.15917 2.78881 0
M  V30 32508 H 2949.87 -2.78269 1.65373 0
M  V30 32509 H 2948.78 -1.36181 3.48433 0
M  V30 32510 H 2950.11 -1.81004 4.5771 0
M  V30 32511 N 2951.77 -1.53818 -0.343203 0
M  V30 32512 C 2952.71 -1.8183 -1.4215 0
M  V30 32513 C 2953.68 -0.664023 -1.5225 0
M  V30 32514 O 2954.87 -0.908491 -1.67783 0
M  V30 32515 C 2952.01 -2.03389 -2.78796 0
M  V30 32516 C 2951.12 -3.31099 -2.77484 0
M  V30 32517 C 2950.26 -3.42724 -4.0585 0
M  V30 32518 C 2949.29 -4.64382 -3.98768 0
M  V30 32519 N 2948.43 -4.73038 -5.18825 0
M  V30 32520 H 2953.27 -2.73831 -1.17562 0
M  V30 32521 H 2950.81 -1.35629 -0.569482 0
M  V30 32522 H 2952.77 -2.13878 -3.58207 0
M  V30 32523 H 2951.4 -1.14701 -3.01734 0
M  V30 32524 H 2950.45 -3.2945 -1.90176 0
M  V30 32525 H 2951.76 -4.20605 -2.68129 0
M  V30 32526 H 2950.91 -3.52647 -4.93685 0
M  V30 32527 H 2949.65 -2.51275 -4.17986 0
M  V30 32528 H 2948.66 -4.54536 -3.09317 0
M  V30 32529 H 2949.88 -5.57195 -3.88214 0
M  V30 32530 H 2947.83 -3.84499 -5.31504 0
M  V30 32531 H 2947.75 -5.56481 -5.11728 0
M  V30 32532 H 2949.01 -4.87271 -6.0843 0
M  V30 32533 N 2953.24 0.604233 -1.45557 0
M  V30 32534 C 2954.66 0.925345 -1.30037 0
M  V30 32535 C 2954.86 1.99869 -0.255868 0
M  V30 32536 O 2953.92 2.50076 0.349032 0
M  V30 32537 C 2955.23 1.36309 -2.6803 0
M  V30 32538 C 2956.78 1.47712 -2.75953 0
M  V30 32539 C 2957.25 1.94861 -4.14479 0
M  V30 32540 N 2958.74 2.02089 -4.1679 0
M  V30 32541 C 2959.48 2.398 -5.20849 0
M  V30 32542 N 2958.97 2.76456 -6.35251 0
M  V30 32543 N 2960.77 2.40168 -5.08208 0
M  V30 32544 H 2952.92 -0.105157 -2.1214 0
M  V30 32545 H 2955.18 0.0156137 -0.947871 0
M  V30 32546 H 2954.89 0.648568 -3.45668 0
M  V30 32547 H 2954.76 2.32894 -2.96715 0
M  V30 32548 H 2957.15 2.18255 -1.98617 0
M  V30 32549 H 2957.23 0.494327 -2.50978 0
M  V30 32550 H 2956.87 1.24904 -4.92302 0
M  V30 32551 H 2956.8 2.9406 -4.36848 0
M  V30 32552 H 2959.29 1.76338 -3.34236 0
M  V30 32553 H 2959.61 3.04122 -7.10443 0
M  V30 32554 H 2957.95 2.74144 -6.38647 0
M  V30 32555 H 2961.14 2.1094 -4.17878 0
M  V30 32556 H 2961.32 2.69231 -5.89422 0
M  V30 32557 N 2954.72 1.32903 0.847027 0
M  V30 32558 C 2955.67 1.22477 1.95622 0
M  V30 32559 C 2956.64 0.105207 1.65766 0
M  V30 32560 O 2957.82 0.282075 1.88703 0
M  V30 32561 C 2954.96 0.9616 3.31432 0
M  V30 32562 C 2954.08 2.16667 3.73737 0
M  V30 32563 C 2953.21 1.83834 4.98376 0
M  V30 32564 C 2952.25 3.00618 5.33193 0
M  V30 32565 N 2951.39 2.67827 6.49009 0
M  V30 32566 H 2956.23 2.17348 2.03872 0
M  V30 32567 H 2953.76 1.0809 0.997745 0
M  V30 32568 H 2955.72 0.789484 4.09662 0
M  V30 32569 H 2954.35 0.0496505 3.22762 0
M  V30 32570 H 2953.4 2.44881 2.91097 0
M  V30 32571 H 2954.72 3.04 3.95456 0
M  V30 32572 H 2953.87 1.63218 5.84333 0
M  V30 32573 H 2952.61 0.937256 4.78609 0
M  V30 32574 H 2951.61 3.21857 4.45745 0
M  V30 32575 H 2952.84 3.9147 5.54913 0
M  V30 32576 H 2950.79 1.80269 6.30745 0
M  V30 32577 H 2950.7 3.4869 6.70784 0
M  V30 32578 H 2951.97 2.5066 7.38099 0
M  V30 32579 N 2956.2 -1.06426 1.16238 0
M  V30 32580 C 2957.11 -2.17388 0.882014 0
M  V30 32581 C 2958.13 -1.73393 -0.145228 0
M  V30 32582 O 2959.3 -2.01376 0.0310912 0
M  V30 32583 C 2956.37 -3.44549 0.385557 0
M  V30 32584 C 2955.43 -4.03061 1.47786 0
M  V30 32585 C 2954.66 -5.24152 1.005 0
M  V30 32586 O 2954.88 -5.70214 -0.145789 0
M  V30 32587 O 2953.82 -5.74582 1.79275 0
M  V30 32588 H 2957.64 -2.43879 1.80988 0
M  V30 32589 H 2955.23 -1.1594 0.942246 0
M  V30 32590 H 2957.11 -4.21241 0.11561 0
M  V30 32591 H 2955.79 -3.19588 -0.514313 0
M  V30 32592 H 2954.69 -3.27865 1.80153 0
M  V30 32593 H 2956.03 -4.32314 2.35298 0
M  V30 32594 N 2957.68 -0.960653 -1.24937 0
M  V30 32595 C 2958.61 -0.429843 -2.24115 0
M  V30 32596 C 2959.59 0.492161 -1.54973 0
M  V30 32597 O 2960.77 0.425158 -1.83643 0
M  V30 32598 C 2957.9 0.380253 -3.36559 0
M  V30 32599 C 2956.95 -0.483015 -4.23756 0
M  V30 32600 S 2957.78 -1.91894 -4.99937 0
M  V30 32601 C 2958.94 -1.11743 -6.15844 0
M  V30 32602 H 2959.17 -1.27034 -2.68793 0
M  V30 32603 H 2956.7 -0.765165 -1.34107 0
M  V30 32604 H 2958.66 0.841693 -4.01778 0
M  V30 32605 H 2957.32 1.19564 -2.90454 0
M  V30 32606 H 2956.51 0.13861 -5.03809 0
M  V30 32607 H 2956.12 -0.879903 -3.63502 0
M  V30 32608 H 2958.41 -0.369017 -6.76494 0
M  V30 32609 H 2959.35 -1.8921 -6.82353 0
M  V30 32610 H 2959.76 -0.64491 -5.60804 0
M  V30 32611 N 2959.16 1.39677 -0.729931 0
M  V30 32612 C 2960.41 1.9985 -0.272569 0
M  V30 32613 C 2960.72 1.58573 1.14516 0
M  V30 32614 O 2961.92 2.11546 1.70178 0
M  V30 32615 C 2960.38 3.57245 -0.436385 0
M  V30 32616 C 2959.99 4.07487 -1.86168 0
M  V30 32617 C 2961.73 4.24481 -0.0405425 0
M  V30 32618 C 2959.64 5.57436 -1.97531 0
M  V30 32619 H 2958.57 0.747584 -0.0981559 0
M  V30 32620 H 2961.22 1.59739 -0.903084 0
M  V30 32621 H 2959.6 3.95126 0.262945 0
M  V30 32622 H 2960.78 3.80951 -2.59255 0
M  V30 32623 H 2959.09 3.52896 -2.21027 0
M  V30 32624 H 2961.69 5.34598 -0.104531 0
M  V30 32625 H 2962.03 4.04024 1.0035 0
M  V30 32626 H 2962.56 3.91755 -0.690842 0
M  V30 32627 H 2959.3 5.82766 -3.00106 0
M  V30 32628 H 2958.82 5.85791 -1.28874 0
M  V30 32629 H 2960.5 6.22768 -1.75411 0
M  V30 32630 N 2960.63 0.47718 1.50202 0
M  V30 32631 C 2961.91 -0.137575 1.95116 0
M  V30 32632 C 2962.29 -1.56402 1.41781 0
M  V30 32633 O 2961.64 -2.19889 0.621372 0
M  V30 32634 C 2961.85 -0.0746555 3.4892 0
M  V30 32635 C 2963.2 -0.26051 4.238 0
M  V30 32636 O 2964.22 -0.150958 3.5588 0
M  V30 32637 O 2963.08 -0.482438 5.44366 0
M  V30 32638 H 2960.17 -0.10835 0.819872 0
M  V30 32639 H 2962.72 0.538017 1.60946 0
M  V30 32640 H 2961.49 0.921033 3.80306 0
M  V30 32641 H 2961.12 -0.79144 3.89643 0
M  V30 32642 N 2962.11 -1.56194 0.210027 0
M  V30 32643 C 2963.06 -2.19775 -0.704815 0
M  V30 32644 C 2964.03 -1.14966 -1.19884 0
M  V30 32645 O 2965.21 -1.43276 -1.26002 0
M  V30 32646 C 2962.35 -2.87268 -1.91236 0
M  V30 32647 C 2961.47 -4.06641 -1.45831 0
M  V30 32648 C 2960.6 -4.61949 -2.62252 0
M  V30 32649 C 2959.64 -5.73649 -2.13527 0
M  V30 32650 N 2958.78 -6.23298 -3.23179 0
M  V30 32651 H 2963.62 -2.97592 -0.155892 0
M  V30 32652 H 2961.16 -1.46955 -0.0651977 0
M  V30 32653 H 2963.11 -3.24577 -2.62117 0
M  V30 32654 H 2961.74 -2.11989 -2.43435 0
M  V30 32655 H 2960.8 -3.74895 -0.644831 0
M  V30 32656 H 2962.11 -4.87386 -1.06094 0
M  V30 32657 H 2961.26 -5.01642 -3.41234 0
M  V30 32658 H 2960 -3.80343 -3.05271 0
M  V30 32659 H 2959.01 -5.3347 -1.33004 0
M  V30 32660 H 2960.23 -6.57082 -1.71521 0
M  V30 32661 H 2958.18 -5.44609 -3.65701 0
M  V30 32662 H 2958.09 -6.99134 -2.87658 0
M  V30 32663 H 2959.36 -6.67646 -4.0233 0
M  V30 32664 N 2963.59 0.0634645 -1.57472 0
M  V30 32665 C 2964.84 0.75687 -1.88794 0
M  V30 32666 C 2965.19 1.74763 -0.80471 0
M  V30 32667 O 2964.48 1.90653 0.190297 0
M  V30 32668 C 2964.68 1.4973 -3.24524 0
M  V30 32669 C 2964.51 0.579755 -4.45947 0
M  V30 32670 C 2963.28 0.213578 -5.04848 0
M  V30 32671 C 2965.48 -0.127121 -5.14143 0
M  V30 32672 N 2963.46 -0.708819 -6.09794 0
M  V30 32673 C 2964.83 -0.906402 -6.13339 0
M  V30 32674 C 2966.88 -0.197713 -4.97507 0
M  V30 32675 C 2965.59 -1.74973 -6.97694 0
M  V30 32676 C 2967.61 -1.02804 -5.82396 0
M  V30 32677 C 2966.97 -1.79535 -6.81136 0
M  V30 32678 H 2963.07 0.252129 -0.74024 0
M  V30 32679 H 2965.66 0.0180683 -1.94692 0
M  V30 32680 H 2963.83 2.20677 -3.19619 0
M  V30 32681 H 2965.56 2.14038 -3.43468 0
M  V30 32682 H 2962.32 0.568275 -4.70178 0
M  V30 32683 H 2962.74 -1.16351 -6.66927 0
M  V30 32684 H 2967.38 0.381186 -4.21078 0
M  V30 32685 H 2965.1 -2.33957 -7.73492 0
M  V30 32686 H 2968.69 -1.08575 -5.71579 0
M  V30 32687 H 2967.57 -2.42749 -7.45683 0
M  V30 32688 N 2965.07 1.53998 0.33504 0
M  V30 32689 C 2965.98 1.85587 1.43508 0
M  V30 32690 C 2966.99 0.746754 1.57161 0
M  V30 32691 O 2968.17 1.03991 1.72476 0
M  V30 32692 C 2965.24 2.0665 2.78382 0
M  V30 32693 C 2964.3 3.30487 2.74001 0
M  V30 32694 C 2963.53 3.50536 4.02443 0
M  V30 32695 O 2963.75 2.74251 5.00142 0
M  V30 32696 O 2962.69 4.43987 4.06398 0
M  V30 32697 H 2966.51 2.79105 1.19726 0
M  V30 32698 H 2964.1 1.39758 0.528009 0
M  V30 32699 H 2965.98 2.21901 3.58243 0
M  V30 32700 H 2964.65 1.16322 3.02078 0
M  V30 32701 H 2963.56 3.20633 1.92731 0
M  V30 32702 H 2964.89 4.20837 2.5526 0
M  V30 32703 N 2966.55 -0.596505 1.45875 0
M  V30 32704 C 2967.82 -1.35625 1.40944 0
M  V30 32705 C 2968.2 -2.10926 0.0857437 0
M  V30 32706 O 2967.55 -2.08606 -0.932507 0
M  V30 32707 C 2967.76 -2.29381 2.63031 0
M  V30 32708 C 2969.11 -2.91643 3.08593 0
M  V30 32709 O 2970.13 -2.39699 2.63482 0
M  V30 32710 O 2968.99 -3.85958 3.86909 0
M  V30 32711 H 2966.09 -0.608686 0.559849 0
M  V30 32712 H 2968.63 -0.61867 1.58021 0
M  V30 32713 H 2967.4 -1.73074 3.50943 0
M  V30 32714 H 2967.03 -3.10501 2.48344 0
M  V30 32715 N 2968.02 -1.3335 -0.839967 0
M  V30 32716 C 2969.44 -1.12661 -1.13047 0
M  V30 32717 C 2969.64 0.0832259 -2.01328 0
M  V30 32718 O 2968.7 0.763814 -2.4067 0
M  V30 32719 C 2970.01 -2.4135 -1.79362 0
M  V30 32720 C 2971.56 -2.47246 -1.91933 0
M  V30 32721 C 2972.03 -3.75894 -2.61664 0
M  V30 32722 N 2973.52 -3.76959 -2.69177 0
M  V30 32723 C 2974.26 -4.73211 -3.23819 0
M  V30 32724 N 2973.75 -5.79839 -3.79156 0
M  V30 32725 N 2975.55 -4.60688 -3.2206 0
M  V30 32726 H 2967.7 -2.10895 -0.252394 0
M  V30 32727 H 2969.96 -0.931804 -0.174485 0
M  V30 32728 H 2969.67 -3.29879 -1.21954 0
M  V30 32729 H 2969.54 -2.53417 -2.79392 0
M  V30 32730 H 2971.93 -1.59167 -2.48495 0
M  V30 32731 H 2972.01 -2.39121 -0.908562 0
M  V30 32732 H 2971.65 -4.64354 -2.05761 0
M  V30 32733 H 2971.58 -3.81295 -3.6321 0
M  V30 32734 H 2974.07 -2.99897 -2.29935 0
M  V30 32735 H 2974.39 -6.4932 -4.1905 0
M  V30 32736 H 2972.73 -5.83574 -3.77447 0
M  V30 32737 H 2975.92 -3.76545 -2.78085 0
M  V30 32738 H 2976.1 -5.35872 -3.64342 0
M  V30 32739 N 2969.5 1.05808 -1.16801 0
M  V30 32740 C 2970.75 1.79107 -0.963961 0
M  V30 32741 C 2971.1 1.85721 0.502537 0
M  V30 32742 O 2970.4 1.34139 1.36811 0
M  V30 32743 C 2970.59 3.2294 -1.53117 0
M  V30 32744 C 2970.42 3.30343 -3.05129 0
M  V30 32745 C 2969.19 3.39991 -3.7381 0
M  V30 32746 C 2971.39 3.19798 -4.02782 0
M  V30 32747 N 2969.37 3.3646 -5.13486 0
M  V30 32748 C 2970.74 3.23566 -5.28871 0
M  V30 32749 C 2972.8 3.03717 -3.94538 0
M  V30 32750 C 2971.5 3.12906 -6.47674 0
M  V30 32751 C 2973.52 2.94396 -5.12918 0
M  V30 32752 C 2972.89 2.98792 -6.37889 0
M  V30 32753 H 2968.99 0.668003 -0.406567 0
M  V30 32754 H 2971.57 1.2618 -1.48279 0
M  V30 32755 H 2969.74 3.74252 -1.03876 0
M  V30 32756 H 2971.47 3.84442 -1.26437 0
M  V30 32757 H 2968.23 3.44993 -3.24464 0
M  V30 32758 H 2968.65 3.38181 -5.86483 0
M  V30 32759 H 2973.29 2.99161 -2.98768 0
M  V30 32760 H 2971.01 3.16218 -7.43661 0
M  V30 32761 H 2974.6 2.83033 -5.08314 0
M  V30 32762 H 2973.48 2.91644 -7.27952 0
M  V30 32763 N 2970.98 0.967265 1.24426 0
M  V30 32764 C 2971.89 0.504633 2.29108 0
M  V30 32765 C 2972.91 -0.434195 1.68496 0
M  V30 32766 O 2974.08 -0.307344 1.99041 0
M  V30 32767 C 2971.15 -0.198212 3.46133 0
M  V30 32768 C 2970.21 0.780388 4.22147 0
M  V30 32769 C 2969.44 0.110989 5.33585 0
M  V30 32770 O 2969.66 -1.10078 5.59678 0
M  V30 32771 O 2968.6 0.802928 5.9652 0
M  V30 32772 H 2972.42 1.37487 2.70797 0
M  V30 32773 H 2970.01 0.734283 1.3011 0
M  V30 32774 H 2971.89 -0.593051 4.17206 0
M  V30 32775 H 2970.57 -1.04342 3.06422 0
M  V30 32776 H 2969.47 1.22568 3.53452 0
M  V30 32777 H 2970.81 1.594 4.65674 0
M  V30 32778 N 2972.46 -1.39288 0.737328 0
M  V30 32779 C 2973.71 -2.0124 0.295616 0
M  V30 32780 C 2974.06 -1.57463 -1.10558 0
M  V30 32781 O 2973.35 -0.79463 -1.74345 0
M  V30 32782 C 2973.55 -3.55793 0.3385 0
M  V30 32783 C 2973.38 -4.14576 1.74232 0
M  V30 32784 C 2972.15 -4.47061 2.3551 0
M  V30 32785 C 2974.34 -4.37954 2.6963 0
M  V30 32786 N 2972.33 -4.91358 3.68022 0
M  V30 32787 C 2973.7 -4.84482 3.86881 0
M  V30 32788 C 2975.75 -4.20026 2.67363 0
M  V30 32789 C 2974.46 -5.14962 5.02202 0
M  V30 32790 C 2976.48 -4.51621 3.81828 0
M  V30 32791 C 2975.84 -4.98357 4.97815 0
M  V30 32792 H 2971.94 -0.76659 0.154481 0
M  V30 32793 H 2974.53 -1.69172 0.963798 0
M  V30 32794 H 2972.7 -3.87245 -0.299338 0
M  V30 32795 H 2974.43 -4.04516 -0.121982 0
M  V30 32796 H 2971.18 -4.3494 1.87414 0
M  V30 32797 H 2971.61 -5.17862 4.3606 0
M  V30 32798 H 2976.25 -3.83094 1.78883 0
M  V30 32799 H 2973.97 -5.50798 5.9131 0
M  V30 32800 H 2977.55 -4.39369 3.81374 0
M  V30 32801 H 2976.43 -5.22341 5.84919 0
M  V30 32802 N 2973.94 -0.485139 -1.49947 0
M  V30 32803 C 2974.87 0.291323 -2.31676 0
M  V30 32804 C 2975.85 0.977359 -1.39218 0
M  V30 32805 O 2977.03 0.971825 -1.68134 0
M  V30 32806 C 2974.16 1.36552 -3.19329 0
M  V30 32807 C 2973.12 0.800285 -4.20451 0
M  V30 32808 C 2972.44 1.97382 -4.96935 0
M  V30 32809 C 2973.74 -0.197959 -5.21925 0
M  V30 32810 H 2975.44 -0.390827 -2.96838 0
M  V30 32811 H 2972.98 -0.189401 -1.42749 0
M  V30 32812 H 2974.94 1.91631 -3.75307 0
M  V30 32813 H 2973.66 2.07664 -2.52078 0
M  V30 32814 H 2972.32 0.271364 -3.65594 0
M  V30 32815 H 2971.97 2.67225 -4.26145 0
M  V30 32816 H 2971.67 1.60177 -5.65347 0
M  V30 32817 H 2973.19 2.52925 -5.55753 0
M  V30 32818 H 2974.61 0.264138 -5.72691 0
M  V30 32819 H 2973 -0.485014 -5.98137 0
M  V30 32820 H 2974.07 -1.1192 -4.71807 0
M  V30 32821 N 2975.42 1.56081 -0.218307 0
M  V30 32822 C 2976.83 1.5901 0.13714 0
M  V30 32823 C 2977.03 1.23505 1.59213 0
M  V30 32824 O 2976.09 0.968757 2.33177 0
M  V30 32825 C 2977.4 3.00123 -0.186215 0
M  V30 32826 C 2978.95 3.12737 -0.12819 0
M  V30 32827 C 2979.42 4.56022 -0.425174 0
M  V30 32828 N 2980.91 4.61683 -0.374628 0
M  V30 32829 C 2981.65 5.7048 -0.57796 0
M  V30 32830 N 2981.15 6.87653 -0.842892 0
M  V30 32831 N 2982.94 5.59776 -0.510619 0
M  V30 32832 H 2975.09 1.77435 -1.16749 0
M  V30 32833 H 2977.35 0.824586 -0.46772 0
M  V30 32834 H 2977.06 3.30742 -1.19594 0
M  V30 32835 H 2976.93 3.73867 0.500323 0
M  V30 32836 H 2979.32 2.81917 0.872174 0
M  V30 32837 H 2979.4 2.4133 -0.848155 0
M  V30 32838 H 2979.04 4.87559 -1.42296 0
M  V30 32839 H 2978.97 5.25651 0.315945 0
M  V30 32840 H 2981.47 3.77483 -0.177422 0
M  V30 32841 H 2981.78 7.66481 -0.98623 0
M  V30 32842 H 2980.12 6.89406 -0.88005 0
M  V30 32843 H 2983.31 4.67112 -0.303895 0
M  V30 32844 H 2983.49 6.44501 -0.672491 0
M  V30 32845 N 2976.89 -0.0551124 1.57504 0
M  V30 32846 C 2977.82 -1.06368 2.07865 0
M  V30 32847 C 2978.8 -1.39342 0.97559 0
M  V30 32848 O 2979.99 -1.4868 1.24932 0
M  V30 32849 C 2977.12 -2.37235 2.53647 0
M  V30 32850 C 2976.07 -2.18572 3.67982 0
M  V30 32851 C 2975.4 -3.54969 3.99876 0
M  V30 32852 C 2976.7 -1.59321 4.97407 0
M  V30 32853 H 2978.39 -0.644544 2.9238 0
M  V30 32854 H 2975.94 -0.308595 1.40655 0
M  V30 32855 H 2977.89 -3.08098 2.87495 0
M  V30 32856 H 2976.62 -2.8116 1.66182 0
M  V30 32857 H 2975.28 -1.50146 3.34442 0
M  V30 32858 H 2974.92 -3.96495 3.09517 0
M  V30 32859 H 2974.62 -3.43315 4.76873 0
M  V30 32860 H 2976.15 -4.27237 4.36235 0
M  V30 32861 H 2977.56 -2.20069 5.29379 0
M  V30 32862 H 2975.96 -1.58316 5.7884 0
M  V30 32863 H 2977.03 -0.556296 4.81698 0
M  V30 32864 N 2978.37 -1.54173 -0.326869 0
M  V30 32865 C 2979.62 -1.71433 -1.06271 0
M  V30 32866 C 2979.93 -0.493157 -1.89281 0
M  V30 32867 O 2981.14 -0.547037 -2.65932 0
M  V30 32868 C 2979.6 -3.0321 -1.93886 0
M  V30 32869 C 2979.2 -4.32721 -1.16003 0
M  V30 32870 C 2980.95 -3.29834 -2.67226 0
M  V30 32871 C 2978.85 -5.55561 -2.02746 0
M  V30 32872 H 2977.78 -0.638862 -0.400464 0
M  V30 32873 H 2980.44 -1.80668 -0.321152 0
M  V30 32874 H 2978.82 -2.87874 -2.71928 0
M  V30 32875 H 2979.99 -4.58812 -0.427562 0
M  V30 32876 H 2978.31 -4.12837 -0.543598 0
M  V30 32877 H 2980.9 -4.18804 -3.32427 0
M  V30 32878 H 2981.25 -2.47568 -3.34688 0
M  V30 32879 H 2981.78 -3.46022 -1.96249 0
M  V30 32880 H 2978.52 -6.40419 -1.39798 0
M  V30 32881 H 2978.04 -5.33694 -2.73736 0
M  V30 32882 H 2979.72 -5.9184 -2.61409 0
M  V30 32883 N 2979.85 0.58876 -1.4619 0
M  V30 32884 C 2980.78 1.7086 -1.59151 0
M  V30 32885 C 2981.76 1.64254 -0.442112 0
M  V30 32886 O 2982.95 1.82364 -0.667608 0
M  V30 32887 C 2980.08 3.09495 -1.57576 0
M  V30 32888 C 2979.03 3.30928 -2.71424 0
M  V30 32889 C 2978.36 4.70028 -2.54908 0
M  V30 32890 C 2979.66 3.19349 -4.13296 0
M  V30 32891 H 2981.35 1.60269 -2.52892 0
M  V30 32892 H 2978.9 0.769617 -1.21708 0
M  V30 32893 H 2980.85 3.87652 -1.65238 0
M  V30 32894 H 2979.57 3.20971 -0.603761 0
M  V30 32895 H 2978.23 2.55167 -2.63221 0
M  V30 32896 H 2977.88 4.78261 -1.55805 0
M  V30 32897 H 2977.58 4.85321 -3.31266 0
M  V30 32898 H 2979.1 5.50361 -2.64452 0
M  V30 32899 H 2980.52 3.87358 -4.22643 0
M  V30 32900 H 2978.91 3.46166 -4.90193 0
M  V30 32901 H 2979.98 2.16514 -4.33877 0
M  V30 32902 N 2981.33 1.33794 0.832883 0
M  V30 32903 C 2982.24 1.26595 1.97511 0
M  V30 32904 C 2983.25 0.175421 1.73113 0
M  V30 32905 O 2984.43 0.400097 1.97386 0
M  V30 32906 C 2981.49 1.01127 3.31624 0
M  V30 32907 C 2980.56 2.1924 3.69097 0
M  V30 32908 C 2979.79 1.94977 4.96809 0
M  V30 32909 O 2980.01 0.903054 5.63206 0
M  V30 32910 O 2978.95 2.81669 5.31927 0
M  V30 32911 H 2982.77 2.22667 2.06526 0
M  V30 32912 H 2980.36 1.139 0.966806 0
M  V30 32913 H 2982.24 0.886643 4.11967 0
M  V30 32914 H 2980.91 0.0808789 3.23599 0
M  V30 32915 H 2979.82 2.37259 2.89239 0
M  V30 32916 H 2981.15 3.10634 3.81795 0
M  V30 32917 N 2982.81 -1.05187 1.1736 0
M  V30 32918 C 2984.05 -1.78453 0.963444 0
M  V30 32919 C 2984.38 -1.87474 -0.50667 0
M  V30 32920 O 2983.66 -1.37456 -1.37609 0
M  V30 32921 C 2983.94 -3.22341 1.60525 0
M  V30 32922 C 2983.8 -3.21333 3.14747 0
M  V30 32923 C 2985.11 -4.20177 1.30918 0
M  V30 32924 H 2982.23 -0.64782 0.351424 0
M  V30 32925 H 2984.88 -1.22946 1.4486 0
M  V30 32926 H 2983.03 -3.69738 1.19272 0
M  V30 32927 H 2984.7 -2.82011 3.65058 0
M  V30 32928 H 2982.94 -2.59672 3.47495 0
M  V30 32929 H 2983.61 -4.22887 3.54782 0
M  V30 32930 H 2986.09 -3.81274 1.66641 0
M  V30 32931 H 2984.96 -5.19097 1.7841 0
M  V30 32932 H 2985.22 -4.41501 0.229986 0
M  V30 32933 N 2984.28 -0.97385 -1.23911 0
M  V30 32934 C 2985.23 -0.479973 -2.22891 0
M  V30 32935 C 2986.22 0.441406 -1.54727 0
M  V30 32936 O 2987.41 0.271327 -1.74908 0
M  V30 32937 C 2984.54 0.222642 -3.42577 0
M  V30 32938 C 2983.62 -0.717925 -4.17979 0
M  V30 32939 N 2984.02 -1.85779 -4.70446 0
M  V30 32940 C 2982.31 -0.529936 -4.4284 0
M  V30 32941 C 2983.01 -2.4466 -5.27746 0
M  V30 32942 N 2981.99 -1.73113 -5.15299 0
M  V30 32943 H 2985.79 -1.34961 -2.6108 0
M  V30 32944 H 2983.31 -0.833704 -1.39367 0
M  V30 32945 H 2985.3 0.59372 -4.12651 0
M  V30 32946 H 2983.96 1.08864 -3.05906 0
M  V30 32947 H 2984.97 -2.23916 -4.66993 0
M  V30 32948 H 2981.65 0.291591 -4.1648 0
M  V30 32949 H 2983.04 -3.40885 -5.79005 0
M  V30 32950 N 2985.76 1.38895 -0.744705 0
M  V30 32951 C 2986.69 2.29089 -0.071401 0
M  V30 32952 C 2987.71 1.47304 0.693198 0
M  V30 32953 O 2988.9 1.7027 0.535755 0
M  V30 32954 C 2986 3.26088 0.923021 0
M  V30 32955 C 2985.17 4.36857 0.217922 0
M  V30 32956 C 2984.23 5.14103 1.12183 0
M  V30 32957 O 2983.25 5.66075 0.595672 0
M  V30 32958 N 2984.46 5.26232 2.45072 0
M  V30 32959 H 2987.22 2.87513 -0.845957 0
M  V30 32960 H 2984.78 1.5058 -0.594738 0
M  V30 32961 H 2986.77 3.74642 1.53054 0
M  V30 32962 H 2985.34 2.68626 1.59872 0
M  V30 32963 H 2984.56 3.90054 -0.570203 0
M  V30 32964 H 2985.85 5.08081 -0.270337 0
M  V30 32965 H 2985.25 4.85542 2.90285 0
M  V30 32966 H 2983.81 5.78191 3.00897 0
M  V30 32967 N 2987.24 0.493084 1.49688 0
M  V30 32968 C 2988.49 -0.0542359 2.02427 0
M  V30 32969 C 2988.82 -1.37723 1.37341 0
M  V30 32970 O 2988.07 -1.89322 0.495557 0
M  V30 32971 C 2988.37 -0.263473 3.56428 0
M  V30 32972 C 2988.04 0.980537 4.40109 0
M  V30 32973 C 2986.7 1.32156 4.62697 0
M  V30 32974 C 2989.05 1.8078 4.88844 0
M  V30 32975 C 2986.38 2.4895 5.31263 0
M  V30 32976 C 2988.73 2.9672 5.58695 0
M  V30 32977 C 2987.39 3.31212 5.7953 0
M  V30 32978 H 2986.66 -0.0198463 0.740734 0
M  V30 32979 H 2989.31 0.651634 1.80072 0
M  V30 32980 H 2987.62 -1.0518 3.77418 0
M  V30 32981 H 2989.31 -0.701279 3.9482 0
M  V30 32982 H 2985.9 0.704889 4.22764 0
M  V30 32983 H 2990.09 1.55749 4.71228 0
M  V30 32984 H 2985.34 2.7592 5.45599 0
M  V30 32985 H 2989.52 3.61154 5.95433 0
M  V30 32986 H 2987.14 4.21817 6.32436 0
M  V30 32987 N 2988.72 -1.55963 0.226582 0
M  V30 32988 C 2989.94 -2.03277 -0.411491 0
M  V30 32989 C 2990.37 -1.10524 -1.52204 0
M  V30 32990 O 2989.73 -0.0943536 -1.81054 0
M  V30 32991 C 2989.77 -3.48782 -0.915632 0
M  V30 32992 O 2988.88 -3.59166 -2.02665 0
M  V30 32993 H 2988.22 -0.657528 -0.0924791 0
M  V30 32994 H 2990.75 -2.01641 0.346691 0
M  V30 32995 H 2990.76 -3.89203 -1.22415 0
M  V30 32996 H 2989.43 -4.15773 -0.102842 0
M  V30 32997 H 2988.01 -3.30635 -1.72439 0
M  V30 32998 N 2990.2 0.0467589 -1.57531 0
M  V30 32999 C 2991.61 0.40208 -1.54452 0
M  V30 33000 C 2991.81 1.77683 -0.950306 0
M  V30 33001 O 2990.87 2.46129 -0.563645 0
M  V30 33002 C 2992.18 0.32016 -2.98991 0
M  V30 33003 C 2993.73 0.398534 -3.10452 0
M  V30 33004 C 2994.2 0.346255 -4.56689 0
M  V30 33005 N 2995.7 0.405584 -4.61421 0
M  V30 33006 C 2996.43 0.387745 -5.72087 0
M  V30 33007 N 2995.93 0.323238 -6.92046 0
M  V30 33008 N 2997.72 0.436165 -5.60405 0
M  V30 33009 H 2989.87 -0.853121 -1.94514 0
M  V30 33010 H 2992.13 -0.322685 -0.891391 0
M  V30 33011 H 2991.84 -0.623855 -3.46123 0
M  V30 33012 H 2991.71 1.12073 -3.60166 0
M  V30 33013 H 2994.1 1.33298 -2.63279 0
M  V30 33014 H 2994.18 -0.43107 -2.52142 0
M  V30 33015 H 2993.83 -0.584445 -5.04526 0
M  V30 33016 H 2993.76 1.19373 -5.12891 0
M  V30 33017 H 2996.25 0.458671 -3.75106 0
M  V30 33018 H 2996.56 0.31424 -7.72161 0
M  V30 33019 H 2994.9 0.289548 -6.94397 0
M  V30 33020 H 2998.1 0.484428 -4.65587 0
M  V30 33021 H 2998.27 0.418793 -6.46645 0
M  V30 33022 N 2991.67 1.54344 0.318688 0
M  V30 33023 C 2992.95 1.63439 1.07458 0
M  V30 33024 C 2993.33 0.471346 2.05771 0
M  V30 33025 O 2992.68 -0.533871 2.22176 0
M  V30 33026 C 2992.89 3.00657 1.77219 0
M  V30 33027 C 2994.24 3.5687 2.30063 0
M  V30 33028 O 2995.26 3.02994 1.87278 0
M  V30 33029 O 2994.12 4.51164 3.08405 0
M  V30 33030 H 2991.21 0.662038 0.495615 0
M  V30 33031 H 2993.76 1.6669 0.318189 0
M  V30 33032 H 2992.53 3.76744 1.05736 0
M  V30 33033 H 2992.16 3.01105 2.59656 0
M  V30 33034 N 2993.15 -0.580999 1.465 0
M  V30 33035 C 2994.12 -1.67197 1.56773 0
M  V30 33036 C 2995.12 -1.54527 0.444743 0
M  V30 33037 O 2996.31 -1.59114 0.709102 0
M  V30 33038 C 2993.44 -3.0663 1.48966 0
M  V30 33039 H 2994.63 -1.59445 2.54002 0
M  V30 33040 H 2992.18 -0.79898 1.34335 0
M  V30 33041 H 2992.92 -3.19936 0.530224 0
M  V30 33042 H 2992.7 -3.17235 2.30444 0
M  V30 33043 H 2994.19 -3.86046 1.59244 0
M  V30 33044 N 2994.63 -1.34234 -0.825776 0
M  V30 33045 C 2995.86 -1.29651 -1.61881 0
M  V30 33046 C 2996.28 0.127262 -1.87669 0
M  V30 33047 O 2995.64 1.0881 -1.45017 0
M  V30 33048 C 2995.69 -2.0902 -2.93842 0
M  V30 33049 O 2994.79 -1.45776 -3.85776 0
M  V30 33050 H 2994.13 -0.445413 -0.492446 0
M  V30 33051 H 2996.66 -1.76993 -1.02638 0
M  V30 33052 H 2996.67 -2.2027 -3.43431 0
M  V30 33053 H 2995.35 -3.12538 -2.74396 0
M  V30 33054 H 2993.92 -1.43251 -3.44287 0
M  V30 33055 N 2996.11 1.04563 -1.17917 0
M  V30 33056 C 2997.35 1.7794 -0.972894 0
M  V30 33057 C 2997.69 1.8774 0.49672 0
M  V30 33058 O 2996.96 1.38183 1.36878 0
M  V30 33059 C 2997.25 3.21485 -1.62232 0
M  V30 33060 C 2997.1 3.19659 -3.16446 0
M  V30 33061 C 2998.42 4.19477 -1.33144 0
M  V30 33062 H 2995.54 0.645947 -0.354854 0
M  V30 33063 H 2998.18 1.22176 -1.4551 0
M  V30 33064 H 2996.33 3.69101 -1.21231 0
M  V30 33065 H 2998 2.80071 -3.66549 0
M  V30 33066 H 2996.24 2.57826 -3.48867 0
M  V30 33067 H 2996.91 4.21 -3.5702 0
M  V30 33068 H 2999.39 3.80385 -1.68661 0
M  V30 33069 H 2998.27 5.18143 -1.8116 0
M  V30 33070 H 2998.53 4.41373 -0.253396 0
M  V30 33071 N 2997.59 0.980408 1.23393 0
M  V30 33072 C 2998.55 0.525658 2.23091 0
M  V30 33073 C 2999.55 -0.384718 1.5613 0
M  V30 33074 O 3000.74 -0.178408 1.73284 0
M  V30 33075 C 2997.87 -0.23706 3.40075 0
M  V30 33076 H 2999.06 1.40718 2.64837 0
M  V30 33077 H 2996.62 0.766298 1.36226 0
M  V30 33078 H 2997.35 -1.13512 3.03785 0
M  V30 33079 H 2997.14 0.416424 3.89882 0
M  V30 33080 H 2998.63 -0.543819 4.14044 0
M  V30 33081 N 2999.06 -1.38498 0.75206 0
M  V30 33082 C 2999.97 -2.34265 0.125359 0
M  V30 33083 C 3000.99 -1.59192 -0.702409 0
M  V30 33084 O 3002.17 -1.91394 -0.626917 0
M  V30 33085 C 2999.23 -3.38303 -0.758427 0
M  V30 33086 C 2998.29 -4.29219 0.0835391 0
M  V30 33087 C 2997.53 -5.28287 -0.758159 0
M  V30 33088 O 2997.75 -5.34328 -1.99623 0
M  V30 33089 O 2996.68 -6.01637 -0.177772 0
M  V30 33090 H 3000.51 -2.8955 0.916221 0
M  V30 33091 H 2998.09 -1.40319 0.512936 0
M  V30 33092 H 2999.98 -4.02009 -1.26358 0
M  V30 33093 H 2998.65 -2.85376 -1.52781 0
M  V30 33094 H 2997.56 -3.68678 0.634609 0
M  V30 33095 H 2998.89 -4.85397 0.815541 0
M  V30 33096 N 3000.54 -0.501015 -1.49424 0
M  V30 33097 C 3001.51 0.266376 -2.27647 0
M  V30 33098 C 3002.51 0.893938 -1.33661 0
M  V30 33099 O 3003.7 0.758468 -1.56821 0
M  V30 33100 C 3000.83 1.38222 -3.11621 0
M  V30 33101 H 3002.02 -0.420025 -2.96944 0
M  V30 33102 H 2999.57 -0.255982 -1.5419 0
M  V30 33103 H 3000.31 2.10277 -2.46889 0
M  V30 33104 H 3000.09 0.937679 -3.80723 0
M  V30 33105 H 3001.58 1.92277 -3.70701 0
M  V30 33106 N 3002.02 1.5584 -0.234849 0
M  V30 33107 C 3003.27 1.99685 0.386988 0
M  V30 33108 C 3003.62 1.12006 1.56437 0
M  V30 33109 O 3002.92 0.172913 1.90818 0
M  V30 33110 C 3003.11 3.46949 0.857971 0
M  V30 33111 C 3002.94 4.48875 -0.272231 0
M  V30 33112 C 3001.71 4.99808 -0.742984 0
M  V30 33113 C 3003.91 5.02506 -1.0951 0
M  V30 33114 N 3001.89 5.85461 -1.84686 0
M  V30 33115 C 3003.26 5.85213 -2.04758 0
M  V30 33116 C 3005.31 4.84837 -1.13303 0
M  V30 33117 C 3004.02 6.52138 -3.03494 0
M  V30 33118 C 3006.04 5.52531 -2.10864 0
M  V30 33119 C 3005.41 6.35017 -3.0485 0
M  V30 33120 H 3001.5 0.77452 0.107904 0
M  V30 33121 H 3004.09 1.91534 -0.349669 0
M  V30 33122 H 3002.26 3.55521 1.56395 0
M  V30 33123 H 3003.99 3.77688 1.45374 0
M  V30 33124 H 3000.75 4.72454 -0.329233 0
M  V30 33125 H 3001.17 6.32986 -2.40119 0
M  V30 33126 H 3005.81 4.20706 -0.4203 0
M  V30 33127 H 3003.53 7.15443 -3.75723 0
M  V30 33128 H 3007.12 5.40819 -2.1449 0
M  V30 33129 H 3006 6.86474 -3.79109 0
M  V30 33130 N 3003.5 -0.038404 1.57553 0
M  V30 33131 C 3004.43 -1.04158 2.08982 0
M  V30 33132 C 3005.41 -1.383 0.990314 0
M  V30 33133 O 3006.6 -1.47347 1.26502 0
M  V30 33134 C 3003.73 -2.34531 2.56149 0
M  V30 33135 C 3002.68 -2.14656 3.70279 0
M  V30 33136 C 3002.01 -3.50708 4.03618 0
M  V30 33137 C 3003.31 -1.54036 4.99069 0
M  V30 33138 H 3005 -0.613497 2.93047 0
M  V30 33139 H 3002.55 -0.293659 1.40974 0
M  V30 33140 H 3004.5 -3.05032 2.90747 0
M  V30 33141 H 3003.22 -2.79382 1.69155 0
M  V30 33142 H 3001.88 -1.46591 3.36016 0
M  V30 33143 H 3001.53 -3.9319 3.13705 0
M  V30 33144 H 3001.23 -3.38238 4.80488 0
M  V30 33145 H 3002.75 -4.22586 4.40742 0
M  V30 33146 H 3004.17 -2.14442 5.31684 0
M  V30 33147 H 3002.56 -1.52168 5.80487 0
M  V30 33148 H 3003.63 -0.505174 4.82261 0
M  V30 33149 N 3004.98 -1.54511 -0.310498 0
M  V30 33150 C 3005.91 -1.87802 -1.38754 0
M  V30 33151 C 3006.89 -0.736018 -1.53352 0
M  V30 33152 O 3008.07 -0.990917 -1.67016 0
M  V30 33153 C 3005.2 -2.11694 -2.75323 0
M  V30 33154 C 3004.16 -3.27541 -2.75501 0
M  V30 33155 C 3003.48 -3.36832 -4.15269 0
M  V30 33156 C 3004.78 -4.6488 -2.38084 0
M  V30 33157 H 3006.48 -2.78007 -1.11141 0
M  V30 33158 H 3004.02 -1.33764 -0.533208 0
M  V30 33159 H 3005.98 -2.33568 -3.50748 0
M  V30 33160 H 3004.7 -1.1825 -3.04441 0
M  V30 33161 H 3003.36 -3.05575 -2.02532 0
M  V30 33162 H 3003.01 -2.40922 -4.41549 0
M  V30 33163 H 3002.71 -4.14699 -4.16291 0
M  V30 33164 H 3004.23 -3.60955 -4.92487 0
M  V30 33165 H 3005.65 -4.86548 -3.03223 0
M  V30 33166 H 3004.04 -5.45392 -2.50335 0
M  V30 33167 H 3005.11 -4.66241 -1.33219 0
M  V30 33168 N 3006.46 0.573222 -1.46806 0
M  V30 33169 C 3007.7 1.32844 -1.52305 0
M  V30 33170 C 3008.02 1.94166 -0.180193 0
M  V30 33171 O 3007.29 1.79076 0.794259 0
M  V30 33172 H 3005.87 0.493266 -0.560979 0
M  V30 33173 H 3008.54 0.67061 -1.83 0
M  V30 33174 H 3007.63 2.13027 -2.28092 0
M  V30 33175 N 3007.93 1.3467 0.818645 0
M  V30 33176 C 3008.87 1.22445 1.93752 0
M  V30 33177 C 3009.88 0.150529 1.62103 0
M  V30 33178 O 3011.07 0.402759 1.73897 0
M  V30 33179 C 3008.17 0.860089 3.27804 0
M  V30 33180 C 3007.34 2.02988 3.87446 0
M  V30 33181 C 3006.4 1.64323 4.99884 0
M  V30 33182 O 3005.43 2.36038 5.17953 0
M  V30 33183 N 3006.63 0.559862 5.77794 0
M  V30 33184 H 3009.39 2.18837 2.04769 0
M  V30 33185 H 3006.95 1.27681 0.995449 0
M  V30 33186 H 3008.95 0.583139 4.00477 0
M  V30 33187 H 3007.52 -0.0137704 3.12597 0
M  V30 33188 H 3006.74 2.47132 3.07114 0
M  V30 33189 H 3008.02 2.81211 4.24025 0
M  V30 33190 H 3007.42 -0.0362335 5.65688 0
M  V30 33191 H 3005.98 0.342655 6.50899 0
M  V30 33192 N 3009.41 -1.03936 1.1847 0
M  V30 33193 C 3010.32 -2.15468 0.927927 0
M  V30 33194 C 3011.34 -1.73662 -0.108417 0
M  V30 33195 O 3012.51 -2.01265 0.073799 0
M  V30 33196 C 3009.58 -3.43654 0.458554 0
M  V30 33197 C 3008.64 -3.99835 1.56302 0
M  V30 33198 C 3007.87 -5.21903 1.11595 0
M  V30 33199 O 3008.1 -5.70395 -0.0248054 0
M  V30 33200 O 3007.03 -5.7065 1.91422 0
M  V30 33201 H 3010.86 -2.39986 1.8612 0
M  V30 33202 H 3008.44 -1.13915 0.966627 0
M  V30 33203 H 3010.32 -4.20901 0.204935 0
M  V30 33204 H 3009 -3.20607 -0.446408 0
M  V30 33205 H 3007.9 -3.2397 1.87067 0
M  V30 33206 H 3009.24 -4.27226 2.44415 0
M  V30 33207 N 3010.89 -0.986938 -1.22871 0
M  V30 33208 C 3012.3 -0.695468 -1.73263 0
M  V30 33209 C 3012.65 0.787992 -1.79681 0
M  V30 33210 O 3011.78 1.61615 -1.43908 0
M  V30 33211 C 3012.37 -1.25576 -3.14668 0
M  V30 33212 C 3010.93 -1.0138 -3.6249 0
M  V30 33213 C 3010.08 -1.37955 -2.40549 0
M  V30 33214 H 3013.03 -1.16001 -1.08302 0
M  V30 33215 H 3013.05 -0.631388 -3.75225 0
M  V30 33216 H 3012.56 -2.33544 -3.09965 0
M  V30 33217 H 3010.66 0.0495263 -3.72567 0
M  V30 33218 H 3010.78 -1.67297 -4.48941 0
M  V30 33219 H 3009.14 -0.798076 -2.41874 0
M  V30 33220 H 3009.92 -2.46915 -2.38512 0
M  V30 33221 N 3012.37 1.38098 -0.759394 0
M  V30 33222 C 3013.6 2.03969 -0.32867 0
M  V30 33223 C 3014.01 1.57399 1.04986 0
M  V30 33224 O 3013.35 0.744961 1.67917 0
M  V30 33225 C 3013.41 3.58414 -0.279279 0
M  V30 33226 C 3013.07 4.28064 -1.60033 0
M  V30 33227 C 3014.07 4.53037 -2.55056 0
M  V30 33228 C 3011.76 4.66139 -1.87136 0
M  V30 33229 C 3013.75 5.15125 -3.75399 0
M  V30 33230 C 3011.44 5.27951 -3.07752 0
M  V30 33231 C 3012.44 5.5238 -4.01703 0
M  V30 33232 O 3012.12 6.12903 -5.20197 0
M  V30 33233 H 3011.86 0.661878 -0.137455 0
M  V30 33234 H 3014.41 1.77659 -1.03085 0
M  V30 33235 H 3012.64 3.8372 0.479186 0
M  V30 33236 H 3014.33 4.05714 0.12271 0
M  V30 33237 H 3015.09 4.24045 -2.35395 0
M  V30 33238 H 3010.97 4.46467 -1.14841 0
M  V30 33239 H 3014.52 5.34109 -4.48746 0
M  V30 33240 H 3010.41 5.56366 -3.27304 0
M  V30 33241 H 3011.18 6.31388 -5.20857 0
M  V30 33242 N 3013.85 0.508932 1.49156 0
M  V30 33243 C 3014.78 -0.254429 2.3211 0
M  V30 33244 C 3015.76 -0.955087 1.40755 0
M  V30 33245 O 3016.94 -0.944954 1.69659 0
M  V30 33246 C 3014.07 -1.31455 3.21461 0
M  V30 33247 C 3013.03 -0.733294 4.21671 0
M  V30 33248 C 3012.35 -1.89451 5.00012 0
M  V30 33249 C 3013.65 0.280967 5.21544 0
M  V30 33250 H 3015.35 0.438002 2.96179 0
M  V30 33251 H 3012.89 0.212087 1.4243 0
M  V30 33252 H 3014.84 -1.85636 3.78308 0
M  V30 33253 H 3013.57 -2.03627 2.5535 0
M  V30 33254 H 3012.23 -0.213167 3.6598 0
M  V30 33255 H 3011.88 -2.60411 4.30343 0
M  V30 33256 H 3011.58 -1.51163 5.67824 0
M  V30 33257 H 3013.1 -2.44051 5.59706 0
M  V30 33258 H 3014.51 -0.172995 5.73039 0
M  V30 33259 H 3012.91 0.580111 5.97289 0
M  V30 33260 H 3013.98 1.19412 4.69967 0
M  V30 33261 N 3015.32 -1.55714 0.243111 0
M  V30 33262 C 3016.55 -2.03702 -0.389908 0
M  V30 33263 C 3016.97 -1.12132 -1.51023 0
M  V30 33264 O 3016.33 -0.113551 -1.80944 0
M  V30 33265 C 3016.38 -3.49733 -0.878588 0
M  V30 33266 O 3015.48 -3.61296 -1.98845 0
M  V30 33267 H 3014.82 -0.658472 -0.0854999 0
M  V30 33268 H 3017.35 -2.01262 0.368059 0
M  V30 33269 H 3017.36 -3.90479 -1.1828 0
M  V30 33270 H 3016.04 -4.15859 -0.0587376 0
M  V30 33271 H 3014.62 -3.32445 -1.68922 0
M  V30 33272 N 3016.8 0.030048 -1.57571 0
M  V30 33273 C 3018.03 0.736567 -1.9388 0
M  V30 33274 C 3018.45 1.68151 -0.843028 0
M  V30 33275 O 3017.81 1.80179 0.201318 0
M  V30 33276 C 3017.86 1.47061 -3.2925 0
M  V30 33277 O 3016.96 2.58373 -3.2143 0
M  V30 33278 H 3016.3 0.19817 -0.633739 0
M  V30 33279 H 3018.83 -0.0141845 -2.04595 0
M  V30 33280 H 3018.84 1.84074 -3.64116 0
M  V30 33281 H 3017.52 0.777569 -4.08567 0
M  V30 33282 H 3016.1 2.23909 -2.98193 0
M  V30 33283 N 3018.28 1.54674 0.3023 0
M  V30 33284 C 3019.7 1.45858 0.647886 0
M  V30 33285 C 3019.9 0.648724 1.90772 0
M  V30 33286 O 3018.95 0.155909 2.52018 0
M  V30 33287 C 3020.27 2.89805 0.802093 0
M  V30 33288 C 3021.81 2.9984 0.898062 0
M  V30 33289 C 3022.29 4.4498 1.08428 0
M  V30 33290 N 3023.78 4.48684 1.15051 0
M  V30 33291 C 3024.51 5.58168 1.31287 0
M  V30 33292 N 3024.01 6.77578 1.44428 0
M  V30 33293 N 3025.8 5.45854 1.34164 0
M  V30 33294 H 3017.95 2.05798 -0.525464 0
M  V30 33295 H 3020.22 0.931999 -0.173439 0
M  V30 33296 H 3019.92 3.5166 -0.0527149 0
M  V30 33297 H 3019.8 3.37148 1.69149 0
M  V30 33298 H 3022.18 2.38099 1.74336 0
M  V30 33299 H 3022.27 2.55795 -0.0153202 0
M  V30 33300 H 3021.91 5.07315 0.243753 0
M  V30 33301 H 3021.84 4.86654 2.01186 0
M  V30 33302 H 3024.33 3.62655 1.06253 0
M  V30 33303 H 3024.64 7.56774 1.56568 0
M  V30 33304 H 3022.99 6.80446 1.41487 0
M  V30 33305 H 3026.18 4.51512 1.23508 0
M  V30 33306 H 3026.35 6.31228 1.46474 0
M  V30 33307 N 3019.76 -0.565428 1.47108 0
M  V30 33308 C 3020.67 -1.70072 1.61594 0
M  V30 33309 C 3021.68 -1.66692 0.49896 0
M  V30 33310 O 3022.86 -1.86289 0.765405 0
M  V30 33311 C 3019.93 -3.06581 1.61893 0
M  V30 33312 C 3018.99 -3.21091 2.84954 0
M  V30 33313 C 3018.22 -4.51088 2.85229 0
M  V30 33314 O 3018.44 -5.36044 1.94968 0
M  V30 33315 O 3017.38 -4.69214 3.76991 0
M  V30 33316 H 3021.2 -1.60795 2.57641 0
M  V30 33317 H 3018.79 -0.734487 1.30099 0
M  V30 33318 H 3020.67 -3.87832 1.64815 0
M  V30 33319 H 3019.34 -3.16258 0.690105 0
M  V30 33320 H 3018.25 -2.39268 2.87579 0
M  V30 33321 H 3019.58 -3.16313 3.77103 0
M  V30 33322 N 3021.24 -1.35102 -0.811492 0
M  V30 33323 C 3022.49 -1.27438 -1.56341 0
M  V30 33324 C 3022.8 0.150662 -1.95019 0
M  V30 33325 O 3024 0.349539 -2.69241 0
M  V30 33326 C 3022.46 -2.23464 -2.8212 0
M  V30 33327 C 3022.07 -3.71287 -2.50699 0
M  V30 33328 C 3023.81 -2.24732 -3.60133 0
M  V30 33329 C 3021.72 -4.5915 -3.7274 0
M  V30 33330 H 3020.65 -0.473464 -0.586812 0
M  V30 33331 H 3023.3 -1.60337 -0.892437 0
M  V30 33332 H 3021.68 -1.83531 -3.50902 0
M  V30 33333 H 3022.86 -4.19826 -1.89955 0
M  V30 33334 H 3021.17 -3.72579 -1.85941 0
M  V30 33335 H 3023.77 -2.87594 -4.5077 0
M  V30 33336 H 3024.11 -1.24972 -3.97099 0
M  V30 33337 H 3024.64 -2.63169 -2.98307 0
M  V30 33338 H 3021.38 -5.5989 -3.40886 0
M  V30 33339 H 3020.9 -4.1534 -4.32727 0
M  V30 33340 H 3022.58 -4.74329 -4.40024 0
M  V30 33341 N 3022.71 1.03306 -1.19019 0
M  V30 33342 C 3023.96 1.76287 -0.988289 0
M  V30 33343 C 3024.28 1.88936 0.482524 0
M  V30 33344 O 3023.55 1.41989 1.34966 0
M  V30 33345 H 3022.13 0.653048 -0.362681 0
M  V30 33346 H 3024.8 1.24638 -1.49838 0
M  V30 33347 H 3023.89 2.77269 -1.43278 0
M  V30 33348 N 3024.19 0.99344 1.22346 0
M  V30 33349 C 3025.12 0.502443 2.23625 0
M  V30 33350 C 3026.14 -0.402757 1.57739 0
M  V30 33351 O 3027.33 -0.204804 1.77321 0
M  V30 33352 C 3024.43 -0.291058 3.37648 0
M  V30 33353 C 3023.6 0.610408 4.3312 0
M  V30 33354 C 3022.66 -0.131479 5.26036 0
M  V30 33355 O 3021.68 0.483299 5.67144 0
M  V30 33356 N 3022.89 -1.41361 5.63025 0
M  V30 33357 H 3025.65 1.37334 2.66382 0
M  V30 33358 H 3023.21 0.86822 1.36651 0
M  V30 33359 H 3025.2 -0.796038 3.96794 0
M  V30 33360 H 3023.77 -1.06305 2.93969 0
M  V30 33361 H 3022.99 1.29605 3.72285 0
M  V30 33362 H 3024.28 1.22431 4.9385 0
M  V30 33363 H 3023.68 -1.9344 5.31599 0
M  V30 33364 H 3022.24 -1.86377 6.24585 0
M  V30 33365 N 3025.67 -1.37693 0.766707 0
M  V30 33366 C 3026.9 -2.04615 0.338751 0
M  V30 33367 C 3027.32 -1.57449 -1.02915 0
M  V30 33368 O 3026.68 -0.732416 -1.65847 0
M  V30 33369 C 3026.73 -3.58535 0.385347 0
M  V30 33370 O 3025.83 -4.07773 -0.616009 0
M  V30 33371 H 3025.17 -0.647401 0.147539 0
M  V30 33372 H 3027.7 -1.76108 1.04149 0
M  V30 33373 H 3027.71 -4.07288 0.240854 0
M  V30 33374 H 3026.39 -3.92221 1.38331 0
M  V30 33375 H 3024.96 -3.70354 -0.43505 0
M  V30 33376 N 3027.15 -0.516835 -1.48884 0
M  V30 33377 C 3028.39 0.0220572 -2.02788 0
M  V30 33378 C 3028.73 1.35172 -1.39435 0
M  V30 33379 O 3028 1.86983 -0.535492 0
M  V30 33380 C 3028.29 0.157949 -3.59753 0
M  V30 33381 C 3028.14 -1.19596 -4.33609 0
M  V30 33382 C 3029.46 0.891058 -4.30985 0
M  V30 33383 H 3026.58 0.00654193 -0.736971 0
M  V30 33384 H 3029.22 -0.671318 -1.77745 0
M  V30 33385 H 3027.37 0.748501 -3.81221 0
M  V30 33386 H 3029.04 -1.82661 -4.23595 0
M  V30 33387 H 3027.28 -1.78123 -3.95544 0
M  V30 33388 H 3027.95 -1.05401 -5.41844 0
M  V30 33389 H 3030.43 0.390047 -4.14268 0
M  V30 33390 H 3029.31 0.955012 -5.40528 0
M  V30 33391 H 3029.57 1.9384 -3.97339 0
M  V30 33392 N 3028.63 1.55583 -0.251365 0
M  V30 33393 C 3029.9 1.90978 0.422695 0
M  V30 33394 C 3030.28 1.17268 1.75532 0
M  V30 33395 O 3029.63 0.291628 2.26631 0
M  V30 33396 C 3029.84 3.44039 0.586388 0
M  V30 33397 C 3031.19 4.15376 0.880221 0
M  V30 33398 O 3032.21 3.49802 0.672087 0
M  V30 33399 O 3031.07 5.31375 1.27685 0
M  V30 33400 H 3028.17 0.795062 0.227608 0
M  V30 33401 H 3030.71 1.67103 -0.295762 0
M  V30 33402 H 3029.48 3.8971 -0.352395 0
M  V30 33403 H 3029.11 3.73791 1.35522 0
M  V30 33404 N 3030.1 -0.0216912 1.57585 0
M  V30 33405 C 3031.01 -1.0368 2.10446 0
M  V30 33406 C 3032.03 -1.39145 1.04474 0
M  V30 33407 O 3033.21 -1.48315 1.36252 0
M  V30 33408 C 3030.27 -2.31659 2.57944 0
M  V30 33409 C 3029.33 -2.02708 3.78429 0
M  V30 33410 C 3028.57 -3.24585 4.23651 0
M  V30 33411 O 3028.79 -4.35518 3.68348 0
M  V30 33412 O 3027.72 -3.09853 5.16018 0
M  V30 33413 H 3031.55 -0.617531 2.97355 0
M  V30 33414 H 3029.13 -0.239148 1.47474 0
M  V30 33415 H 3031.02 -3.06884 2.88791 0
M  V30 33416 H 3029.69 -2.72867 1.74142 0
M  V30 33417 H 3028.6 -1.25027 3.52589 0
M  V30 33418 H 3029.93 -1.66351 4.63237 0
M  V30 33419 N 3031.58 -1.54832 -0.294093 0
M  V30 33420 C 3032.83 -1.74699 -1.02996 0
M  V30 33421 C 3033.16 -0.534982 -1.86686 0
M  V30 33422 O 3032.44 0.46783 -1.8879 0
M  V30 33423 C 3032.72 -3.04 -1.93018 0
M  V30 33424 C 3032.57 -4.35514 -1.12462 0
M  V30 33425 C 3033.89 -3.29208 -2.92079 0
M  V30 33426 H 3031.01 -0.635625 -0.373028 0
M  V30 33427 H 3033.65 -1.87552 -0.304032 0
M  V30 33428 H 3031.8 -2.93173 -2.54915 0
M  V30 33429 H 3033.48 -4.58268 -0.527986 0
M  V30 33430 H 3031.72 -4.31688 -0.427498 0
M  V30 33431 H 3032.39 -5.22268 -1.78719 0
M  V30 33432 H 3034.87 -3.39689 -2.40313 0
M  V30 33433 H 3033.74 -4.20984 -3.52227 0
M  V30 33434 H 3034 -2.47833 -3.66102 0
M  V30 33435 N 3033.06 0.557619 -1.47405 0
M  V30 33436 C 3033.97 1.69213 -1.62494 0
M  V30 33437 C 3034.99 1.66426 -0.507793 0
M  V30 33438 O 3036.16 1.8588 -0.775273 0
M  V30 33439 C 3033.23 3.05718 -1.63516 0
M  V30 33440 C 3032.29 3.19575 -2.86653 0
M  V30 33441 C 3031.52 4.49569 -2.87617 0
M  V30 33442 O 3031.75 5.35003 -1.97808 0
M  V30 33443 O 3030.68 4.67208 -3.79474 0
M  V30 33444 H 3034.51 1.59426 -2.5849 0
M  V30 33445 H 3032.09 0.727578 -1.30486 0
M  V30 33446 H 3033.97 3.86953 -1.6687 0
M  V30 33447 H 3032.65 3.15888 -0.706868 0
M  V30 33448 H 3031.55 2.37739 -2.88844 0
M  V30 33449 H 3032.89 3.14309 -3.78775 0
M  V30 33450 N 3034.54 1.35531 0.804316 0
M  V30 33451 C 3035.49 1.28638 1.91627 0
M  V30 33452 C 3036.46 0.157891 1.65348 0
M  V30 33453 O 3037.64 0.341967 1.8771 0
M  V30 33454 C 3034.78 1.06656 3.28205 0
M  V30 33455 C 3033.89 2.28447 3.66655 0
M  V30 33456 C 3033.03 1.99596 4.92275 0
M  V30 33457 C 3032.07 3.17429 5.23359 0
M  V30 33458 N 3031.21 2.8834 6.4016 0
M  V30 33459 H 3036.05 2.23724 1.96854 0
M  V30 33460 H 3033.58 1.1121 0.962852 0
M  V30 33461 H 3035.54 0.919415 4.06943 0
M  V30 33462 H 3034.17 0.15231 3.2244 0
M  V30 33463 H 3033.22 2.54018 2.83159 0
M  V30 33464 H 3034.53 3.16427 3.85585 0
M  V30 33465 H 3033.69 1.81726 5.78844 0
M  V30 33466 H 3032.43 1.08905 4.75385 0
M  V30 33467 H 3031.43 3.35875 4.35279 0
M  V30 33468 H 3032.66 4.08926 5.42178 0
M  V30 33469 H 3030.6 2.00244 6.24691 0
M  V30 33470 H 3030.52 3.69854 6.59351 0
M  V30 33471 H 3031.79 2.74015 7.29751 0
M  V30 33472 N 3036.02 -1.02674 1.19565 0
M  V30 33473 C 3036.95 -2.12895 0.959061 0
M  V30 33474 C 3037.93 -1.69755 -0.108352 0
M  V30 33475 O 3039.11 -1.94143 0.0471039 0
M  V30 33476 C 3036.24 -3.43693 0.499271 0
M  V30 33477 C 3035.2 -4.00525 1.50877 0
M  V30 33478 C 3034.52 -5.26969 0.905976 0
M  V30 33479 C 3035.82 -4.35085 2.88961 0
M  V30 33480 H 3037.52 -2.32945 1.88088 0
M  V30 33481 H 3035.06 -1.11947 0.905751 0
M  V30 33482 H 3037.02 -4.20175 0.321039 0
M  V30 33483 H 3035.74 -3.23371 -0.458148 0
M  V30 33484 H 3034.4 -3.26139 1.67418 0
M  V30 33485 H 3034.05 -5.02965 -0.0590622 0
M  V30 33486 H 3033.75 -5.65956 1.5801 0
M  V30 33487 H 3035.27 -6.06117 0.738587 0
M  V30 33488 H 3036.69 -5.02496 2.7599 0
M  V30 33489 H 3035.08 -4.8516 3.53186 0
M  V30 33490 H 3036.15 -3.44293 3.41453 0
M  V30 33491 N 3037.5 -0.999914 -1.21817 0
M  V30 33492 C 3038.74 -0.675142 -1.90065 0
M  V30 33493 C 3039.06 0.797018 -1.78625 0
M  V30 33494 O 3040.26 1.23367 -2.41853 0
M  V30 33495 C 3038.72 -1.15708 -3.40793 0
M  V30 33496 C 3038.33 -2.65496 -3.60854 0
M  V30 33497 C 3040.07 -0.906962 -4.14698 0
M  V30 33498 C 3037.98 -3.07257 -5.05319 0
M  V30 33499 H 3036.91 -0.248827 -0.711759 0
M  V30 33500 H 3039.56 -1.2104 -1.37918 0
M  V30 33501 H 3037.94 -0.549901 -3.92163 0
M  V30 33502 H 3039.12 -3.3162 -3.19945 0
M  V30 33503 H 3037.43 -2.88467 -3.00293 0
M  V30 33504 H 3040.03 -1.19459 -5.21185 0
M  V30 33505 H 3040.37 0.156849 -4.16004 0
M  V30 33506 H 3040.9 -1.47668 -3.69376 0
M  V30 33507 H 3037.64 -4.12843 -5.09157 0
M  V30 33508 H 3037.16 -2.45841 -5.47103 0
M  V30 33509 H 3038.84 -2.98951 -5.73792 0
M  V30 33510 N 3038.97 1.37284 -0.773999 0
M  V30 33511 C 3039.92 2.30245 -0.159979 0
M  V30 33512 C 3040.89 1.51212 0.68733 0
M  V30 33513 O 3042.08 1.79774 0.639224 0
M  V30 33514 C 3039.22 3.37688 0.711393 0
M  V30 33515 C 3038.33 4.3173 -0.152768 0
M  V30 33516 C 3037.46 5.2625 0.72352 0
M  V30 33517 C 3036.5 6.11933 -0.143037 0
M  V30 33518 N 3035.64 6.98688 0.691356 0
M  V30 33519 H 3040.48 2.82174 -0.958232 0
M  V30 33520 H 3038.02 1.38905 -0.484134 0
M  V30 33521 H 3039.97 3.98612 1.23143 0
M  V30 33522 H 3038.6 2.87118 1.47523 0
M  V30 33523 H 3037.66 3.72093 -0.790639 0
M  V30 33524 H 3038.97 4.91995 -0.821113 0
M  V30 33525 H 3038.12 5.92389 1.30996 0
M  V30 33526 H 3036.86 4.66401 1.42554 0
M  V30 33527 H 3035.87 5.4477 -0.741995 0
M  V30 33528 H 3037.09 6.73855 -0.842424 0
M  V30 33529 H 3035.04 6.41365 1.37795 0
M  V30 33530 H 3034.95 7.55957 0.0803583 0
M  V30 33531 H 3036.22 7.69214 1.26212 0
M  V30 33532 N 3040.45 0.524724 1.48608 0
M  V30 33533 C 3041.87 0.182227 1.58556 0
M  V30 33534 C 3042.07 -1.31432 1.52735 0
M  V30 33535 O 3041.12 -2.09217 1.41366 0
M  V30 33536 C 3042.44 0.780091 2.90405 0
M  V30 33537 C 3043.98 0.748346 3.03922 0
M  V30 33538 C 3044.46 1.32469 4.38424 0
M  V30 33539 N 3045.95 1.28643 4.44978 0
M  V30 33540 C 3046.69 1.70233 5.47548 0
M  V30 33541 N 3046.18 2.19527 6.571 0
M  V30 33542 N 3047.97 1.61502 5.38399 0
M  V30 33543 H 3040.13 1.49743 1.50635 0
M  V30 33544 H 3042.39 0.622546 0.714941 0
M  V30 33545 H 3042.09 1.83057 3.00305 0
M  V30 33546 H 3041.97 0.254141 3.76343 0
M  V30 33547 H 3044.36 -0.293355 2.93638 0
M  V30 33548 H 3044.44 1.31171 2.19609 0
M  V30 33549 H 3044.08 2.3653 4.49462 0
M  V30 33550 H 3044.01 0.737059 5.21416 0
M  V30 33551 H 3046.5 0.925514 3.66391 0
M  V30 33552 H 3046.81 2.4927 7.31495 0
M  V30 33553 H 3045.16 2.23517 6.58077 0
M  V30 33554 H 3048.35 1.22792 4.51707 0
M  V30 33555 H 3048.52 1.94236 6.18204 0
M  V30 33556 N 3041.93 -1.55447 0.259613 0
M  V30 33557 C 3042.88 -2.18576 -0.64873 0
M  V30 33558 C 3043.86 -1.14554 -1.12988 0
M  V30 33559 O 3045.06 -1.40422 -1.07753 0
M  V30 33560 C 3042.18 -2.89852 -1.83958 0
M  V30 33561 C 3041.27 -4.01145 -1.37634 0
M  V30 33562 N 3041.66 -5.01884 -0.628181 0
M  V30 33563 C 3039.96 -4.13933 -1.66059 0
M  V30 33564 C 3040.66 -5.80414 -0.386644 0
M  V30 33565 N 3039.64 -5.35153 -0.954571 0
M  V30 33566 H 3043.44 -2.93819 -0.0691099 0
M  V30 33567 H 3040.95 -1.6228 0.0624811 0
M  V30 33568 H 3042.95 -3.33516 -2.50145 0
M  V30 33569 H 3041.61 -2.16116 -2.4233 0
M  V30 33570 H 3042.62 -5.17159 -0.277032 0
M  V30 33571 H 3039.3 -3.51377 -2.25478 0
M  V30 33572 H 3040.69 -6.71567 0.2115 0
M  V30 33573 N 3043.41 0.0133338 -1.57594 0
M  V30 33574 C 3044.32 1.02562 -2.10993 0
M  V30 33575 C 3045.33 1.38589 -1.0521 0
M  V30 33576 O 3046.51 1.4759 -1.37037 0
M  V30 33577 C 3043.57 2.30288 -2.59169 0
M  V30 33578 C 3042.64 2.00698 -3.79498 0
M  V30 33579 C 3041.87 3.22334 -4.25367 0
M  V30 33580 O 3042.09 4.33559 -3.70652 0
M  V30 33581 O 3041.03 3.07112 -5.17654 0
M  V30 33582 H 3044.85 0.601753 -2.97679 0
M  V30 33583 H 3042.44 0.231324 -1.47598 0
M  V30 33584 H 3044.32 3.05348 -2.90414 0
M  V30 33585 H 3042.99 2.71939 -1.75587 0
M  V30 33586 H 3041.9 1.23155 -3.53247 0
M  V30 33587 H 3043.23 1.63892 -4.64112 0
M  V30 33588 N 3044.89 1.54985 0.285878 0
M  V30 33589 C 3045.85 1.8622 1.33621 0
M  V30 33590 C 3046.85 0.735961 1.42969 0
M  V30 33591 O 3048.04 1.0042 1.42343 0
M  V30 33592 C 3045.17 2.056 2.71922 0
M  V30 33593 H 3046.36 2.801 1.07162 0
M  V30 33594 H 3043.92 1.47279 0.523309 0
M  V30 33595 H 3044.65 1.14058 3.03581 0
M  V30 33596 H 3044.44 2.87588 2.66525 0
M  V30 33597 H 3045.93 2.31083 3.47837 0
M  V30 33598 N 3046.36 -0.549794 1.47699 0
M  V30 33599 C 3047.61 -1.30663 1.54705 0
M  V30 33600 C 3047.94 -1.93336 0.212452 0
M  V30 33601 O 3047.19 -1.78807 -0.795398 0
M  V30 33602 C 3047.49 -2.43185 2.61908 0
M  V30 33603 C 3047.16 -1.98294 4.04957 0
M  V30 33604 C 3045.82 -1.85768 4.43896 0
M  V30 33605 C 3048.17 -1.64124 4.94684 0
M  V30 33606 C 3045.5 -1.37378 5.7039 0
M  V30 33607 C 3047.85 -1.17203 6.21648 0
M  V30 33608 C 3046.52 -1.03278 6.59462 0
M  V30 33609 H 3045.79 -0.478129 0.566104 0
M  V30 33610 H 3048.43 -0.615736 1.81331 0
M  V30 33611 H 3046.74 -3.17862 2.29066 0
M  V30 33612 H 3048.44 -3.01356 2.64548 0
M  V30 33613 H 3045.03 -2.08989 3.74195 0
M  V30 33614 H 3049.21 -1.72671 4.65294 0
M  V30 33615 H 3044.47 -1.25268 5.9843 0
M  V30 33616 H 3048.64 -0.89827 6.90582 0
M  V30 33617 H 3046.27 -0.655602 7.57368 0
M  V30 33618 N 3047.84 -1.35955 -0.797117 0
M  V30 33619 C 3048.75 -1.31788 -1.94086 0
M  V30 33620 C 3049.77 -0.221258 -1.72588 0
M  V30 33621 O 3050.94 -0.45229 -1.96256 0
M  V30 33622 C 3048.01 -1.09884 -3.28826 0
M  V30 33623 C 3047.07 -2.28949 -3.63154 0
M  V30 33624 C 3046.3 -2.08081 -4.91465 0
M  V30 33625 O 3046.53 -1.05206 -5.60614 0
M  V30 33626 O 3045.46 -2.95673 -5.24272 0
M  V30 33627 H 3049.29 -2.28065 -2.0055 0
M  V30 33628 H 3046.87 -1.16423 -0.936267 0
M  V30 33629 H 3048.75 -0.995557 -4.09471 0
M  V30 33630 H 3047.43 -0.166647 -3.23271 0
M  V30 33631 H 3046.34 -2.44844 -2.82847 0
M  V30 33632 H 3047.67 -3.20648 -3.73425 0
M  V30 33633 N 3049.32 1.02038 -1.20108 0
M  V30 33634 C 3050.27 2.10499 -0.946505 0
M  V30 33635 C 3051.24 1.65652 0.121873 0
M  V30 33636 O 3052.42 1.90787 -0.0220579 0
M  V30 33637 C 3049.56 3.4145 -0.500559 0
M  V30 33638 C 3048.68 3.99797 -1.63666 0
M  V30 33639 C 3047.81 5.18792 -1.1414 0
M  V30 33640 C 3046.85 5.69213 -2.25084 0
M  V30 33641 N 3045.99 6.79474 -1.76803 0
M  V30 33642 H 3050.83 2.31612 -1.8751 0
M  V30 33643 H 3048.36 1.13585 -0.934713 0
M  V30 33644 H 3050.32 4.16602 -0.22335 0
M  V30 33645 H 3048.95 3.20423 0.391042 0
M  V30 33646 H 3048 3.21777 -2.02888 0
M  V30 33647 H 3049.32 4.33224 -2.47221 0
M  V30 33648 H 3048.47 6.01134 -0.819932 0
M  V30 33649 H 3047.21 4.8692 -0.275701 0
M  V30 33650 H 3046.21 4.85478 -2.58052 0
M  V30 33651 H 3047.44 6.03121 -3.12124 0
M  V30 33652 H 3045.38 6.49438 -0.925542 0
M  V30 33653 H 3045.3 7.12075 -2.53941 0
M  V30 33654 H 3046.57 7.6539 -1.47645 0
M  V30 33655 N 3050.8 1.00636 1.21285 0
M  V30 33656 C 3052.02 0.708476 1.94924 0
M  V30 33657 C 3052.45 -0.722752 1.7366 0
M  V30 33658 O 3051.81 -1.49591 1.02432 0
M  V30 33659 C 3051.85 1.03673 3.45376 0
M  V30 33660 O 3050.96 0.142733 4.12153 0
M  V30 33661 H 3050.3 0.263834 0.609334 0
M  V30 33662 H 3052.83 1.34697 1.54006 0
M  V30 33663 H 3052.84 0.984156 3.95952 0
M  V30 33664 H 3051.51 2.07957 3.60176 0
M  V30 33665 H 3050.09 0.251953 3.72048 0
M  V30 33666 N 3052.28 -1.36872 0.781268 0
M  V30 33667 C 3053.24 -2.28491 0.180134 0
M  V30 33668 C 3054.24 -1.48459 -0.617772 0
M  V30 33669 O 3055.43 -1.68553 -0.439962 0
M  V30 33670 C 3052.56 -3.32509 -0.751682 0
M  V30 33671 H 3053.75 -2.83162 0.987887 0
M  V30 33672 H 3051.31 -1.46299 0.550127 0
M  V30 33673 H 3052.04 -2.82979 -1.58408 0
M  V30 33674 H 3051.83 -3.91679 -0.181581 0
M  V30 33675 H 3053.32 -4.00951 -1.1674 0
M  V30 33676 N 3053.75 -0.532597 -1.48328 0
M  V30 33677 C 3054.72 0.218029 -2.28161 0
M  V30 33678 C 3055.72 0.865385 -1.35528 0
M  V30 33679 O 3056.91 0.725033 -1.58395 0
M  V30 33680 C 3054.04 1.31581 -3.14483 0
M  V30 33681 H 3055.23 -0.482917 -2.95986 0
M  V30 33682 H 3052.79 -0.28863 -1.53612 0
M  V30 33683 H 3053.52 2.04992 -2.51294 0
M  V30 33684 H 3053.31 0.856711 -3.82626 0
M  V30 33685 H 3054.8 1.8437 -3.74696 0
M  V30 33686 N 3055.23 1.55307 -0.267853 0
M  V30 33687 C 3056.46 2.0384 0.354551 0
M  V30 33688 C 3056.88 1.14647 1.50005 0
M  V30 33689 O 3056.23 0.165087 1.81752 0
M  V30 33690 C 3056.28 3.51546 0.842479 0
M  V30 33691 O 3056 4.37343 -0.257395 0
M  V30 33692 C 3057.51 4.15933 1.53344 0
M  V30 33693 H 3054.73 0.665995 0.0818014 0
M  V30 33694 H 3057.27 2.00593 -0.39783 0
M  V30 33695 H 3055.42 3.5526 1.54497 0
M  V30 33696 H 3055.84 5.24371 0.116501 0
M  V30 33697 H 3057.31 5.20911 1.82634 0
M  V30 33698 H 3057.79 3.6367 2.46253 0
M  V30 33699 H 3058.4 4.16202 0.874987 0
M  V30 33700 N 3056.71 -0.00497598 1.57599 0
M  V30 33701 C 3057.96 -0.686279 1.91473 0
M  V30 33702 C 3058.31 -1.71656 0.869018 0
M  V30 33703 O 3057.6 -1.91228 -0.119406 0
M  V30 33704 C 3057.8 -1.37582 3.29857 0
M  V30 33705 C 3057.63 -0.413845 4.47792 0
M  V30 33706 C 3056.4 -0.02606 5.05293 0
M  V30 33707 C 3058.6 0.317854 5.13317 0
M  V30 33708 N 3056.58 0.934652 6.06743 0
M  V30 33709 C 3057.95 1.13341 6.09552 0
M  V30 33710 C 3060 0.382223 4.96431 0
M  V30 33711 C 3058.71 2.00747 6.90719 0
M  V30 33712 C 3060.73 1.24349 5.78179 0
M  V30 33713 C 3060.09 2.04691 6.74004 0
M  V30 33714 H 3056.19 -0.224482 0.749087 0
M  V30 33715 H 3058.78 0.0542026 1.94625 0
M  V30 33716 H 3056.95 -2.08663 3.27589 0
M  V30 33717 H 3058.68 -2.01143 3.51175 0
M  V30 33718 H 3055.44 -0.393379 4.71963 0
M  V30 33719 H 3055.86 1.41023 6.62149 0
M  V30 33720 H 3060.5 -0.224643 4.22203 0
M  V30 33721 H 3058.22 2.62503 7.64276 0
M  V30 33722 H 3061.81 1.29714 5.67156 0
M  V30 33723 H 3060.69 2.70257 7.36159 0
M  V30 33724 N 3058.19 -1.55135 -0.277654 0
M  V30 33725 C 3059.47 -1.6623 -1.03087 0
M  V30 33726 C 3059.85 -0.525737 -2.04449 0
M  V30 33727 O 3059.19 0.474777 -2.23513 0
M  V30 33728 C 3059.4 -3.0525 -1.69185 0
M  V30 33729 C 3060.75 -3.62844 -2.2052 0
M  V30 33730 O 3061.78 -3.07853 -1.79179 0
M  V30 33731 O 3060.63 -4.59182 -2.96334 0
M  V30 33732 H 3057.73 -0.674946 -0.477888 0
M  V30 33733 H 3060.27 -1.67475 -0.273882 0
M  V30 33734 H 3059.05 -3.79414 -0.957097 0
M  V30 33735 H 3058.67 -3.07884 -2.51582 0
M  V30 33736 N 3059.67 0.541953 -1.47989 0
M  V30 33737 C 3060.58 1.6748 -1.64279 0
M  V30 33738 C 3061.59 1.65878 -0.525416 0
M  V30 33739 O 3062.77 1.85048 -0.794945 0
M  V30 33740 C 3059.83 3.03966 -1.6675 0
M  V30 33741 C 3058.89 3.16517 -2.90027 0
M  V30 33742 C 3058.13 4.46493 -2.92369 0
M  V30 33743 O 3058.35 5.32875 -2.03472 0
M  V30 33744 O 3057.28 4.63157 -3.84408 0
M  V30 33745 H 3061.11 1.56675 -2.60166 0
M  V30 33746 H 3058.7 0.713697 -1.31251 0
M  V30 33747 H 3060.58 3.85161 -1.70965 0
M  V30 33748 H 3059.25 3.1512 -0.740332 0
M  V30 33749 H 3058.16 2.34662 -2.91349 0
M  V30 33750 H 3059.49 3.10274 -3.82088 0
M  V30 33751 N 3061.15 1.36376 0.789896 0
M  V30 33752 C 3062.56 1.16779 1.08788 0
M  V30 33753 C 3062.76 -0.00844695 2.01498 0
M  V30 33754 O 3061.82 -0.673964 2.43339 0
M  V30 33755 C 3063.13 2.4784 1.70281 0
M  V30 33756 C 3064.68 2.54199 1.82624 0
M  V30 33757 C 3065.15 3.85346 2.47532 0
M  V30 33758 N 3066.64 3.86689 2.55001 0
M  V30 33759 C 3067.38 4.84904 3.06033 0
M  V30 33760 N 3066.88 5.93511 3.57374 0
M  V30 33761 N 3068.67 4.72324 3.0474 0
M  V30 33762 H 3060.82 2.11687 0.173948 0
M  V30 33763 H 3063.08 0.937638 0.139781 0
M  V30 33764 H 3062.79 3.34178 1.09627 0
M  V30 33765 H 3062.66 2.63611 2.69794 0
M  V30 33766 H 3065.05 1.6828 2.42417 0
M  V30 33767 H 3065.13 2.42328 0.819187 0
M  V30 33768 H 3064.77 4.71671 1.88385 0
M  V30 33769 H 3064.7 3.94513 3.48808 0
M  V30 33770 H 3067.2 3.08225 2.18646 0
M  V30 33771 H 3067.51 6.64426 3.94662 0
M  V30 33772 H 3065.85 5.97181 3.55528 0
M  V30 33773 H 3069.04 3.86607 2.63918 0
M  V30 33774 H 3069.22 5.49025 3.44202 0
M  V30 33775 N 3062.62 -1.014 1.20647 0
M  V30 33776 C 3063.87 -1.75039 1.01822 0
M  V30 33777 C 3064.2 -1.89238 -0.449352 0
M  V30 33778 O 3063.45 -1.41697 -1.34983 0
M  V30 33779 C 3063.75 -3.17034 1.64997 0
M  V30 33780 C 3063.42 -3.22806 3.14813 0
M  V30 33781 C 3062.08 -3.24088 3.55697 0
M  V30 33782 C 3064.43 -3.20762 4.10805 0
M  V30 33783 C 3061.76 -3.21001 4.91096 0
M  V30 33784 C 3064.11 -3.19217 5.46153 0
M  V30 33785 C 3062.78 -3.18804 5.86447 0
M  V30 33786 H 3062.05 -0.640512 0.372594 0
M  V30 33787 H 3064.69 -1.18909 1.5011 0
M  V30 33788 H 3063 -3.76339 1.08978 0
M  V30 33789 H 3064.7 -3.72711 1.47943 0
M  V30 33790 H 3061.29 -3.22545 2.82246 0
M  V30 33791 H 3065.47 -3.1894 3.80252 0
M  V30 33792 H 3060.73 -3.19014 5.21574 0
M  V30 33793 H 3064.9 -3.16589 6.20278 0
M  V30 33794 H 3062.53 -3.16167 6.91334 0
M  V30 33795 N 3064.1 -1.01278 -1.2075 0
M  V30 33796 C 3065.33 -0.718803 -1.94546 0
M  V30 33797 C 3065.75 0.713532 -1.74041 0
M  V30 33798 O 3065.11 1.49046 -1.03223 0
M  V30 33799 C 3065.16 -1.05503 -3.44821 0
M  V30 33800 O 3064.26 -0.164589 -4.12071 0
M  V30 33801 H 3063.6 -0.267062 -0.607926 0
M  V30 33802 H 3066.13 -1.35512 -1.53289 0
M  V30 33803 H 3066.14 -1.00514 -3.95425 0
M  V30 33804 H 3064.82 -2.09864 -3.59068 0
M  V30 33805 H 3063.39 -0.27168 -3.71909 0
M  V30 33806 N 3065.58 1.36456 -0.788516 0
M  V30 33807 C 3066.54 2.28392 -0.192249 0
M  V30 33808 C 3067.54 1.48785 0.60989 0
M  V30 33809 O 3068.73 1.68784 0.431017 0
M  V30 33810 C 3065.86 3.32903 0.734038 0
M  V30 33811 H 3067.06 2.82634 -1.00289 0
M  V30 33812 H 3064.61 1.46005 -0.557878 0
M  V30 33813 H 3065.35 2.83815 1.56905 0
M  V30 33814 H 3065.13 3.9177 0.160806 0
M  V30 33815 H 3066.62 4.01564 1.14612 0
M  V30 33816 N 3067.06 0.540456 1.48043 0
M  V30 33817 C 3067.99 -0.205138 2.32597 0
M  V30 33818 C 3068.97 -0.925015 1.4275 0
M  V30 33819 O 3070.15 -0.908754 1.71625 0
M  V30 33820 C 3067.28 -1.24606 3.24177 0
M  V30 33821 C 3066.24 -0.643686 4.23132 0
M  V30 33822 C 3065.56 -1.78803 5.03918 0
M  V30 33823 C 3066.86 0.391531 5.2083 0
M  V30 33824 H 3068.56 0.500727 2.95183 0
M  V30 33825 H 3066.1 0.24225 1.41948 0
M  V30 33826 H 3068.06 -1.7757 3.82161 0
M  V30 33827 H 3066.78 -1.98165 2.59612 0
M  V30 33828 H 3065.44 -0.135489 3.6635 0
M  V30 33829 H 3065.09 -2.51225 4.3577 0
M  V30 33830 H 3064.79 -1.39084 5.70902 0
M  V30 33831 H 3066.31 -2.32124 5.64757 0
M  V30 33832 H 3067.73 -0.0514056 5.73277 0
M  V30 33833 H 3066.12 0.706674 5.95925 0
M  V30 33834 H 3067.19 1.29354 4.67328 0
M  V30 33835 N 3068.54 -1.55163 0.276085 0
M  V30 33836 C 3069.45 -2.26231 -0.621026 0
M  V30 33837 C 3070.46 -1.28855 -1.16929 0
M  V30 33838 O 3071.64 -1.61793 -1.19937 0
M  V30 33839 C 3068.7 -2.97027 -1.78819 0
M  V30 33840 C 3067.76 -4.09883 -1.2765 0
M  V30 33841 C 3067 -4.77293 -2.38803 0
M  V30 33842 O 3067.22 -4.43918 -3.5818 0
M  V30 33843 O 3066.15 -5.6522 -2.06905 0
M  V30 33844 H 3069.98 -3.03666 -0.0452812 0
M  V30 33845 H 3067.56 -1.49337 0.0434537 0
M  V30 33846 H 3069.45 -3.41515 -2.46871 0
M  V30 33847 H 3068.12 -2.22507 -2.351 0
M  V30 33848 H 3067.03 -3.69848 -0.562415 0
M  V30 33849 H 3068.36 -4.86306 -0.759423 0
M  V30 33850 N 3070.01 -0.00338196 -1.576 0
M  V30 33851 C 3071.43 0.352738 -1.55653 0
M  V30 33852 C 3071.63 1.7457 -1.00635 0
M  V30 33853 O 3070.69 2.44211 -0.641664 0
M  V30 33854 C 3072 0.224876 -2.99858 0
M  V30 33855 C 3073.55 0.299564 -3.11563 0
M  V30 33856 C 3074.02 0.200787 -4.5756 0
M  V30 33857 N 3075.51 0.258582 -4.62478 0
M  V30 33858 C 3076.25 0.205543 -5.73031 0
M  V30 33859 N 3075.74 0.102905 -6.92724 0
M  V30 33860 N 3077.54 0.257655 -5.61509 0
M  V30 33861 H 3069.69 -0.914572 -1.91701 0
M  V30 33862 H 3071.95 -0.350881 -0.880674 0
M  V30 33863 H 3071.66 -0.733655 -3.43963 0
M  V30 33864 H 3071.53 1.00558 -3.63549 0
M  V30 33865 H 3073.92 1.24854 -2.67386 0
M  V30 33866 H 3074 -0.511069 -2.50643 0
M  V30 33867 H 3073.64 -0.74466 -5.02411 0
M  V30 33868 H 3073.57 1.02995 -5.1643 0
M  V30 33869 H 3076.06 0.339102 -3.76375 0
M  V30 33870 H 3076.38 0.0684235 -7.7277 0
M  V30 33871 H 3074.72 0.0684848 -6.94966 0
M  V30 33872 H 3077.91 0.33606 -4.66892 0
M  V30 33873 H 3078.09 0.212856 -6.4765 0
M  V30 33874 N 3071.49 1.5528 0.269423 0
M  V30 33875 C 3072.42 1.91415 1.33726 0
M  V30 33876 C 3073.4 0.776417 1.51347 0
M  V30 33877 O 3074.59 1.03485 1.6433 0
M  V30 33878 C 3071.72 2.18919 2.69614 0
M  V30 33879 C 3070.67 3.34731 2.6672 0
M  V30 33880 C 3070 3.47723 4.06193 0
M  V30 33881 C 3071.3 4.71029 2.25675 0
M  V30 33882 H 3072.99 2.80856 1.03731 0
M  V30 33883 H 3070.54 1.35131 0.497555 0
M  V30 33884 H 3072.49 2.42786 3.44432 0
M  V30 33885 H 3071.21 1.26281 3.01199 0
M  V30 33886 H 3069.87 3.10838 1.94359 0
M  V30 33887 H 3069.52 2.52545 4.35006 0
M  V30 33888 H 3069.22 4.25591 4.0515 0
M  V30 33889 H 3070.75 3.73886 4.82744 0
M  V30 33890 H 3072.16 4.94416 2.90217 0
M  V30 33891 H 3070.56 5.51837 2.35787 0
M  V30 33892 H 3071.63 4.69609 1.20811 0
M  V30 33893 N 3072.97 -0.534097 1.48274 0
M  V30 33894 C 3074.2 -1.31499 1.59736 0
M  V30 33895 C 3074.61 -1.87055 0.25608 0
M  V30 33896 O 3073.97 -1.66193 -0.754056 0
M  V30 33897 C 3074.02 -2.46873 2.64076 0
M  V30 33898 O 3073.74 -1.93607 3.92999 0
M  V30 33899 C 3075.24 -3.38753 2.85939 0
M  V30 33900 H 3072.46 -0.40004 0.53871 0
M  V30 33901 H 3075.01 -0.644728 1.94071 0
M  V30 33902 H 3073.16 -3.09791 2.32612 0
M  V30 33903 H 3073.58 -2.69098 4.50207 0
M  V30 33904 H 3075.05 -4.16067 3.62757 0
M  V30 33905 H 3075.53 -3.9373 1.9461 0
M  V30 33906 H 3076.13 -2.81631 3.18692 0
M  V30 33907 N 3074.45 -1.36793 -0.782652 0
M  V30 33908 C 3075.68 -1.34568 -1.5716 0
M  V30 33909 C 3076.09 0.0715169 -1.88664 0
M  V30 33910 O 3075.45 1.0303 -1.50635 0
M  V30 33911 C 3075.5 -2.17365 -2.8885 0
M  V30 33912 O 3075.22 -3.53561 -2.587 0
M  V30 33913 C 3076.72 -2.22997 -3.83128 0
M  V30 33914 H 3073.94 -0.461347 -0.487237 0
M  V30 33915 H 3076.48 -1.79984 -0.970873 0
M  V30 33916 H 3074.64 -1.75487 -3.45374 0
M  V30 33917 H 3075.05 -3.96841 -3.42954 0
M  V30 33918 H 3076.53 -2.85275 -4.7257 0
M  V30 33919 H 3077 -1.23531 -4.2147 0
M  V30 33920 H 3077.61 -2.65141 -3.32536 0
M  V30 33921 N 3075.93 1.00759 -1.21184 0
M  V30 33922 C 3076.86 2.11342 -0.99281 0
M  V30 33923 C 3077.84 1.69905 0.081332 0
M  V30 33924 O 3079.02 1.94043 -0.0779844 0
M  V30 33925 C 3076.15 3.42855 -0.553887 0
M  V30 33926 C 3075.11 3.98074 -1.5723 0
M  V30 33927 C 3074.43 5.25461 -0.989698 0
M  V30 33928 C 3075.73 4.30433 -2.95846 0
M  V30 33929 H 3077.43 2.29923 -1.9177 0
M  V30 33930 H 3074.97 1.10492 -0.923446 0
M  V30 33931 H 3076.93 4.19611 -0.387844 0
M  V30 33932 H 3075.65 3.24059 0.406645 0
M  V30 33933 H 3074.31 3.23434 -1.72586 0
M  V30 33934 H 3073.96 5.02996 -0.0209627 0
M  V30 33935 H 3073.66 5.63371 -1.66993 0
M  V30 33936 H 3075.18 6.04865 -0.834921 0
M  V30 33937 H 3076.59 4.98042 -2.83949 0
M  V30 33938 H 3074.99 4.79479 -3.6086 0
M  V30 33939 H 3076.06 3.38817 -3.46888 0
M  V30 33940 N 3077.4 1.01917 1.20211 0
M  V30 33941 C 3078.31 0.601351 2.26762 0
M  V30 33942 C 3079.33 -0.362339 1.70185 0
M  V30 33943 O 3080.51 -0.222647 2.00166 0
M  V30 33944 C 3077.57 -0.051227 3.46662 0
M  V30 33945 C 3076.63 0.958732 4.18458 0
M  V30 33946 C 3075.87 0.337201 5.32634 0
M  V30 33947 O 3076.09 -0.862411 5.63843 0
M  V30 33948 O 3075.02 1.05521 5.92578 0
M  V30 33949 H 3078.85 1.48849 2.64722 0
M  V30 33950 H 3076.43 0.788807 1.26879 0
M  V30 33951 H 3078.32 -0.415566 4.19346 0
M  V30 33952 H 3076.99 -0.912517 3.10572 0
M  V30 33953 H 3075.9 1.37448 3.47935 0
M  V30 33954 H 3077.23 1.79007 4.58495 0
M  V30 33955 N 3078.88 -1.36036 0.795742 0
M  V30 33956 C 3079.81 -2.32528 0.212843 0
M  V30 33957 C 3080.79 -1.56955 -0.655689 0
M  V30 33958 O 3081.98 -1.85078 -0.588205 0
M  V30 33959 C 3079.11 -3.41199 -0.648129 0
M  V30 33960 C 3078.06 -4.27829 0.121023 0
M  V30 33961 C 3077.39 -5.27723 -0.860951 0
M  V30 33962 C 3078.69 -5.05505 1.31384 0
M  V30 33963 H 3080.38 -2.81526 1.01898 0
M  V30 33964 H 3077.93 -1.35354 0.491446 0
M  V30 33965 H 3079.88 -4.07697 -1.0659 0
M  V30 33966 H 3078.61 -2.90783 -1.48704 0
M  V30 33967 H 3077.26 -3.62896 0.519841 0
M  V30 33968 H 3076.91 -4.73578 -1.69507 0
M  V30 33969 H 3076.61 -5.86552 -0.350705 0
M  V30 33970 H 3078.14 -5.97094 -1.27715 0
M  V30 33971 H 3079.55 -5.65009 0.971506 0
M  V30 33972 H 3077.95 -5.73778 1.75782 0
M  V30 33973 H 3079.02 -4.36779 2.106 0
M  V30 33974 N 3080.36 -0.5483 -1.47755 0
M  V30 33975 C 3081.29 0.192799 -2.32703 0
M  V30 33976 C 3082.27 0.917432 -1.43238 0
M  V30 33977 O 3083.46 0.899639 -1.72105 0
M  V30 33978 C 3080.59 1.22885 -3.24833 0
M  V30 33979 C 3079.54 0.621237 -4.23467 0
M  V30 33980 C 3078.87 1.76128 -5.04859 0
M  V30 33981 C 3080.17 -0.419146 -5.20615 0
M  V30 33982 H 3081.86 -0.516375 -2.94913 0
M  V30 33983 H 3079.41 -0.249775 -1.41817 0
M  V30 33984 H 3081.36 1.7554 -3.83097 0
M  V30 33985 H 3080.08 1.96785 -2.60659 0
M  V30 33986 H 3078.74 0.116059 -3.66416 0
M  V30 33987 H 3078.39 2.4891 -4.37096 0
M  V30 33988 H 3078.09 1.36055 -5.71632 0
M  V30 33989 H 3079.61 2.29126 -5.6598 0
M  V30 33990 H 3081.03 0.0210026 -5.73296 0
M  V30 33991 H 3079.43 -0.738267 -5.95541 0
M  V30 33992 H 3080.5 -1.3183 -4.66636 0
M  V30 33993 N 3081.84 1.55014 -0.28431 0
M  V30 33994 C 3082.75 2.26557 0.60902 0
M  V30 33995 C 3083.76 1.29474 1.16244 0
M  V30 33996 O 3084.94 1.62427 1.19078 0
M  V30 33997 C 3082.01 2.97971 1.77241 0
M  V30 33998 C 3081.07 4.10554 1.25475 0
M  V30 33999 C 3080.3 4.78553 2.36269 0
M  V30 34000 O 3080.52 4.45811 3.55821 0
M  V30 34001 O 3079.46 5.6631 2.03904 0
M  V30 34002 H 3083.28 3.03686 0.0291764 0
M  V30 34003 H 3080.87 1.49312 -0.0513728 0
M  V30 34004 H 3082.75 3.4282 2.45056 0
M  V30 34005 H 3081.42 2.23751 2.33917 0
M  V30 34006 H 3080.33 3.70141 0.542794 0
M  V30 34007 H 3081.66 4.86702 0.733623 0
M  V30 34008 N 3083.32 0.0117398 1.57596 0
M  V30 34009 C 3084.56 -0.671627 1.91356 0
M  V30 34010 C 3084.9 -1.72768 0.886848 0
M  V30 34011 O 3084.17 -1.94278 -0.0928472 0
M  V30 34012 C 3084.45 -1.30403 3.35659 0
M  V30 34013 C 3084.31 -0.258721 4.49055 0
M  V30 34014 C 3085.63 -2.22694 3.79599 0
M  V30 34015 H 3082.74 -0.242686 0.695897 0
M  V30 34016 H 3085.39 0.0654405 1.89887 0
M  V30 34017 H 3083.54 -1.93224 3.37041 0
M  V30 34018 H 3085.21 0.370712 4.59808 0
M  V30 34019 H 3083.45 0.417748 4.31784 0
M  V30 34020 H 3084.12 -0.740482 5.47011 0
M  V30 34021 H 3086.6 -1.69878 3.79843 0
M  V30 34022 H 3085.47 -2.63903 4.81296 0
M  V30 34023 H 3085.74 -3.11093 3.14124 0
M  V30 34024 N 3084.79 -1.55421 -0.261185 0
M  V30 34025 C 3086.21 -1.47525 -0.608986 0
M  V30 34026 C 3086.41 -0.699075 -1.88985 0
M  V30 34027 O 3085.47 -0.222673 -2.51516 0
M  V30 34028 C 3086.78 -2.9183 -0.724974 0
M  V30 34029 C 3088.33 -3.02115 -0.818249 0
M  V30 34030 C 3088.8 -4.47699 -0.965917 0
M  V30 34031 N 3090.29 -4.51577 -1.03115 0
M  V30 34032 C 3091.03 -5.61453 -1.16442 0
M  V30 34033 N 3090.52 -6.81169 -1.26413 0
M  V30 34034 N 3092.32 -5.49219 -1.19645 0
M  V30 34035 H 3084.47 -2.04332 0.579843 0
M  V30 34036 H 3086.73 -0.927073 0.198089 0
M  V30 34037 H 3086.44 -3.51397 0.145933 0
M  V30 34038 H 3086.31 -3.41514 -1.6015 0
M  V30 34039 H 3088.7 -2.42637 -1.67962 0
M  V30 34040 H 3088.78 -2.55665 0.0831345 0
M  V30 34041 H 3088.42 -5.07783 -0.109162 0
M  V30 34042 H 3088.35 -4.91817 -1.88213 0
M  V30 34043 H 3090.84 -3.65345 -0.966008 0
M  V30 34044 H 3091.16 -7.60659 -1.36449 0
M  V30 34045 H 3089.5 -6.83958 -1.23396 0
M  V30 34046 H 3092.69 -4.54628 -1.11493 0
M  V30 34047 H 3092.87 -6.3489 -1.29687 0
M  V30 34048 N 3086.27 0.526227 -1.48555 0
M  V30 34049 C 3087.69 0.855114 -1.34759 0
M  V30 34050 C 3087.89 1.98232 -0.361455 0
M  V30 34051 O 3086.94 2.51575 0.215981 0
M  V30 34052 C 3088.26 1.2191 -2.74879 0
M  V30 34053 C 3089.81 1.32877 -2.83395 0
M  V30 34054 C 3090.28 1.72616 -4.24226 0
M  V30 34055 N 3091.77 1.79712 -4.26917 0
M  V30 34056 C 3092.51 2.11854 -5.32828 0
M  V30 34057 N 3092 2.42394 -6.49012 0
M  V30 34058 N 3093.8 2.12892 -5.20225 0
M  V30 34059 H 3085.95 -0.21746 -2.11284 0
M  V30 34060 H 3088.21 -0.0346529 -0.947366 0
M  V30 34061 H 3087.92 0.464425 -3.4862 0
M  V30 34062 H 3087.79 2.16839 -3.08643 0
M  V30 34063 H 3090.18 2.0742 -2.09907 0
M  V30 34064 H 3090.26 0.360594 -2.53246 0
M  V30 34065 H 3089.9 0.986323 -4.98231 0
M  V30 34066 H 3089.83 2.7049 -4.51821 0
M  V30 34067 H 3092.32 1.58373 -3.43113 0
M  V30 34068 H 3092.64 2.66035 -7.25565 0
M  V30 34069 H 3090.98 2.39905 -6.52281 0
M  V30 34070 H 3094.17 1.88493 -4.28472 0
M  V30 34071 H 3094.34 2.37609 -6.02865 0
M  V30 34072 N 3087.75 1.37206 0.775387 0
M  V30 34073 C 3088.68 1.28547 1.89758 0
M  V30 34074 C 3089.7 0.202025 1.61542 0
M  V30 34075 O 3090.88 0.457879 1.72527 0
M  V30 34076 C 3087.98 0.963942 3.24902 0
M  V30 34077 C 3087.16 2.15212 3.80792 0
M  V30 34078 C 3086.22 1.80143 4.94403 0
M  V30 34079 O 3085.24 2.52397 5.10181 0
M  V30 34080 N 3086.44 0.743399 5.7572 0
M  V30 34081 H 3089.21 2.25241 1.97704 0
M  V30 34082 H 3086.77 1.30783 0.954325 0
M  V30 34083 H 3088.76 0.710252 3.98419 0
M  V30 34084 H 3087.33 0.085687 3.12483 0
M  V30 34085 H 3086.55 2.56778 2.99097 0
M  V30 34086 H 3087.84 2.94559 4.14864 0
M  V30 34087 H 3087.24 0.143754 5.65517 0
M  V30 34088 H 3085.8 0.54956 6.49479 0
M  V30 34089 N 3089.23 -1.00115 1.21716 0
M  V30 34090 C 3090.16 -2.09142 0.937664 0
M  V30 34091 C 3091.17 -1.626 -0.0806005 0
M  V30 34092 O 3092.36 -1.77848 0.15238 0
M  V30 34093 C 3089.46 -3.36682 0.387095 0
M  V30 34094 C 3088.64 -4.12292 1.46061 0
M  V30 34095 C 3087.69 -5.1812 0.918597 0
M  V30 34096 O 3086.72 -5.46164 1.60292 0
M  V30 34097 N 3087.92 -5.79898 -0.264206 0
M  V30 34098 H 3090.69 -2.33702 1.87626 0
M  V30 34099 H 3088.25 -1.16627 1.12293 0
M  V30 34100 H 3090.24 -4.04699 0.00999939 0
M  V30 34101 H 3088.81 -3.0925 -0.456413 0
M  V30 34102 H 3088.03 -3.39023 2.01139 0
M  V30 34103 H 3089.32 -4.59583 2.18314 0
M  V30 34104 H 3088.72 -5.59472 -0.837144 0
M  V30 34105 H 3087.27 -6.4919 -0.582772 0
M  V30 34106 N 3090.71 -1.02553 -1.19669 0
M  V30 34107 C 3091.62 -0.613368 -2.2644 0
M  V30 34108 C 3092.63 0.353309 -1.70375 0
M  V30 34109 O 3093.81 0.212029 -2.00281 0
M  V30 34110 C 3090.87 0.0328419 -3.46684 0
M  V30 34111 C 3089.94 -0.980911 -4.17943 0
M  V30 34112 C 3089.17 -0.365443 -5.32447 0
M  V30 34113 O 3089.39 0.832497 -5.64292 0
M  V30 34114 O 3088.33 -1.08662 -5.9201 0
M  V30 34115 H 3092.15 -1.5025 -2.63929 0
M  V30 34116 H 3089.74 -0.795524 -1.26459 0
M  V30 34117 H 3091.62 0.393321 -4.1956 0
M  V30 34118 H 3090.29 0.896034 -3.11051 0
M  V30 34119 H 3089.2 -1.39292 -3.47201 0
M  V30 34120 H 3090.53 -1.81436 -4.57539 0
M  V30 34121 N 3092.19 1.35612 -0.802945 0
M  V30 34122 C 3093.1 2.33638 -0.212218 0
M  V30 34123 C 3094.11 1.6169 0.642842 0
M  V30 34124 O 3095.29 1.93589 0.555451 0
M  V30 34125 C 3092.35 3.40885 0.632346 0
M  V30 34126 C 3091.41 4.28613 -0.242783 0
M  V30 34127 C 3090.65 5.30737 0.561567 0
M  V30 34128 O 3090.87 5.41369 1.79654 0
M  V30 34129 O 3089.8 6.01883 -0.0456445 0
M  V30 34130 H 3093.63 2.8595 -1.02305 0
M  V30 34131 H 3091.21 1.38318 -0.564661 0
M  V30 34132 H 3093.1 4.06422 1.11351 0
M  V30 34133 H 3091.77 2.9085 1.42084 0
M  V30 34134 H 3090.68 3.66069 -0.771005 0
M  V30 34135 H 3092.01 4.82035 -0.99513 0
M  V30 34136 N 3093.66 0.556128 1.47462 0
M  V30 34137 C 3094.57 -0.195337 2.33785 0
M  V30 34138 C 3095.59 -0.912974 1.48124 0
M  V30 34139 O 3096.77 -0.882109 1.81055 0
M  V30 34140 C 3093.83 -1.21277 3.24797 0
M  V30 34141 C 3092.89 -0.502672 4.26347 0
M  V30 34142 C 3092.12 -1.47163 5.1301 0
M  V30 34143 O 3092.35 -2.70637 5.02107 0
M  V30 34144 O 3091.28 -0.99671 5.9359 0
M  V30 34145 H 3095.11 0.512729 2.99341 0
M  V30 34146 H 3092.69 0.316755 1.46003 0
M  V30 34147 H 3094.57 -1.80009 3.81018 0
M  V30 34148 H 3093.25 -1.90277 2.61871 0
M  V30 34149 H 3092.16 0.125823 3.73888 0
M  V30 34150 H 3093.49 0.145866 4.91984 0
M  V30 34151 N 3095.14 -1.54861 0.292527 0
M  V30 34152 C 3096.05 -2.26877 -0.596996 0
M  V30 34153 C 3097.07 -1.30088 -1.15555 0
M  V30 34154 O 3098.24 -1.63056 -1.18215 0
M  V30 34155 C 3095.31 -2.98906 -1.75658 0
M  V30 34156 C 3094.37 -4.11214 -1.23296 0
M  V30 34157 C 3093.6 -4.79799 -2.33728 0
M  V30 34158 O 3093.83 -4.47692 -3.53452 0
M  V30 34159 O 3092.76 -5.67383 -2.00898 0
M  V30 34160 H 3096.59 -3.03697 -0.0130708 0
M  V30 34161 H 3094.17 -1.49282 0.0592904 0
M  V30 34162 H 3096.05 -3.44114 -2.43235 0
M  V30 34163 H 3094.73 -2.24988 -2.32727 0
M  V30 34164 H 3093.63 -3.70424 -0.523156 0
M  V30 34165 H 3094.97 -4.87084 -0.707801 0
M  V30 34166 N 3096.62 -0.0200973 -1.57587 0
M  V30 34167 C 3098.04 0.336209 -1.56019 0
M  V30 34168 C 3098.24 1.73493 -1.02481 0
M  V30 34169 O 3097.29 2.43517 -0.66753 0
M  V30 34170 C 3098.6 0.193059 -3.0008 0
M  V30 34171 C 3100.15 0.266502 -3.11863 0
M  V30 34172 C 3100.63 0.152246 -4.57747 0
M  V30 34173 N 3102.12 0.209515 -4.62726 0
M  V30 34174 C 3102.85 0.144754 -5.73217 0
M  V30 34175 N 3102.35 0.0294269 -6.92794 0
M  V30 34176 N 3104.14 0.198085 -5.61751 0
M  V30 34177 H 3096.29 -0.934853 -1.9072 0
M  V30 34178 H 3098.56 -0.360202 -0.876903 0
M  V30 34179 H 3098.26 -0.770096 -3.43165 0
M  V30 34180 H 3098.14 0.966965 -3.64595 0
M  V30 34181 H 3100.52 1.22011 -2.68696 0
M  V30 34182 H 3100.6 -0.537624 -2.50086 0
M  V30 34183 H 3100.25 -0.797906 -5.01593 0
M  V30 34184 H 3100.18 0.975119 -5.17493 0
M  V30 34185 H 3102.67 0.299163 -3.76714 0
M  V30 34186 H 3102.98 -0.0135429 -7.72799 0
M  V30 34187 H 3101.33 -0.00522954 -6.95 0
M  V30 34188 H 3104.52 0.286521 -4.67222 0
M  V30 34189 H 3104.69 0.144152 -6.4784 0
M  V30 34190 N 3098.1 1.55557 0.252939 0
M  V30 34191 C 3099.04 1.89808 1.31307 0
M  V30 34192 C 3100.01 0.751659 1.48119 0
M  V30 34193 O 3101.2 1.00477 1.62201 0
M  V30 34194 C 3098.34 2.19298 2.66463 0
M  V30 34195 C 3097.45 3.46714 2.57708 0
M  V30 34196 C 3096.59 3.65803 3.85177 0
M  V30 34197 C 3095.63 4.86841 3.71015 0
M  V30 34198 N 3094.76 5.02483 4.90363 0
M  V30 34199 H 3099.6 2.80219 1.01397 0
M  V30 34200 H 3097.14 1.38719 0.489438 0
M  V30 34201 H 3099.1 2.34399 3.45128 0
M  V30 34202 H 3097.73 1.32098 2.94533 0
M  V30 34203 H 3096.78 3.39977 1.70645 0
M  V30 34204 H 3098.09 4.35522 2.43151 0
M  V30 34205 H 3097.25 3.8083 4.72285 0
M  V30 34206 H 3095.99 2.75217 4.02625 0
M  V30 34207 H 3094.99 4.71797 2.8229 0
M  V30 34208 H 3096.22 5.78882 3.55068 0
M  V30 34209 H 3094.16 4.14833 5.08183 0
M  V30 34210 H 3094.08 5.85369 4.78413 0
M  V30 34211 H 3095.35 5.21916 5.78986 0
M  V30 34212 N 3099.58 -0.518341 1.48832 0
M  V30 34213 C 3100.99 -0.847956 1.3521 0
M  V30 34214 C 3101.19 -1.98037 0.371962 0
M  V30 34215 O 3100.25 -2.51686 -0.202637 0
M  V30 34216 C 3101.56 -1.2045 2.75522 0
M  V30 34217 C 3103.11 -1.31372 2.84096 0
M  V30 34218 C 3103.58 -1.70364 4.25135 0
M  V30 34219 N 3105.07 -1.77445 4.27864 0
M  V30 34220 C 3105.81 -2.09025 5.33944 0
M  V30 34221 N 3105.31 -2.38948 6.50289 0
M  V30 34222 N 3107.1 -2.1013 5.21346 0
M  V30 34223 H 3099.25 0.228661 2.11166 0
M  V30 34224 H 3101.51 0.0396765 0.947169 0
M  V30 34225 H 3101.22 -0.44593 3.48862 0
M  V30 34226 H 3101.09 -2.15199 3.09789 0
M  V30 34227 H 3103.48 -2.06304 2.11004 0
M  V30 34228 H 3103.56 -0.347158 2.53433 0
M  V30 34229 H 3103.2 -0.959887 4.98747 0
M  V30 34230 H 3103.13 -2.6809 4.5325 0
M  V30 34231 H 3105.63 -1.56551 3.43948 0
M  V30 34232 H 3105.94 -2.62184 7.26966 0
M  V30 34233 H 3104.28 -2.36442 6.53544 0
M  V30 34234 H 3107.47 -1.86218 4.29466 0
M  V30 34235 H 3107.65 -2.34408 6.04117 0
M  V30 34236 N 3101.05 -1.37615 -0.7681 0
M  V30 34237 C 3102.47 -1.18495 -1.06917 0
M  V30 34238 C 3102.67 -0.0236107 -2.01486 0
M  V30 34239 O 3101.73 0.635166 -2.44381 0
M  V30 34240 C 3103.04 -2.50518 -1.66317 0
M  V30 34241 C 3104.59 -2.57073 -1.78557 0
M  V30 34242 C 3105.06 -3.89235 -2.41371 0
M  V30 34243 N 3106.55 -3.90697 -2.48817 0
M  V30 34244 C 3107.29 -4.89711 -2.98279 0
M  V30 34245 N 3106.78 -5.99122 -3.47887 0
M  V30 34246 N 3108.58 -4.77112 -2.97187 0
M  V30 34247 H 3100.73 -2.11936 -0.140249 0
M  V30 34248 H 3102.99 -0.939743 -0.124847 0
M  V30 34249 H 3102.7 -3.3588 -1.04297 0
M  V30 34250 H 3102.57 -2.6787 -2.65566 0
M  V30 34251 H 3104.96 -1.72116 -2.39709 0
M  V30 34252 H 3105.04 -2.43601 -0.780531 0
M  V30 34253 H 3104.68 -4.74608 -1.80857 0
M  V30 34254 H 3104.61 -4.00012 -3.42488 0
M  V30 34255 H 3107.1 -3.11664 -2.13715 0
M  V30 34256 H 3107.42 -6.7062 -3.84042 0
M  V30 34257 H 3105.76 -6.02762 -3.45982 0
M  V30 34258 H 3108.95 -3.90757 -2.57734 0
M  V30 34259 H 3109.13 -5.54432 -3.35424 0
M  V30 34260 N 3102.53 0.994677 -1.22245 0
M  V30 34261 C 3103.94 1.54848 -1.04303 0
M  V30 34262 C 3104.29 1.92202 0.394068 0
M  V30 34263 O 3103.42 1.74573 1.2788 0
M  V30 34264 C 3104.01 2.81377 -1.88713 0
M  V30 34265 C 3102.57 3.33207 -1.75072 0
M  V30 34266 C 3101.72 2.06308 -1.85289 0
M  V30 34267 H 3104.67 0.815964 -1.36117 0
M  V30 34268 H 3104.69 3.5367 -1.40348 0
M  V30 34269 H 3104.2 2.54158 -2.933 0
M  V30 34270 H 3102.3 3.65337 -0.732112 0
M  V30 34271 H 3102.42 4.03929 -2.57639 0
M  V30 34272 H 3100.78 2.19786 -1.2871 0
M  V30 34273 H 3101.56 1.81489 -2.91404 0
M  V30 34274 N 3104.01 1.03186 1.19123 0
M  V30 34275 C 3105.42 0.759294 1.70563 0
M  V30 34276 C 3105.77 -0.720761 1.82481 0
M  V30 34277 O 3104.9 -1.56163 1.49807 0
M  V30 34278 C 3105.49 1.37168 3.09791 0
M  V30 34279 C 3104.05 1.14763 3.58478 0
M  V30 34280 C 3103.2 1.46788 2.35263 0
M  V30 34281 H 3106.15 1.19941 1.03923 0
M  V30 34282 H 3106.17 0.770215 3.72623 0
M  V30 34283 H 3105.68 2.44888 3.01084 0
M  V30 34284 H 3103.78 0.0887837 3.72494 0
M  V30 34285 H 3103.9 1.83844 4.42423 0
M  V30 34286 H 3102.26 0.887296 2.38745 0
M  V30 34287 H 3103.04 2.55597 2.29183 0
M  V30 34288 N 3105.49 -1.35184 0.810125 0
M  V30 34289 C 3106.71 -2.03434 0.403676 0
M  V30 34290 C 3107.14 -1.60643 -0.978541 0
M  V30 34291 O 3106.5 -0.784808 -1.63433 0
M  V30 34292 C 3106.54 -3.57128 0.499217 0
M  V30 34293 O 3105.65 -4.09527 -0.485967 0
M  V30 34294 H 3104.99 -0.64238 0.168061 0
M  V30 34295 H 3107.52 -1.72706 1.09699 0
M  V30 34296 H 3107.53 -4.06316 0.370308 0
M  V30 34297 H 3106.2 -3.87621 1.5074 0
M  V30 34298 H 3104.78 -3.7155 -0.317004 0
M  V30 34299 N 3106.97 -0.56394 -1.47165 0
M  V30 34300 C 3108.38 -0.13234 -1.8623 0
M  V30 34301 C 3108.73 1.29969 -1.46978 0
M  V30 34302 O 3107.85 1.97879 -0.875946 0
M  V30 34303 C 3108.45 -0.233394 -3.37995 0
M  V30 34304 C 3107.01 0.143212 -3.76127 0
M  V30 34305 C 3106.15 -0.577905 -2.71211 0
M  V30 34306 H 3109.11 -0.773273 -1.38586 0
M  V30 34307 H 3109.13 0.546243 -3.76559 0
M  V30 34308 H 3108.64 -1.27574 -3.66533 0
M  V30 34309 H 3106.74 1.18641 -3.53207 0
M  V30 34310 H 3106.85 -0.220036 -4.78594 0
M  V30 34311 H 3105.22 -0.0202308 -2.54692 0
M  V30 34312 H 3106 -1.62154 -3.0259 0
M  V30 34313 N 3108.44 1.54704 -0.300735 0
M  V30 34314 C 3109.35 2.2719 0.584956 0
M  V30 34315 C 3110.37 1.30699 1.14864 0
M  V30 34316 O 3111.55 1.63681 1.17348 0
M  V30 34317 C 3108.61 2.99834 1.74071 0
M  V30 34318 C 3107.67 4.11862 1.21113 0
M  V30 34319 C 3106.91 4.81032 2.3118 0
M  V30 34320 O 3107.13 4.4956 3.51072 0
M  V30 34321 O 3106.06 5.6844 1.97887 0
M  V30 34322 H 3109.89 3.037 -0.00303516 0
M  V30 34323 H 3107.47 1.49249 -0.0672064 0
M  V30 34324 H 3109.36 3.454 2.41407 0
M  V30 34325 H 3108.03 2.26219 2.31531 0
M  V30 34326 H 3106.94 3.70696 0.503505 0
M  V30 34327 H 3108.27 4.87453 0.68196 0
M  V30 34328 N 3109.92 0.0284543 1.57574 0
M  V30 34329 C 3111.33 -0.510471 1.79586 0
M  V30 34330 C 3111.68 -1.7229 0.938656 0
M  V30 34331 O 3110.81 -2.15887 0.148878 0
M  V30 34332 C 3111.4 -0.932855 3.25704 0
M  V30 34333 C 3109.96 -1.4169 3.48713 0
M  V30 34334 C 3109.11 -0.381308 2.74666 0
M  V30 34335 H 3112.06 0.254492 1.56646 0
M  V30 34336 H 3112.08 -1.79726 3.35379 0
M  V30 34337 H 3111.59 -0.0502353 3.88067 0
M  V30 34338 H 3109.7 -2.31947 2.91602 0
M  V30 34339 H 3109.81 -1.42473 4.57426 0
M  V30 34340 H 3108.17 -0.849258 2.40124 0
M  V30 34341 H 3108.96 0.492835 3.39744 0
M  V30 34342 N 3111.4 -1.55689 -0.244686 0
M  V30 34343 C 3112.63 -1.82022 -0.994125 0
M  V30 34344 C 3113.05 -0.605802 -1.78078 0
M  V30 34345 O 3112.41 0.44519 -1.75749 0
M  V30 34346 C 3112.46 -3.06115 -1.90594 0
M  V30 34347 O 3111.56 -2.83186 -2.99799 0
M  V30 34348 H 3110.9 -0.600787 -0.282756 0
M  V30 34349 H 3113.43 -2.02877 -0.265004 0
M  V30 34350 H 3113.44 -3.35607 -2.32017 0
M  V30 34351 H 3112.12 -3.94143 -1.32756 0
M  V30 34352 H 3110.69 -2.64867 -2.62488 0
M  V30 34353 N 3112.88 0.510441 -1.49105 0
M  V30 34354 C 3114.11 1.28941 -1.61808 0
M  V30 34355 C 3114.52 1.86624 -0.285806 0
M  V30 34356 O 3113.88 1.67372 0.727521 0
M  V30 34357 C 3113.93 2.4264 -2.6797 0
M  V30 34358 O 3113.65 1.8733 -3.96029 0
M  V30 34359 C 3115.15 3.34161 -2.91292 0
M  V30 34360 H 3112.37 0.391419 -0.545006 0
M  V30 34361 H 3114.92 0.613771 -1.95072 0
M  V30 34362 H 3113.07 3.06051 -2.37511 0
M  V30 34363 H 3113.48 2.61901 -4.54431 0
M  V30 34364 H 3114.96 4.10243 -3.6933 0
M  V30 34365 H 3115.44 3.90584 -2.00849 0
M  V30 34366 H 3116.04 2.76525 -3.23132 0
M  V30 34367 N 3114.36 1.38021 0.760791 0
M  V30 34368 C 3115.3 1.3467 1.87437 0
M  V30 34369 C 3116.27 0.210415 1.64762 0
M  V30 34370 O 3117.46 0.401512 1.86528 0
M  V30 34371 C 3114.6 1.17043 3.24646 0
M  V30 34372 C 3113.71 2.39996 3.59201 0
M  V30 34373 C 3112.85 2.15156 4.85676 0
M  V30 34374 C 3111.89 3.33919 5.12996 0
M  V30 34375 N 3111.02 3.0856 6.30663 0
M  V30 34376 H 3115.86 2.29874 1.89636 0
M  V30 34377 H 3113.4 1.14217 0.926984 0
M  V30 34378 H 3115.36 1.04842 4.03812 0
M  V30 34379 H 3113.99 0.254814 3.21793 0
M  V30 34380 H 3113.04 2.62898 2.74935 0
M  V30 34381 H 3114.35 3.28534 3.75323 0
M  V30 34382 H 3113.51 2.00049 5.7277 0
M  V30 34383 H 3112.24 1.23974 4.7168 0
M  V30 34384 H 3111.25 3.49553 4.24373 0
M  V30 34385 H 3112.47 4.25968 5.28894 0
M  V30 34386 H 3110.42 2.20017 6.18004 0
M  V30 34387 H 3110.34 3.90644 6.47251 0
M  V30 34388 H 3111.61 2.97093 7.20664 0
M  V30 34389 N 3115.83 -0.98818 1.22771 0
M  V30 34390 C 3117.08 -1.73095 1.05668 0
M  V30 34391 C 3117.41 -1.89896 -0.406581 0
M  V30 34392 O 3116.69 -1.44557 -1.30129 0
M  V30 34393 C 3116.97 -3.13379 1.77386 0
M  V30 34394 C 3116.82 -3.04197 3.31337 0
M  V30 34395 C 3118.14 -4.12646 1.53006 0
M  V30 34396 H 3115.26 -0.628281 0.385269 0
M  V30 34397 H 3117.9 -1.15094 1.51173 0
M  V30 34398 H 3116.05 -3.62896 1.38703 0
M  V30 34399 H 3117.73 -2.62263 3.79494 0
M  V30 34400 H 3115.97 -2.40887 3.60771 0
M  V30 34401 H 3116.64 -4.03487 3.767 0
M  V30 34402 H 3119.12 -3.71905 1.86617 0
M  V30 34403 H 3117.99 -5.0891 2.05675 0
M  V30 34404 H 3118.25 -4.39662 0.463693 0
M  V30 34405 N 3117.31 -1.03816 -1.18575 0
M  V30 34406 C 3118.54 -0.759907 -1.92977 0
M  V30 34407 C 3118.96 0.676455 -1.75516 0
M  V30 34408 O 3118.32 1.46823 -1.06362 0
M  V30 34409 C 3118.37 -1.12794 -3.42505 0
M  V30 34410 O 3117.47 -0.251958 -4.1163 0
M  V30 34411 H 3116.81 -0.279897 -0.602124 0
M  V30 34412 H 3119.34 -1.38733 -1.5038 0
M  V30 34413 H 3119.35 -1.08879 -3.93204 0
M  V30 34414 H 3118.03 -2.17433 -3.54536 0
M  V30 34415 H 3116.61 -0.350506 -3.71249 0
M  V30 34416 N 3118.79 1.34753 -0.817283 0
M  V30 34417 C 3119.7 2.334 -0.236987 0
M  V30 34418 C 3120.72 1.62362 0.625657 0
M  V30 34419 O 3121.89 1.94167 0.534887 0
M  V30 34420 C 3118.96 3.41536 0.596155 0
M  V30 34421 C 3118.02 4.28331 -0.28823 0
M  V30 34422 C 3117.25 5.31303 0.505243 0
M  V30 34423 O 3117.47 5.43244 1.73902 0
M  V30 34424 O 3116.41 6.018 -0.10948 0
M  V30 34425 H 3120.23 2.84849 -1.05333 0
M  V30 34426 H 3117.82 1.37712 -0.579299 0
M  V30 34427 H 3119.7 4.0758 1.07034 0
M  V30 34428 H 3118.38 2.92341 1.38991 0
M  V30 34429 H 3117.28 3.6523 -0.809788 0
M  V30 34430 H 3118.62 4.80953 -1.0462 0
M  V30 34431 N 3120.27 0.571737 1.46864 0
M  V30 34432 C 3121.18 -0.17053 2.33979 0
M  V30 34433 C 3122.2 -0.897212 1.49084 0
M  V30 34434 O 3123.37 -0.862856 1.8198 0
M  V30 34435 C 3120.44 -1.17825 3.26065 0
M  V30 34436 C 3119.5 -0.457424 4.26856 0
M  V30 34437 C 3118.73 -1.41713 5.14542 0
M  V30 34438 O 3118.95 -2.65296 5.0495 0
M  V30 34439 O 3117.89 -0.933695 5.94614 0
M  V30 34440 H 3121.71 0.544449 2.9878 0
M  V30 34441 H 3119.3 0.332223 1.45659 0
M  V30 34442 H 3121.18 -1.75958 3.82906 0
M  V30 34443 H 3119.86 -1.87489 2.63874 0
M  V30 34444 H 3118.76 0.165472 3.73734 0
M  V30 34445 H 3120.1 0.198039 4.91801 0
M  V30 34446 N 3121.75 -1.54542 0.308935 0
M  V30 34447 C 3122.71 -2.22483 -0.550818 0
M  V30 34448 C 3123.71 -1.21345 -1.05508 0
M  V30 34449 O 3124.9 -1.46026 -0.94984 0
M  V30 34450 C 3122.03 -2.91743 -1.76349 0
M  V30 34451 H 3123.23 -2.99869 0.0428922 0
M  V30 34452 H 3120.78 -1.56185 0.0598524 0
M  V30 34453 H 3121.51 -2.18456 -2.39682 0
M  V30 34454 H 3121.3 -3.65891 -1.40947 0
M  V30 34455 H 3122.79 -3.43549 -2.37411 0
M  V30 34456 N 3123.23 -0.0368104 -1.57557 0
M  V30 34457 C 3124.14 0.957979 -2.14149 0
M  V30 34458 C 3125.15 1.35171 -1.09566 0
M  V30 34459 O 3126.33 1.43156 -1.41663 0
M  V30 34460 C 3123.39 2.21926 -2.66364 0
M  V30 34461 C 3122.45 1.88523 -3.85691 0
M  V30 34462 C 3121.69 3.08638 -4.35406 0
M  V30 34463 O 3121.91 4.21547 -3.84258 0
M  V30 34464 O 3120.84 2.90488 -5.27163 0
M  V30 34465 H 3124.67 0.506744 -2.99442 0
M  V30 34466 H 3122.25 0.184249 -1.4826 0
M  V30 34467 H 3124.14 2.95955 -2.99981 0
M  V30 34468 H 3122.81 2.66215 -1.8415 0
M  V30 34469 H 3121.72 1.11855 -3.56986 0
M  V30 34470 H 3123.05 1.49044 -4.69091 0
M  V30 34471 N 3124.7 1.55817 0.236426 0
M  V30 34472 C 3125.93 1.82546 0.984458 0
M  V30 34473 C 3126.35 0.615237 1.77754 0
M  V30 34474 O 3125.71 -0.435864 1.75983 0
M  V30 34475 C 3125.76 3.07121 1.88968 0
M  V30 34476 O 3124.86 2.84772 2.98293 0
M  V30 34477 H 3124.2 0.602278 0.279566 0
M  V30 34478 H 3126.73 2.03014 0.254241 0
M  V30 34479 H 3126.74 3.36833 2.30234 0
M  V30 34480 H 3125.42 3.94841 1.30664 0
M  V30 34481 H 3124 2.66255 2.6108 0
M  V30 34482 N 3126.18 -0.502526 1.49373 0
M  V30 34483 C 3127.11 -1.6209 1.62048 0
M  V30 34484 C 3128.13 -1.54827 0.503248 0
M  V30 34485 O 3129.32 -1.60787 0.775237 0
M  V30 34486 C 3126.42 -3.00873 1.55976 0
M  V30 34487 C 3125.59 -3.33336 2.83206 0
M  V30 34488 C 3124.65 -4.51524 2.70208 0
M  V30 34489 O 3123.67 -4.53383 3.4414 0
M  V30 34490 N 3124.88 -5.51347 1.81651 0
M  V30 34491 H 3127.64 -1.51645 2.58503 0
M  V30 34492 H 3125.2 -0.69037 1.46443 0
M  V30 34493 H 3127.19 -3.77856 1.44937 0
M  V30 34494 H 3125.76 -3.05251 0.673849 0
M  V30 34495 H 3124.98 -2.45265 3.08608 0
M  V30 34496 H 3126.27 -3.51822 3.67557 0
M  V30 34497 H 3125.67 -5.52643 1.20839 0
M  V30 34498 H 3124.23 -6.27438 1.76535 0
M  V30 34499 N 3127.66 -1.38422 -0.75346 0
M  V30 34500 C 3128.59 -1.3155 -1.87689 0
M  V30 34501 C 3129.6 -0.227699 -1.612 0
M  V30 34502 O 3130.79 -0.485268 -1.71777 0
M  V30 34503 C 3127.89 -1.01551 -3.23327 0
M  V30 34504 C 3127.07 -2.21243 -3.7732 0
M  V30 34505 C 3126.13 -1.87986 -4.91475 0
M  V30 34506 O 3125.15 -2.60481 -5.06101 0
M  V30 34507 N 3126.35 -0.834897 -5.74465 0
M  V30 34508 H 3129.12 -2.28357 -1.94095 0
M  V30 34509 H 3126.68 -1.32285 -0.933398 0
M  V30 34510 H 3128.67 -0.773547 -3.97238 0
M  V30 34511 H 3127.24 -0.135389 -3.12307 0
M  V30 34512 H 3126.46 -2.61504 -2.94974 0
M  V30 34513 H 3127.75 -3.01122 -4.10126 0
M  V30 34514 H 3127.15 -0.233705 -5.65217 0
M  V30 34515 H 3125.7 -0.652817 -6.48523 0
M  V30 34516 N 3129.14 0.981655 -1.23294 0
M  V30 34517 C 3130.07 2.07624 -0.970818 0
M  V30 34518 C 3131.08 1.62708 0.054722 0
M  V30 34519 O 3132.27 1.77583 -0.180655 0
M  V30 34520 C 3129.37 3.36024 -0.440609 0
M  V30 34521 C 3128.54 4.09916 -1.52602 0
M  V30 34522 C 3127.6 5.16593 -1.00091 0
M  V30 34523 O 3126.63 5.43545 -1.68961 0
M  V30 34524 N 3127.83 5.80245 0.171915 0
M  V30 34525 H 3130.6 2.30688 -1.9132 0
M  V30 34526 H 3128.16 1.14826 -1.14135 0
M  V30 34527 H 3130.15 4.04632 -0.0743822 0
M  V30 34528 H 3128.72 3.09937 0.407156 0
M  V30 34529 H 3127.94 3.3578 -2.06507 0
M  V30 34530 H 3129.23 4.56051 -2.25598 0
M  V30 34531 H 3128.63 5.60733 0.748031 0
M  V30 34532 H 3127.18 6.50034 0.479418 0
M  V30 34533 N 3130.62 1.04444 1.18022 0
M  V30 34534 C 3131.86 0.76094 1.8863 0
M  V30 34535 C 3132.22 -0.703926 1.7906 0
M  V30 34536 O 3131.51 -1.50746 1.18264 0
M  V30 34537 C 3131.7 1.16637 3.37832 0
M  V30 34538 C 3131.53 2.6691 3.61924 0
M  V30 34539 C 3130.3 3.34112 3.79074 0
M  V30 34540 C 3132.5 3.65131 3.62193 0
M  V30 34541 N 3130.48 4.73327 3.9094 0
M  V30 34542 C 3131.85 4.90039 3.79819 0
M  V30 34543 C 3133.91 3.58707 3.45302 0
M  V30 34544 C 3132.61 6.09293 3.82301 0
M  V30 34545 C 3134.64 4.77393 3.49069 0
M  V30 34546 C 3134 6.01122 3.67195 0
M  V30 34547 H 3130.1 0.330562 0.708698 0
M  V30 34548 H 3132.68 1.33488 1.41736 0
M  V30 34549 H 3130.85 0.620467 3.83412 0
M  V30 34550 H 3132.59 0.83349 3.96024 0
M  V30 34551 H 3129.34 2.84514 3.78614 0
M  V30 34552 H 3129.76 5.45692 4.00686 0
M  V30 34553 H 3134.41 2.64021 3.30232 0
M  V30 34554 H 3132.12 7.04332 3.96159 0
M  V30 34555 H 3135.71 4.74068 3.37269 0
M  V30 34556 H 3134.59 6.91423 3.70005 0
M  V30 34557 N 3132.09 -1.34317 0.824418 0
M  V30 34558 C 3133.37 -1.92697 0.335726 0
M  V30 34559 C 3133.75 -1.75234 -1.17712 0
M  V30 34560 O 3133.1 -1.13198 -1.98491 0
M  V30 34561 C 3133.31 -3.40474 0.766706 0
M  V30 34562 C 3134.66 -4.17626 0.766397 0
M  V30 34563 O 3135.68 -3.49065 0.709382 0
M  V30 34564 O 3134.54 -5.39991 0.840951 0
M  V30 34565 H 3131.63 -0.821865 0.092014 0
M  V30 34566 H 3134.18 -1.43282 0.909308 0
M  V30 34567 H 3132.95 -3.46992 1.80865 0
M  V30 34568 H 3132.57 -3.97241 0.168902 0
M  V30 34569 N 3133.57 -0.579517 -1.46558 0
M  V30 34570 C 3134.8 -0.0694011 -2.06784 0
M  V30 34571 C 3135.21 1.23417 -1.42877 0
M  V30 34572 O 3134.57 1.74545 -0.53295 0
M  V30 34573 C 3134.62 0.106448 -3.61343 0
M  V30 34574 O 3134.34 -1.14552 -4.22859 0
M  V30 34575 C 3135.84 0.651282 -4.3849 0
M  V30 34576 H 3133.06 -0.0559966 -0.668659 0
M  V30 34577 H 3135.61 -0.799278 -1.88233 0
M  V30 34578 H 3133.76 0.786534 -3.79332 0
M  V30 34579 H 3134.18 -0.957321 -5.15689 0
M  V30 34580 H 3135.65 0.723518 -5.47238 0
M  V30 34581 H 3136.13 1.66755 -4.06312 0
M  V30 34582 H 3136.73 0.00616854 -4.253 0
M  V30 34583 N 3135.05 1.54376 -0.317127 0
M  V30 34584 C 3136.28 2.0533 0.292275 0
M  V30 34585 C 3136.7 1.1921 1.45501 0
M  V30 34586 O 3136.06 0.199753 1.80196 0
M  V30 34587 C 3136.11 3.53527 0.710725 0
M  V30 34588 O 3135.21 3.70371 1.8138 0
M  V30 34589 H 3134.55 0.661802 0.053986 0
M  V30 34590 H 3137.08 1.99277 -0.463664 0
M  V30 34591 H 3137.09 3.95678 0.995147 0
M  V30 34592 H 3135.77 4.15665 -0.139741 0
M  V30 34593 H 3134.34 3.40126 1.52869 0
M  V30 34594 N 3136.53 0.0451655 1.57535 0
M  V30 34595 C 3137.48 -0.931276 2.11177 0
M  V30 34596 C 3138.45 -1.31273 1.01768 0
M  V30 34597 O 3139.63 -1.40325 1.29281 0
M  V30 34598 C 3136.77 -2.20291 2.65643 0
M  V30 34599 C 3135.88 -1.87647 3.89118 0
M  V30 34600 C 3135.02 -3.09224 4.31919 0
M  V30 34601 C 3134.06 -2.72474 5.4811 0
M  V30 34602 N 3133.19 -3.86726 5.85993 0
M  V30 34603 H 3138.03 -0.466934 2.94319 0
M  V30 34604 H 3135.57 -0.21886 1.45463 0
M  V30 34605 H 3137.53 -2.94692 2.95318 0
M  V30 34606 H 3136.16 -2.64312 1.85307 0
M  V30 34607 H 3135.21 -1.0342 3.66072 0
M  V30 34608 H 3136.52 -1.56592 4.73582 0
M  V30 34609 H 3135.68 -3.91931 4.63115 0
M  V30 34610 H 3134.42 -3.43453 3.46253 0
M  V30 34611 H 3133.42 -1.88183 5.16592 0
M  V30 34612 H 3134.65 -2.39444 6.35487 0
M  V30 34613 H 3132.59 -4.20766 5.03281 0
M  V30 34614 H 3132.51 -3.59349 6.65135 0
M  V30 34615 H 3133.78 -4.70089 6.21801 0
M  V30 34616 N 3138.01 -1.5594 -0.228159 0
M  V30 34617 C 3139.25 -1.78293 -0.951637 0
M  V30 34618 C 3139.58 -0.612507 -1.85131 0
M  V30 34619 O 3138.85 0.370908 -1.92357 0
M  V30 34620 H 3137.43 -0.657591 -0.354376 0
M  V30 34621 H 3140.09 -1.93397 -0.241601 0
M  V30 34622 H 3139.18 -2.7018 -1.56234 0
M  V30 34623 N 3139.48 0.494597 -1.49638 0
M  V30 34624 C 3140.39 1.62169 -1.69524 0
M  V30 34625 C 3141.41 1.64122 -0.577923 0
M  V30 34626 O 3142.59 1.82425 -0.853414 0
M  V30 34627 C 3139.65 2.98507 -1.76336 0
M  V30 34628 C 3138.71 3.0713 -2.9995 0
M  V30 34629 C 3137.95 4.36965 -3.06426 0
M  V30 34630 O 3138.17 5.26132 -2.20322 0
M  V30 34631 O 3137.1 4.50693 -3.98948 0
M  V30 34632 H 3140.93 1.48319 -2.65019 0
M  V30 34633 H 3138.51 0.671579 -1.33455 0
M  V30 34634 H 3140.4 3.79527 -1.83132 0
M  V30 34635 H 3139.07 3.12605 -0.84021 0
M  V30 34636 H 3137.98 2.25274 -2.98667 0
M  V30 34637 H 3139.31 2.97961 -3.91765 0
M  V30 34638 N 3140.96 1.3882 0.746109 0
M  V30 34639 C 3141.89 1.32543 1.86989 0
M  V30 34640 C 3142.91 0.236245 1.61077 0
M  V30 34641 O 3144.1 0.494371 1.71517 0
M  V30 34642 C 3141.2 1.03264 3.22784 0
M  V30 34643 C 3140.37 2.23241 3.76141 0
M  V30 34644 C 3139.43 1.9059 4.90471 0
M  V30 34645 O 3138.45 2.63161 5.04712 0
M  V30 34646 N 3139.66 0.865351 5.74014 0
M  V30 34647 H 3142.42 2.29384 1.92881 0
M  V30 34648 H 3139.98 1.32778 0.926369 0
M  V30 34649 H 3141.97 0.794603 3.96823 0
M  V30 34650 H 3140.54 0.15195 3.1223 0
M  V30 34651 H 3139.76 2.63064 2.93583 0
M  V30 34652 H 3141.05 3.03293 4.08523 0
M  V30 34653 H 3140.45 0.263677 5.65085 0
M  V30 34654 H 3139.01 0.687201 6.48167 0
M  V30 34655 N 3142.44 -0.975103 1.23812 0
M  V30 34656 C 3143.69 -1.71965 1.07498 0
M  V30 34657 C 3144.02 -1.90317 -0.386417 0
M  V30 34658 O 3143.29 -1.45929 -1.28589 0
M  V30 34659 C 3143.58 -3.1148 1.807 0
M  V30 34660 C 3143.43 -3.00665 3.34545 0
M  V30 34661 C 3144.75 -4.11 1.57375 0
M  V30 34662 H 3141.87 -0.624159 0.391911 0
M  V30 34663 H 3144.51 -1.13484 1.52385 0
M  V30 34664 H 3142.66 -3.61405 1.42544 0
M  V30 34665 H 3144.33 -2.58224 3.82254 0
M  V30 34666 H 3142.58 -2.37047 3.63306 0
M  V30 34667 H 3143.25 -3.99469 3.80958 0
M  V30 34668 H 3145.72 -3.69904 1.90552 0
M  V30 34669 H 3144.6 -5.067 2.11061 0
M  V30 34670 H 3144.86 -4.39145 0.510298 0
M  V30 34671 N 3143.92 -1.05068 -1.17467 0
M  V30 34672 C 3145.14 -0.780332 -1.9216 0
M  V30 34673 C 3145.57 0.657801 -1.76223 0
M  V30 34674 O 3144.93 1.45686 -1.07913 0
M  V30 34675 C 3144.97 -1.1642 -3.4129 0
M  V30 34676 O 3144.08 -0.295603 -4.11339 0
M  V30 34677 H 3143.42 -0.286268 -0.599122 0
M  V30 34678 H 3145.95 -1.4032 -1.48901 0
M  V30 34679 H 3145.96 -1.13043 -3.92027 0
M  V30 34680 H 3144.63 -2.21181 -3.5221 0
M  V30 34681 H 3143.21 -0.389863 -3.70856 0
M  V30 34682 N 3145.4 1.33878 -0.831529 0
M  V30 34683 C 3146.33 2.28171 -0.216948 0
M  V30 34684 C 3147.34 1.51415 0.598114 0
M  V30 34685 O 3148.53 1.73333 0.426385 0
M  V30 34686 C 3145.63 3.31298 0.713772 0
M  V30 34687 C 3144.8 4.37358 -0.0603442 0
M  V30 34688 C 3143.86 5.20196 0.792604 0
M  V30 34689 O 3142.89 5.68717 0.234464 0
M  V30 34690 N 3144.09 5.40752 2.1111 0
M  V30 34691 H 3146.86 2.81551 -1.02709 0
M  V30 34692 H 3144.42 1.46493 -0.689298 0
M  V30 34693 H 3146.41 3.83617 1.28919 0
M  V30 34694 H 3144.98 2.78249 1.42464 0
M  V30 34695 H 3144.2 3.85638 -0.817109 0
M  V30 34696 H 3145.49 5.05334 -0.592911 0
M  V30 34697 H 3144.88 5.0302 2.58819 0
M  V30 34698 H 3143.44 5.96156 2.63517 0
M  V30 34699 N 3146.87 0.587281 1.46249 0
M  V30 34700 C 3147.82 -0.156067 2.32076 0
M  V30 34701 C 3148.82 -0.879861 1.44758 0
M  V30 34702 O 3150.02 -0.797731 1.61358 0
M  V30 34703 H 3146.4 -0.0691966 0.74881 0
M  V30 34704 H 3148.37 0.586549 2.92578 0
M  V30 34705 C 3147.12 -1.15346 3.2801 0
M  V30 34706 H 3146.44 -0.60594 3.95181 0
M  V30 34707 H 3147.88 -1.64389 3.90835 0
M  V30 34708 C 3146.34 -2.21677 2.53695 0
M  V30 34709 O 3146.87 -3.29103 2.30335 0
M  V30 34710 N 3145.08 -1.96408 2.14178 0
M  V30 34711 H 3144.62 -1.09057 2.33376 0
M  V30 34712 H 3144.58 -2.67762 1.64775 0
M  V30 34713 N 3148.35 -1.54206 0.325309 0
M  V30 34714 C 3149.6 -2.00204 -0.276193 0
M  V30 34715 C 3149.92 -1.21505 -1.52517 0
M  V30 34716 O 3149.19 -0.317336 -1.93313 0
M  V30 34717 H 3147.77 -0.739577 -0.105046 0
M  V30 34718 H 3150.43 -1.89816 0.442258 0
M  V30 34719 H 3149.53 -3.07543 -0.531373 0
M  V30 34720 N 3149.83 -0.0535194 -1.57509 0
M  V30 34721 C 3150.76 0.917961 -2.14699 0
M  V30 34722 C 3151.74 1.32291 -1.06926 0
M  V30 34723 O 3152.93 1.3972 -1.34877 0
M  V30 34724 C 3150.06 2.19198 -2.69387 0
M  V30 34725 C 3149.01 1.92703 -3.82164 0
M  V30 34726 C 3148.34 3.26579 -4.23379 0
M  V30 34727 C 3149.64 1.24677 -5.07201 0
M  V30 34728 H 3151.33 0.441598 -2.96125 0
M  V30 34729 H 3148.88 0.210968 -1.42446 0
M  V30 34730 H 3150.83 2.87561 -3.08036 0
M  V30 34731 H 3149.55 2.69044 -1.85156 0
M  V30 34732 H 3148.21 1.26751 -3.43991 0
M  V30 34733 H 3147.86 3.74231 -3.36095 0
M  V30 34734 H 3147.56 3.09649 -4.99391 0
M  V30 34735 H 3149.09 3.9617 -4.6463 0
M  V30 34736 H 3150.5 1.83078 -5.43282 0
M  V30 34737 H 3148.9 1.18065 -5.88371 0
M  V30 34738 H 3149.97 0.223142 -4.84386 0
M  V30 34739 N 3151.31 1.56059 0.219886 0
M  V30 34740 C 3152.72 1.69314 0.786736 0
M  V30 34741 C 3153.07 0.655815 1.84915 0
M  V30 34742 O 3152.2 -0.192734 2.1554 0
M  V30 34743 C 3152.79 3.06965 1.43381 0
M  V30 34744 C 3151.35 3.22069 1.94804 0
M  V30 34745 C 3150.5 2.65242 0.808816 0
M  V30 34746 H 3153.45 1.58699 -0.00479567 0
M  V30 34747 H 3153.47 3.02915 2.30267 0
M  V30 34748 H 3152.98 3.82441 0.660338 0
M  V30 34749 H 3151.08 2.51465 2.74948 0
M  V30 34750 H 3151.2 4.29303 2.12686 0
M  V30 34751 H 3149.56 2.23767 1.21658 0
M  V30 34752 H 3150.34 3.43266 0.0479854 0
M  V30 34753 N 3152.79 -0.486655 1.49898 0
M  V30 34754 C 3153.75 -1.56888 1.67089 0
M  V30 34755 C 3154.75 -1.51386 0.542117 0
M  V30 34756 O 3155.94 -1.54283 0.808858 0
M  V30 34757 C 3153.07 -2.96536 1.68165 0
M  V30 34758 H 3154.27 -1.42969 2.63628 0
M  V30 34759 H 3151.82 -0.71193 1.39145 0
M  V30 34760 H 3152.55 -3.15916 0.732618 0
M  V30 34761 H 3152.34 -3.01937 2.50153 0
M  V30 34762 H 3153.83 -3.75137 1.83472 0
M  V30 34763 N 3154.27 -1.39214 -0.738737 0
M  V30 34764 C 3155.18 -1.39901 -1.88321 0
M  V30 34765 C 3156.19 -0.294259 -1.71494 0
M  V30 34766 O 3157.37 -0.535122 -1.94161 0
M  V30 34767 C 3154.43 -1.23732 -3.23869 0
M  V30 34768 C 3153.49 -2.44145 -3.53117 0
M  V30 34769 C 3152.73 -2.28738 -4.82198 0
M  V30 34770 O 3152.95 -1.28889 -5.55647 0
M  V30 34771 O 3151.88 -3.17643 -5.1126 0
M  V30 34772 H 3155.71 -2.36365 -1.90696 0
M  V30 34773 H 3153.29 -1.2029 -0.886045 0
M  V30 34774 H 3155.18 -1.16833 -4.0488 0
M  V30 34775 H 3153.85 -0.303607 -3.22273 0
M  V30 34776 H 3152.76 -2.5662 -2.72208 0
M  V30 34777 H 3154.09 -3.36197 -3.59489 0
M  V30 34778 N 3155.74 0.968523 -1.24328 0
M  V30 34779 C 3156.68 2.06583 -0.992785 0
M  V30 34780 C 3157.69 1.62757 0.0374616 0
M  V30 34781 O 3158.88 1.77382 -0.19948 0
M  V30 34782 C 3155.98 3.35537 -0.476224 0
M  V30 34783 C 3155.15 4.08275 -1.56941 0
M  V30 34784 C 3154.21 5.15502 -1.05564 0
M  V30 34785 O 3153.24 5.41722 -1.74716 0
M  V30 34786 N 3154.44 5.80395 0.110363 0
M  V30 34787 H 3157.2 2.28645 -1.93756 0
M  V30 34788 H 3154.76 1.13609 -1.15346 0
M  V30 34789 H 3156.76 4.0453 -0.117295 0
M  V30 34790 H 3155.33 3.10351 0.37426 0
M  V30 34791 H 3154.55 3.33571 -2.10057 0
M  V30 34792 H 3155.83 4.53633 -2.30423 0
M  V30 34793 H 3155.23 5.61494 0.688515 0
M  V30 34794 H 3153.79 6.50506 0.410446 0
M  V30 34795 N 3157.22 1.0569 1.16908 0
M  V30 34796 C 3158.47 0.768442 1.86921 0
M  V30 34797 C 3158.79 -0.706889 1.81736 0
M  V30 34798 O 3158.06 -1.51107 1.24673 0
M  V30 34799 H 3156.64 0.281265 0.692025 0
M  V30 34800 H 3159.3 1.33711 1.41801 0
M  V30 34801 H 3158.4 1.08788 2.92526 0
M  V30 34802 N 3158.7 -1.33435 0.838617 0
M  V30 34803 C 3159.92 -2.02532 0.446736 0
M  V30 34804 C 3160.35 -1.62682 -0.944246 0
M  V30 34805 O 3159.71 -0.819298 -1.61732 0
M  V30 34806 C 3159.76 -3.55988 0.574857 0
M  V30 34807 O 3158.86 -4.10465 -0.398991 0
M  V30 34808 H 3158.2 -0.63867 0.181649 0
M  V30 34809 H 3160.73 -1.7034 1.13338 0
M  V30 34810 H 3160.74 -4.05439 0.45641 0
M  V30 34811 H 3159.42 -3.84337 1.58928 0
M  V30 34812 H 3157.99 -3.72139 -0.238122 0
M  V30 34813 N 3160.18 -0.595029 -1.45935 0
M  V30 34814 C 3161.59 -0.171812 -1.85908 0
M  V30 34815 C 3161.94 1.26822 -1.49702 0
M  V30 34816 O 3161.06 1.95977 -0.917722 0
M  V30 34817 C 3161.66 -0.305035 -3.37424 0
M  V30 34818 C 3160.22 0.0633973 -3.76347 0
M  V30 34819 C 3159.37 -0.635303 -2.69924 0
M  V30 34820 H 3162.32 -0.802495 -1.36915 0
M  V30 34821 H 3162.34 0.466246 -3.77633 0
M  V30 34822 H 3161.85 -1.3532 -3.63744 0
M  V30 34823 H 3159.95 1.11123 -3.55644 0
M  V30 34824 H 3160.06 -0.321503 -4.7802 0
M  V30 34825 H 3158.43 -0.0742502 -2.54592 0
M  V30 34826 H 3159.21 -1.68536 -2.99083 0
M  V30 34827 N 3161.66 1.54031 -0.333483 0
M  V30 34828 C 3163.07 1.59589 0.0188125 0
M  V30 34829 C 3163.27 1.34975 1.49613 0
M  V30 34830 O 3162.33 1.13905 2.25348 0
M  V30 34831 C 3163.64 2.97915 -0.408325 0
M  V30 34832 C 3165.19 3.10925 -0.359818 0
M  V30 34833 C 3165.66 4.51612 -0.762269 0
M  V30 34834 N 3167.15 4.57632 -0.716061 0
M  V30 34835 C 3167.89 5.64621 -0.999536 0
M  V30 34836 N 3167.39 6.79507 -1.35065 0
M  V30 34837 N 3169.18 5.54446 -0.92444 0
M  V30 34838 H 3161.33 1.68286 -1.2959 0
M  V30 34839 H 3163.59 0.78762 -0.527598 0
M  V30 34840 H 3163.3 3.20959 -1.43799 0
M  V30 34841 H 3163.17 3.76548 0.221619 0
M  V30 34842 H 3165.56 2.8761 0.660652 0
M  V30 34843 H 3165.64 2.34373 -1.02483 0
M  V30 34844 H 3165.28 4.75661 -1.7807 0
M  V30 34845 H 3165.21 5.26547 -0.0748403 0
M  V30 34846 H 3167.71 3.75127 -0.456941 0
M  V30 34847 H 3168.02 7.57054 -1.55207 0
M  V30 34848 H 3166.36 6.80978 -1.38901 0
M  V30 34849 H 3169.55 4.63571 -0.649551 0
M  V30 34850 H 3169.73 6.37737 -1.14871 0
M  V30 34851 N 3163.13 0.0618717 1.57479 0
M  V30 34852 C 3164.07 -0.944514 2.07736 0
M  V30 34853 C 3165.04 -1.29731 0.98023 0
M  V30 34854 O 3166.23 -1.40834 1.25292 0
M  V30 34855 C 3163.36 -2.25548 2.52677 0
M  V30 34856 C 3162.4 -2.05496 3.73729 0
M  V30 34857 S 3163.23 -1.32345 5.18888 0
M  V30 34858 C 3164.39 -2.64743 5.67152 0
M  V30 34859 H 3164.62 -0.516837 2.92773 0
M  V30 34860 H 3162.16 -0.150657 1.53663 0
M  V30 34861 H 3164.11 -3.00899 2.79231 0
M  V30 34862 H 3162.78 -2.65442 1.67926 0
M  V30 34863 H 3161.97 -3.02493 4.0313 0
M  V30 34864 H 3161.57 -1.38283 3.47496 0
M  V30 34865 H 3163.86 -3.60872 5.73391 0
M  V30 34866 H 3164.81 -2.39964 6.662 0
M  V30 34867 H 3165.21 -2.71493 4.94926 0
M  V30 34868 N 3164.61 -1.56173 -0.211607 0
M  V30 34869 C 3165.58 -1.92383 -1.24584 0
M  V30 34870 C 3166.58 -0.803335 -1.39295 0
M  V30 34871 O 3167.77 -1.07097 -1.3739 0
M  V30 34872 C 3164.9 -2.18339 -2.61803 0
M  V30 34873 H 3166.09 -2.84894 -0.936764 0
M  V30 34874 H 3163.64 -1.49608 -0.452444 0
M  V30 34875 H 3164.38 -1.28412 -2.97793 0
M  V30 34876 H 3164.16 -2.99977 -2.525 0
M  V30 34877 H 3165.65 -2.47415 -3.36415 0
M  V30 34878 N 3166.09 0.478699 -1.50154 0
M  V30 34879 C 3167 1.60361 -1.71235 0
M  V30 34880 C 3168.02 1.635 -0.595298 0
M  V30 34881 O 3169.19 1.81509 -0.872715 0
M  V30 34882 C 3166.26 2.9662 -1.79492 0
M  V30 34883 C 3165.32 3.03931 -3.0319 0
M  V30 34884 C 3164.55 4.33691 -3.11044 0
M  V30 34885 O 3164.77 5.23765 -2.25889 0
M  V30 34886 O 3163.71 4.46436 -4.03706 0
M  V30 34887 H 3167.53 1.455 -2.66577 0
M  V30 34888 H 3165.12 0.657387 -1.3416 0
M  V30 34889 H 3167 3.77563 -1.87147 0
M  V30 34890 H 3165.68 3.11697 -0.873319 0
M  V30 34891 H 3164.58 2.22094 -3.0104 0
M  V30 34892 H 3165.92 2.93789 -3.94904 0
M  V30 34893 N 3167.57 1.39603 0.731343 0
M  V30 34894 C 3168.8 1.40308 1.52057 0
M  V30 34895 C 3169.21 -0.00144602 1.888 0
M  V30 34896 O 3168.57 -0.973688 1.54355 0
M  V30 34897 C 3168.62 2.27936 2.80584 0
M  V30 34898 O 3168.34 3.62919 2.454 0
M  V30 34899 C 3169.84 2.37063 3.74588 0
M  V30 34900 H 3167.06 0.479112 0.469779 0
M  V30 34901 H 3169.61 1.83464 0.903404 0
M  V30 34902 H 3167.76 1.88184 3.38623 0
M  V30 34903 H 3168.17 4.09296 3.27989 0
M  V30 34904 H 3169.65 3.02617 4.61657 0
M  V30 34905 H 3170.13 1.39089 4.16594 0
M  V30 34906 H 3170.73 2.773 3.22466 0
M  V30 34907 N 3169.05 -0.961916 1.2484 0
M  V30 34908 C 3170.29 -1.70815 1.09316 0
M  V30 34909 C 3170.63 -1.90716 -0.36621 0
M  V30 34910 O 3169.9 -1.47284 -1.27034 0
M  V30 34911 C 3170.18 -3.09546 1.83993 0
M  V30 34912 C 3170.04 -2.971 3.37715 0
M  V30 34913 C 3171.36 -4.09308 1.61725 0
M  V30 34914 H 3168.47 -0.619967 0.398509 0
M  V30 34915 H 3171.12 -1.11862 1.53581 0
M  V30 34916 H 3169.27 -3.59873 1.46369 0
M  V30 34917 H 3170.94 -2.54155 3.84972 0
M  V30 34918 H 3169.18 -2.33181 3.65799 0
M  V30 34919 H 3169.85 -3.95406 3.85173 0
M  V30 34920 H 3172.33 -3.67863 1.94464 0
M  V30 34921 H 3171.2 -5.04432 2.16423 0
M  V30 34922 H 3171.47 -4.38579 0.556847 0
M  V30 34923 N 3170.52 -1.06308 -1.16346 0
M  V30 34924 C 3171.8 -0.693342 -1.82899 0
M  V30 34925 C 3172.18 0.825276 -1.943 0
M  V30 34926 O 3171.53 1.73562 -1.48622 0
M  V30 34927 C 3171.74 -1.39546 -3.19888 0
M  V30 34928 C 3173.09 -1.54075 -3.95659 0
M  V30 34929 O 3174.11 -1.35537 -3.29406 0
M  V30 34930 O 3172.97 -1.84488 -5.14418 0
M  V30 34931 H 3170.06 -0.245459 -0.789733 0
M  V30 34932 H 3172.61 -1.16336 -1.23547 0
M  V30 34933 H 3171.38 -2.43098 -3.06625 0
M  V30 34934 H 3171.01 -0.915521 -3.86916 0
M  V30 34935 N 3172 1.32989 -0.845682 0
M  V30 34936 C 3173.23 2.01758 -0.458386 0
M  V30 34937 C 3173.65 1.636 0.942361 0
M  V30 34938 O 3173 0.852766 1.61351 0
M  V30 34939 C 3173.05 3.56859 -0.577374 0
M  V30 34940 O 3172.77 3.93643 -1.92294 0
M  V30 34941 C 3174.28 4.42902 -0.187917 0
M  V30 34942 H 3171.5 0.646077 -0.181176 0
M  V30 34943 H 3174.04 1.69768 -1.14014 0
M  V30 34944 H 3172.19 3.87359 0.0565465 0
M  V30 34945 H 3172.61 4.88357 -1.9133 0
M  V30 34946 H 3174.08 5.51059 -0.322202 0
M  V30 34947 H 3174.56 4.3048 0.870821 0
M  V30 34948 H 3175.17 4.17774 -0.796546 0
M  V30 34949 N 3173.48 0.60276 1.45618 0
M  V30 34950 C 3174.71 0.100465 2.07157 0
M  V30 34951 C 3175.13 -1.2039 1.44526 0
M  V30 34952 O 3174.49 -1.73189 0.536221 0
M  V30 34953 C 3174.54 -0.030797 3.60587 0
M  V30 34954 O 3173.64 -1.08227 3.97946 0
M  V30 34955 H 3172.98 0.0718759 0.660098 0
M  V30 34956 H 3175.51 0.831399 1.86946 0
M  V30 34957 H 3175.52 -0.230563 4.07348 0
M  V30 34958 H 3174.2 0.921652 4.05559 0
M  V30 34959 H 3172.77 -0.85935 3.62863 0
M  V30 34960 N 3174.96 -1.53852 0.341647 0
M  V30 34961 C 3175.87 -2.28661 -0.524515 0
M  V30 34962 C 3176.88 -1.33699 -1.11358 0
M  V30 34963 O 3178.06 -1.66734 -1.12967 0
M  V30 34964 C 3175.13 -3.04344 -1.6606 0
M  V30 34965 C 3174.19 -4.14928 -1.10151 0
M  V30 34966 C 3173.42 -4.86992 -2.18345 0
M  V30 34967 O 3173.64 -4.5871 -3.3903 0
M  V30 34968 O 3172.58 -5.73487 -1.82746 0
M  V30 34969 H 3176.4 -3.03585 0.0835547 0
M  V30 34970 H 3173.99 -1.49018 0.106753 0
M  V30 34971 H 3175.87 -3.51679 -2.32164 0
M  V30 34972 H 3174.54 -2.32279 -2.25451 0
M  V30 34973 H 3173.45 -3.71901 -0.405044 0
M  V30 34974 H 3174.78 -4.89089 -0.552481 0
M  V30 34975 N 3176.44 -0.0702223 -1.57443 0
M  V30 34976 C 3177.37 0.933484 -2.08234 0
M  V30 34977 C 3178.35 1.2921 -0.987096 0
M  V30 34978 O 3179.53 1.40167 -1.26037 0
M  V30 34979 C 3176.66 2.24205 -2.5387 0
M  V30 34980 C 3175.7 2.03512 -3.74814 0
M  V30 34981 S 3176.54 1.29592 -5.19583 0
M  V30 34982 C 3177.69 2.61732 -5.68549 0
M  V30 34983 H 3177.93 0.501303 -2.93043 0
M  V30 34984 H 3175.46 0.142506 -1.53741 0
M  V30 34985 H 3177.42 2.99414 -2.80823 0
M  V30 34986 H 3176.08 2.64548 -1.69331 0
M  V30 34987 H 3175.27 3.00351 -4.04729 0
M  V30 34988 H 3174.87 1.36439 -3.48225 0
M  V30 34989 H 3177.17 3.57826 -5.75297 0
M  V30 34990 H 3178.11 2.36428 -6.67463 0
M  V30 34991 H 3178.52 2.68864 -4.96359 0
M  V30 34992 N 3177.91 1.56283 0.203321 0
M  V30 34993 C 3179.16 1.80407 0.926349 0
M  V30 34994 C 3179.49 0.642915 1.83249 0
M  V30 34995 O 3178.77 -0.356964 1.91196 0
M  V30 34996 C 3179.05 3.14736 1.74966 0
M  V30 34997 C 3178.9 4.4133 0.868789 0
M  V30 34998 C 3180.22 3.45677 2.72388 0
M  V30 34999 H 3177.34 0.656292 0.335335 0
M  V30 35000 H 3179.98 1.89005 0.194167 0
M  V30 35001 H 3178.13 3.07537 2.37388 0
M  V30 35002 H 3179.81 4.60567 0.259905 0
M  V30 35003 H 3178.05 4.33447 0.175084 0
M  V30 35004 H 3178.72 5.31799 1.47965 0
M  V30 35005 H 3181.2 3.53123 2.20099 0
M  V30 35006 H 3180.07 4.40804 3.27083 0
M  V30 35007 H 3180.33 2.68757 3.5103 0
M  V30 35008 N 3179.39 -0.470729 1.50406 0
M  V30 35009 C 3180.34 -1.58943 1.69823 0
M  V30 35010 C 3181.34 -1.59732 0.564098 0
M  V30 35011 O 3182.54 -1.63877 0.744605 0
M  V30 35012 H 3178.92 -0.527429 0.536025 0
M  V30 35013 H 3180.89 -1.39727 2.63664 0
M  V30 35014 C 3179.64 -2.9688 1.80991 0
M  V30 35015 H 3178.96 -2.96991 2.6765 0
M  V30 35016 H 3180.4 -3.74611 1.98602 0
M  V30 35017 C 3178.86 -3.32186 0.561609 0
M  V30 35018 O 3179.39 -4.00585 -0.299066 0
M  V30 35019 N 3177.59 -2.87614 0.415527 0
M  V30 35020 H 3177.14 -2.32125 1.11695 0
M  V30 35021 H 3177.1 -3.11602 -0.418537 0
M  V30 35022 N 3180.87 -1.39989 -0.72393 0
M  V30 35023 C 3182.12 -1.37543 -1.48076 0
M  V30 35024 C 3182.44 0.0243015 -1.94985 0
M  V30 35025 O 3181.71 0.977572 -1.69766 0
M  V30 35026 H 3180.29 -0.506191 -0.549345 0
M  V30 35027 H 3182.95 -1.74963 -0.858715 0
M  V30 35028 H 3182.05 -2.04509 -2.35759 0
M  V30 35029 N 3182.35 0.955282 -1.25348 0
M  V30 35030 C 3183.31 2.03342 -1.05757 0
M  V30 35031 C 3184.31 1.60797 -0.0106026 0
M  V30 35032 O 3185.5 1.72357 -0.252729 0
M  V30 35033 C 3182.63 3.35478 -0.605595 0
M  V30 35034 H 3183.83 2.22154 -2.01463 0
M  V30 35035 H 3181.38 1.13228 -1.07746 0
M  V30 35036 H 3182.12 3.22361 0.354097 0
M  V30 35037 H 3181.9 3.67707 -1.36141 0
M  V30 35038 H 3183.39 4.14716 -0.48994 0
M  V30 35039 N 3183.83 1.06924 1.1578 0
M  V30 35040 C 3185.06 0.810754 1.90353 0
M  V30 35041 C 3185.47 -0.635583 1.7778 0
M  V30 35042 O 3184.83 -1.43562 1.12677 0
M  V30 35043 C 3184.88 1.20436 3.40848 0
M  V30 35044 O 3184.6 2.59395 3.53052 0
M  V30 35045 C 3186.1 0.974549 4.32455 0
M  V30 35046 H 3183.32 0.293462 0.603424 0
M  V30 35047 H 3185.86 1.42455 1.4672 0
M  V30 35048 H 3184.02 0.634976 3.82161 0
M  V30 35049 H 3184.43 2.75333 4.46421 0
M  V30 35050 H 3185.91 1.29951 5.36485 0
M  V30 35051 H 3186.38 -0.0893709 4.39109 0
M  V30 35052 H 3186.99 1.52863 3.96879 0
M  V30 35053 N 3185.31 -1.32538 0.852723 0
M  V30 35054 C 3186.22 -2.3269 0.298785 0
M  V30 35055 C 3187.23 -1.63964 -0.582389 0
M  V30 35056 O 3188.41 -1.95517 -0.483219 0
M  V30 35057 C 3185.47 -3.42997 -0.505393 0
M  V30 35058 C 3184.53 -4.27417 0.401693 0
M  V30 35059 C 3183.77 -5.32456 -0.3642 0
M  V30 35060 O 3183.99 -5.47664 -1.59438 0
M  V30 35061 O 3182.92 -6.01299 0.268998 0
M  V30 35062 H 3186.75 -2.81956 1.12848 0
M  V30 35063 H 3184.33 -1.36127 0.615608 0
M  V30 35064 H 3186.22 -4.10275 -0.961902 0
M  V30 35065 H 3184.89 -2.95923 -1.31192 0
M  V30 35066 H 3183.8 -3.62955 0.906337 0
M  V30 35067 H 3185.13 -4.7801 1.17335 0
M  V30 35068 N 3186.78 -0.610474 -1.45296 0
M  V30 35069 C 3187.72 0.144843 -2.28742 0
M  V30 35070 C 3188.73 0.828953 -1.40115 0
M  V30 35071 O 3189.92 0.693858 -1.64462 0
M  V30 35072 C 3187.02 1.22626 -3.15937 0
M  V30 35073 C 3186.19 0.628709 -4.32858 0
M  V30 35074 C 3185.25 1.6014 -5.0124 0
M  V30 35075 O 3184.28 1.12657 -5.5794 0
M  V30 35076 N 3185.48 2.93581 -5.0079 0
M  V30 35077 H 3188.24 -0.571197 -2.94206 0
M  V30 35078 H 3185.8 -0.450162 -1.55516 0
M  V30 35079 H 3187.8 1.87685 -3.58548 0
M  V30 35080 H 3186.37 1.84479 -2.52361 0
M  V30 35081 H 3185.59 -0.200021 -3.93692 0
M  V30 35082 H 3186.87 0.209756 -5.08367 0
M  V30 35083 H 3186.27 3.34757 -4.5602 0
M  V30 35084 H 3184.83 3.54054 -5.47256 0
M  V30 35085 N 3188.26 1.53669 -0.349801 0
M  V30 35086 C 3189.68 1.596 0.00188487 0
M  V30 35087 C 3189.88 1.36554 1.48173 0
M  V30 35088 O 3188.93 1.16289 2.24127 0
M  V30 35089 C 3190.25 2.97465 -0.4399 0
M  V30 35090 C 3191.79 3.10526 -0.392775 0
M  V30 35091 C 3192.27 4.50778 -0.810126 0
M  V30 35092 N 3193.76 4.56847 -0.764559 0
M  V30 35093 C 3194.5 5.63529 -1.05937 0
M  V30 35094 N 3193.99 6.78036 -1.42265 0
M  V30 35095 N 3195.78 5.53434 -0.983195 0
M  V30 35096 H 3187.94 1.66902 -1.31367 0
M  V30 35097 H 3190.2 0.78198 -0.535922 0
M  V30 35098 H 3189.9 3.19416 -1.47195 0
M  V30 35099 H 3189.78 3.76762 0.181668 0
M  V30 35100 H 3192.17 2.88294 0.63011 0
M  V30 35101 H 3192.25 2.33273 -1.04963 0
M  V30 35102 H 3191.89 4.73746 -1.83105 0
M  V30 35103 H 3191.82 5.26438 -0.130683 0
M  V30 35104 H 3194.31 3.74622 -0.496703 0
M  V30 35105 H 3194.62 7.55365 -1.63228 0
M  V30 35106 H 3192.97 6.79467 -1.46116 0
M  V30 35107 H 3196.16 4.62856 -0.698682 0
M  V30 35108 H 3196.33 6.36483 -1.21629 0
M  V30 35109 N 3189.74 0.0785709 1.57404 0
M  V30 35110 C 3190.97 -0.597827 1.98075 0
M  V30 35111 C 3191.38 -1.62738 0.957169 0
M  V30 35112 O 3190.74 -1.82416 -0.0553407 0
M  V30 35113 C 3190.79 -1.26035 3.38818 0
M  V30 35114 O 3190.51 -0.271993 4.37255 0
M  V30 35115 C 3192.01 -2.02393 3.94401 0
M  V30 35116 H 3189.23 -0.161534 0.651266 0
M  V30 35117 H 3191.78 0.152977 2.03927 0
M  V30 35118 H 3189.93 -1.96219 3.34031 0
M  V30 35119 H 3190.35 -0.748129 5.19137 0
M  V30 35120 H 3191.82 -2.44131 4.9508 0
M  V30 35121 H 3192.3 -2.8832 3.31313 0
M  V30 35122 H 3192.9 -1.37061 4.0261 0
M  V30 35123 N 3191.22 -1.56389 -0.19503 0
M  V30 35124 C 3192.44 -1.85092 -0.935713 0
M  V30 35125 C 3192.87 -0.662149 -1.7606 0
M  V30 35126 O 3192.23 0.389052 -1.77076 0
M  V30 35127 C 3192.27 -3.12023 -1.80759 0
M  V30 35128 O 3191.38 -2.9258 -2.90638 0
M  V30 35129 H 3190.72 -0.609478 -0.2635 0
M  V30 35130 H 3193.25 -2.03617 -0.200326 0
M  V30 35131 H 3193.26 -3.42818 -2.21223 0
M  V30 35132 H 3191.93 -3.98167 -1.2015 0
M  V30 35133 H 3190.51 -2.73083 -2.53929 0
M  V30 35134 N 3192.7 0.462746 -1.50653 0
M  V30 35135 C 3193.92 1.24193 -1.66105 0
M  V30 35136 C 3194.35 1.84863 -0.347453 0
M  V30 35137 O 3193.7 1.67671 0.689643 0
M  V30 35138 C 3193.75 2.32032 -2.76031 0
M  V30 35139 O 3192.86 3.36889 -2.37865 0
M  V30 35140 H 3192.2 0.365005 -0.554678 0
M  V30 35141 H 3194.73 0.549699 -1.97077 0
M  V30 35142 H 3194.74 2.77215 -2.99359 0
M  V30 35143 H 3193.41 1.87247 -3.71364 0
M  V30 35144 H 3191.99 2.97359 -2.25016 0
M  V30 35145 N 3194.17 1.40371 0.716495 0
M  V30 35146 C 3195.12 1.40565 1.83058 0
M  V30 35147 C 3196.09 0.262726 1.64009 0
M  V30 35148 O 3197.28 0.460651 1.85156 0
M  V30 35149 C 3194.42 1.27312 3.20758 0
M  V30 35150 C 3193.53 2.51303 3.51384 0
M  V30 35151 C 3192.66 2.30499 4.78585 0
M  V30 35152 C 3191.7 3.5007 5.02113 0
M  V30 35153 N 3190.84 3.28468 6.20527 0
M  V30 35154 H 3195.68 2.35791 1.82227 0
M  V30 35155 H 3193.22 1.17108 0.890177 0
M  V30 35156 H 3195.18 1.17635 4.00272 0
M  V30 35157 H 3193.81 0.357061 3.20819 0
M  V30 35158 H 3192.86 2.71511 2.66432 0
M  V30 35159 H 3194.17 3.40308 3.6468 0
M  V30 35160 H 3193.32 2.1817 5.66115 0
M  V30 35161 H 3192.06 1.38917 4.67497 0
M  V30 35162 H 3191.07 3.62877 4.13038 0
M  V30 35163 H 3192.29 4.42578 5.15074 0
M  V30 35164 H 3190.24 2.39567 6.10691 0
M  V30 35165 H 3190.16 4.11038 6.34495 0
M  V30 35166 H 3191.42 3.1987 7.10847 0
M  V30 35167 N 3195.65 -0.948621 1.25853 0
M  V30 35168 C 3196.56 -2.07992 1.0852 0
M  V30 35169 C 3197.58 -1.73988 0.0207002 0
M  V30 35170 O 3198.75 -2.00163 0.222889 0
M  V30 35171 C 3195.82 -3.39306 0.712205 0
M  V30 35172 C 3194.88 -3.8714 1.8553 0
M  V30 35173 C 3194.11 -5.12187 1.50001 0
M  V30 35174 O 3194.34 -5.69007 0.398368 0
M  V30 35175 O 3193.27 -5.54878 2.33224 0
M  V30 35176 H 3197.1 -2.25519 2.03409 0
M  V30 35177 H 3194.68 -1.06431 1.04846 0
M  V30 35178 H 3196.56 -4.18222 0.516585 0
M  V30 35179 H 3195.24 -3.23035 -0.207359 0
M  V30 35180 H 3194.15 -3.09202 2.10583 0
M  V30 35181 H 3195.48 -4.07919 2.75433 0
M  V30 35182 N 3197.13 -1.07536 -1.15212 0
M  V30 35183 C 3198.36 -0.820917 -1.90462 0
M  V30 35184 C 3198.78 0.620274 -1.77579 0
M  V30 35185 O 3198.14 1.43364 -1.10979 0
M  V30 35186 C 3198.19 -1.23633 -3.38744 0
M  V30 35187 O 3197.29 -0.382788 -4.1062 0
M  V30 35188 H 3196.63 -0.298911 -0.592915 0
M  V30 35189 H 3199.16 -1.43447 -1.45891 0
M  V30 35190 H 3199.17 -1.21333 -3.89541 0
M  V30 35191 H 3197.85 -2.28602 -3.47439 0
M  V30 35192 H 3196.42 -0.468439 -3.69946 0
M  V30 35193 N 3198.61 1.32084 -0.85974 0
M  V30 35194 C 3199.83 2.01795 -0.478901 0
M  V30 35195 C 3200.26 1.64164 0.918246 0
M  V30 35196 O 3199.62 0.844924 1.60408 0
M  V30 35197 C 3199.66 3.55029 -0.631419 0
M  V30 35198 O 3198.77 4.11048 0.333639 0
M  V30 35199 H 3198.11 0.6357 -0.191786 0
M  V30 35200 H 3200.64 1.68515 -1.16034 0
M  V30 35201 H 3200.65 4.04662 -0.520854 0
M  V30 35202 H 3199.32 3.8176 -1.65022 0
M  V30 35203 H 3197.9 3.72471 0.178887 0
M  V30 35204 N 3200.09 0.618171 1.4497 0
M  V30 35205 C 3201.5 0.201367 1.85611 0
M  V30 35206 C 3201.85 -1.24424 1.51701 0
M  V30 35207 O 3200.97 -1.94492 0.948784 0
M  V30 35208 C 3201.57 0.358678 3.36896 0
M  V30 35209 C 3200.13 -0.0035158 3.764 0
M  V30 35210 C 3199.27 0.678165 2.6888 0
M  V30 35211 H 3202.23 0.824176 1.35621 0
M  V30 35212 H 3202.25 -0.406109 3.78327 0
M  V30 35213 H 3201.76 1.4109 3.61546 0
M  V30 35214 H 3199.86 -1.05451 3.57367 0
M  V30 35215 H 3199.97 0.397511 4.77448 0
M  V30 35216 H 3198.34 0.114744 2.54441 0
M  V30 35217 H 3199.12 1.73273 2.96364 0
M  V30 35218 N 3201.56 -1.53481 0.357946 0
M  V30 35219 C 3202.81 -2.00324 -0.235206 0
M  V30 35220 C 3203.13 -1.24946 -1.50492 0
M  V30 35221 O 3204.33 -1.62339 -2.1762 0
M  V30 35222 C 3202.79 -3.56822 -0.469685 0
M  V30 35223 C 3202.4 -4.4107 0.784955 0
M  V30 35224 C 3204.14 -4.12041 -1.02091 0
M  V30 35225 C 3202.05 -5.89105 0.520481 0
M  V30 35226 H 3200.98 -0.748407 -0.0916685 0
M  V30 35227 H 3203.63 -1.77232 0.475505 0
M  V30 35228 H 3202.01 -3.76037 -1.24146 0
M  V30 35229 H 3203.18 -4.33629 1.55894 0
M  V30 35230 H 3201.5 -3.96916 1.25885 0
M  V30 35231 H 3204.1 -5.20266 -1.23397 0
M  V30 35232 H 3204.44 -3.66157 -1.98077 0
M  V30 35233 H 3204.97 -3.96594 -0.309485 0
M  V30 35234 H 3201.71 -6.39251 1.45046 0
M  V30 35235 H 3201.23 -5.99414 -0.215148 0
M  V30 35236 H 3202.91 -6.46842 0.143119 0
M  V30 35237 N 3203.04 -0.0869173 -1.5736 0
M  V30 35238 C 3204.45 0.443467 -1.81357 0
M  V30 35239 C 3204.8 1.68687 -1.00195 0
M  V30 35240 O 3203.93 2.15186 -0.228901 0
M  V30 35241 C 3204.52 0.811329 -3.28942 0
M  V30 35242 C 3203.08 1.2865 -3.53732 0
M  V30 35243 C 3202.23 0.279104 -2.75892 0
M  V30 35244 H 3205.18 -0.312455 -1.55594 0
M  V30 35245 H 3205.2 1.67154 -3.41818 0
M  V30 35246 H 3204.71 -0.093828 -3.87987 0
M  V30 35247 H 3202.82 2.20964 -3.00009 0
M  V30 35248 H 3202.93 1.25398 -4.62398 0
M  V30 35249 H 3201.29 0.759552 -2.43111 0
M  V30 35250 H 3202.08 -0.618589 -3.37681 0
M  V30 35251 N 3204.52 1.5649 0.186734 0
M  V30 35252 C 3205.75 1.85586 0.925884 0
M  V30 35253 C 3206.17 0.671477 1.75707 0
M  V30 35254 O 3205.53 -0.379655 1.7728 0
M  V30 35255 C 3205.58 3.12978 1.79101 0
M  V30 35256 O 3204.68 2.94117 2.89082 0
M  V30 35257 H 3204.02 0.610867 0.260264 0
M  V30 35258 H 3206.55 2.0372 0.189525 0
M  V30 35259 H 3206.56 3.43987 2.19402 0
M  V30 35260 H 3205.24 3.98798 1.18037 0
M  V30 35261 H 3203.81 2.74426 2.52477 0
M  V30 35262 N 3206 -0.45475 1.50897 0
M  V30 35263 C 3207.41 -1.03517 1.55374 0
M  V30 35264 C 3207.76 -1.9274 0.366856 0
M  V30 35265 O 3206.89 -2.10099 -0.518407 0
M  V30 35266 C 3207.48 -1.88413 2.81578 0
M  V30 35267 C 3206.04 -2.41535 2.88683 0
M  V30 35268 C 3205.19 -1.20293 2.4985 0
M  V30 35269 H 3208.14 -0.236701 1.56925 0
M  V30 35270 H 3208.16 -2.73671 2.64357 0
M  V30 35271 H 3207.67 -1.23449 3.67943 0
M  V30 35272 H 3205.77 -3.10004 2.06708 0
M  V30 35273 H 3205.88 -2.75524 3.91948 0
M  V30 35274 H 3204.25 -1.54285 2.02653 0
M  V30 35275 H 3205.03 -0.569664 3.38541 0
M  V30 35276 N 3207.48 -1.40749 -0.709041 0
M  V30 35277 C 3208.7 -1.42709 -1.49805 0
M  V30 35278 C 3209.12 -0.0285906 -1.88778 0
M  V30 35279 O 3208.48 0.949008 -1.55885 0
M  V30 35280 C 3208.53 -2.32371 -2.76922 0
M  V30 35281 O 3208.25 -3.66777 -2.39595 0
M  V30 35282 C 3209.75 -2.42992 -3.70769 0
M  V30 35283 H 3206.97 -0.486526 -0.462097 0
M  V30 35284 H 3209.51 -1.84878 -0.874102 0
M  V30 35285 H 3207.67 -1.93547 -3.35586 0
M  V30 35286 H 3208.08 -4.14463 -3.21436 0
M  V30 35287 H 3209.56 -3.09924 -4.56784 0
M  V30 35288 H 3210.03 -1.45699 -4.14329 0
M  V30 35289 H 3210.64 -2.82395 -3.18014 0
M  V30 35290 N 3208.96 0.941933 -1.26354 0
M  V30 35291 C 3210.18 1.72774 -1.14734 0
M  V30 35292 C 3210.61 1.85792 0.293733 0
M  V30 35293 O 3209.96 1.34761 1.21281 0
M  V30 35294 C 3210.01 3.11274 -1.82046 0
M  V30 35295 O 3209.12 3.97216 -1.10874 0
M  V30 35296 H 3208.46 0.530123 -0.399832 0
M  V30 35297 H 3210.99 1.17978 -1.6716 0
M  V30 35298 H 3211 3.61668 -1.8884 0
M  V30 35299 H 3209.67 3.01115 -2.86884 0
M  V30 35300 H 3208.25 3.55667 -1.12051 0
M  V30 35301 N 3210.43 1.08146 1.1464 0
M  V30 35302 C 3211.71 0.722352 1.81773 0
M  V30 35303 C 3212.09 -0.79426 1.95588 0
M  V30 35304 O 3211.44 -1.71176 1.51364 0
M  V30 35305 C 3211.65 1.44617 3.17627 0
M  V30 35306 C 3213 1.6035 3.93158 0
M  V30 35307 O 3214.02 1.40761 3.27208 0
M  V30 35308 O 3212.88 1.92649 5.11418 0
M  V30 35309 H 3209.97 0.257992 0.785728 0
M  V30 35310 H 3212.52 1.18287 1.21681 0
M  V30 35311 H 3211.29 2.47946 3.02719 0
M  V30 35312 H 3210.91 0.97696 3.8541 0
M  V30 35313 N 3211.91 -1.31626 0.866732 0
M  V30 35314 C 3213.33 -1.4952 0.558214 0
M  V30 35315 C 3213.53 -1.79862 -0.908408 0
M  V30 35316 O 3212.58 -1.87534 -1.69077 0
M  V30 35317 C 3213.9 -2.63119 1.45563 0
M  V30 35318 C 3215.44 -2.77003 1.45733 0
M  V30 35319 C 3215.92 -3.93696 2.34024 0
M  V30 35320 N 3217.41 -4.00977 2.31886 0
M  V30 35321 C 3218.15 -4.90534 2.96924 0
M  V30 35322 N 3217.64 -5.85015 3.71119 0
M  V30 35323 N 3219.43 -4.83754 2.86249 0
M  V30 35324 H 3211.59 -1.102 1.81576 0
M  V30 35325 H 3213.85 -0.54423 0.77622 0
M  V30 35326 H 3213.55 -2.47464 2.49909 0
M  V30 35327 H 3213.43 -3.59184 1.15181 0
M  V30 35328 H 3215.82 -2.92075 0.42147 0
M  V30 35329 H 3215.9 -1.81615 1.80137 0
M  V30 35330 H 3215.54 -3.79383 3.37685 0
M  V30 35331 H 3215.47 -4.88385 1.96946 0
M  V30 35332 H 3217.96 -3.33378 1.77954 0
M  V30 35333 H 3218.27 -6.50073 4.17881 0
M  V30 35334 H 3216.62 -5.85004 3.75227 0
M  V30 35335 H 3219.81 -4.08917 2.27826 0
M  V30 35336 H 3219.98 -5.53344 3.37216 0
M  V30 35337 N 3213.39 -0.62585 -1.4464 0
M  V30 35338 C 3214.34 0.0822185 -2.30654 0
M  V30 35339 C 3215.31 0.842027 -1.43175 0
M  V30 35340 O 3216.49 0.824121 -1.72084 0
M  V30 35341 C 3213.63 1.0614 -3.28372 0
M  V30 35342 C 3212.74 0.300562 -4.30953 0
M  V30 35343 C 3211.88 1.27109 -5.15768 0
M  V30 35344 C 3210.92 0.499107 -6.10062 0
M  V30 35345 N 3210.06 1.41983 -6.87594 0
M  V30 35346 H 3214.9 -0.657213 -2.90663 0
M  V30 35347 H 3212.43 -0.335884 -1.43214 0
M  V30 35348 H 3214.39 1.64243 -3.8351 0
M  V30 35349 H 3213.02 1.76802 -2.70075 0
M  V30 35350 H 3212.07 -0.3963 -3.7833 0
M  V30 35351 H 3213.38 -0.300939 -4.97891 0
M  V30 35352 H 3212.54 1.92362 -5.75397 0
M  V30 35353 H 3211.28 1.90652 -4.48891 0
M  V30 35354 H 3210.28 -0.166944 -5.49546 0
M  V30 35355 H 3211.51 -0.131528 -6.78973 0
M  V30 35356 H 3209.45 2.04256 -6.2339 0
M  V30 35357 H 3209.37 0.872222 -7.50952 0
M  V30 35358 H 3210.64 2.06137 -7.5175 0
M  V30 35359 N 3214.87 1.53289 -0.36608 0
M  V30 35360 C 3215.83 2.24374 0.467865 0
M  V30 35361 C 3216.83 1.25178 1.00932 0
M  V30 35362 O 3218.02 1.49451 0.894989 0
M  V30 35363 C 3215.15 2.98087 1.65399 0
M  V30 35364 H 3216.35 2.99504 -0.154157 0
M  V30 35365 H 3213.9 1.55856 -0.117778 0
M  V30 35366 H 3214.63 2.27201 2.31409 0
M  V30 35367 H 3214.42 3.7087 1.2727 0
M  V30 35368 H 3215.91 3.52123 2.24497 0
M  V30 35369 N 3216.35 0.0952613 1.57312 0
M  V30 35370 C 3217.29 -0.86362 2.14033 0
M  V30 35371 C 3218.26 -1.27969 1.05892 0
M  V30 35372 O 3219.45 -1.36141 1.3368 0
M  V30 35373 C 3216.59 -2.11728 2.72517 0
M  V30 35374 C 3215.7 -1.75173 3.9489 0
M  V30 35375 C 3214.84 -2.95326 4.41538 0
M  V30 35376 C 3213.87 -2.54898 5.56501 0
M  V30 35377 N 3213.01 -3.67887 5.98 0
M  V30 35378 H 3217.85 -0.373063 2.95656 0
M  V30 35379 H 3215.39 -0.172472 1.46085 0
M  V30 35380 H 3217.35 -2.85147 3.04544 0
M  V30 35381 H 3215.98 -2.58283 1.93622 0
M  V30 35382 H 3215.03 -0.917215 3.69177 0
M  V30 35383 H 3216.34 -1.41446 4.78325 0
M  V30 35384 H 3215.49 -3.76999 4.75349 0
M  V30 35385 H 3214.23 -3.32263 3.57005 0
M  V30 35386 H 3213.24 -1.71653 5.22317 0
M  V30 35387 H 3214.46 -2.19105 6.42783 0
M  V30 35388 H 3212.41 -4.04542 5.16412 0
M  V30 35389 H 3212.33 -3.38006 6.76231 0
M  V30 35390 H 3213.59 -4.50069 6.36442 0
M  V30 35391 N 3217.82 -1.56587 -0.178432 0
M  V30 35392 C 3219.05 -1.85717 -0.911963 0
M  V30 35393 C 3219.47 -0.679797 -1.76137 0
M  V30 35394 O 3218.82 0.351234 -1.79088 0
M  V30 35395 C 3218.87 -3.13813 -1.79453 0
M  V30 35396 O 3218.6 -4.27012 -0.979401 0
M  V30 35397 C 3220.1 -3.5624 -2.63833 0
M  V30 35398 H 3217.32 -0.616331 -0.265288 0
M  V30 35399 H 3219.86 -2.037 -0.180669 0
M  V30 35400 H 3218.02 -2.97677 -2.47925 0
M  V30 35401 H 3218.43 -5.00062 -1.58235 0
M  V30 35402 H 3219.9 -4.48792 -3.21388 0
M  V30 35403 H 3220.38 -2.80019 -3.38358 0
M  V30 35404 H 3220.99 -3.74963 -2.00706 0
M  V30 35405 N 3219.3 0.446741 -1.51136 0
M  V30 35406 C 3220.26 1.52403 -1.7119 0
M  V30 35407 C 3221.26 1.49895 -0.582064 0
M  V30 35408 O 3222.45 1.52084 -0.849478 0
M  V30 35409 C 3219.59 2.91973 -1.75968 0
M  V30 35410 H 3220.78 1.35929 -2.67326 0
M  V30 35411 H 3218.33 0.674788 -1.40983 0
M  V30 35412 H 3219.07 3.13863 -0.81612 0
M  V30 35413 H 3218.85 2.95199 -2.5807 0
M  V30 35414 H 3220.34 3.70141 -1.93354 0
M  V30 35415 N 3220.78 1.41123 0.701567 0
M  V30 35416 C 3221.71 1.45265 1.82812 0
M  V30 35417 C 3222.69 0.311969 1.67215 0
M  V30 35418 O 3223.88 0.522571 1.87037 0
M  V30 35419 C 3221.01 1.32825 3.20897 0
M  V30 35420 C 3219.96 2.44642 3.5119 0
M  V30 35421 C 3219.29 2.17271 4.88567 0
M  V30 35422 C 3220.59 3.86985 3.5077 0
M  V30 35423 H 3222.28 2.39547 1.79604 0
M  V30 35424 H 3219.83 1.15299 0.862672 0
M  V30 35425 H 3221.78 1.34336 3.99414 0
M  V30 35426 H 3220.5 0.350248 3.24717 0
M  V30 35427 H 3219.16 2.42404 2.7502 0
M  V30 35428 H 3218.81 1.17828 4.89005 0
M  V30 35429 H 3218.51 2.92195 5.098 0
M  V30 35430 H 3220.03 2.20488 5.69401 0
M  V30 35431 H 3221.45 3.90971 4.19302 0
M  V30 35432 H 3219.84 4.61543 3.83534 0
M  V30 35433 H 3220.91 4.15566 2.49865 0
M  V30 35434 N 3222.26 -0.935219 1.26852 0
M  V30 35435 C 3223.67 -1.49695 1.11572 0
M  V30 35436 C 3224.02 -1.93863 -0.301918 0
M  V30 35437 O 3223.14 -1.80475 -1.19405 0
M  V30 35438 C 3223.74 -2.72053 2.01923 0
M  V30 35439 C 3222.3 -3.24474 1.90771 0
M  V30 35440 C 3221.45 -1.97233 1.94921 0
M  V30 35441 H 3224.4 -0.750092 1.39855 0
M  V30 35442 H 3224.42 -3.46571 1.57063 0
M  V30 35443 H 3223.93 -2.39875 3.05093 0
M  V30 35444 H 3222.03 -3.61428 0.905585 0
M  V30 35445 H 3222.14 -3.91177 2.76618 0
M  V30 35446 H 3220.51 -2.13395 1.39049 0
M  V30 35447 H 3221.29 -1.67379 2.99732 0
M  V30 35448 N 3223.74 -1.08752 -1.14065 0
M  V30 35449 C 3224.7 -0.724379 -2.17452 0
M  V30 35450 C 3225.7 0.242586 -1.5896 0
M  V30 35451 O 3226.89 0.0216702 -1.74187 0
M  V30 35452 C 3224.02 -0.0700835 -3.40828 0
M  V30 35453 H 3225.21 -1.63991 -2.51092 0
M  V30 35454 H 3222.77 -0.885835 -1.28774 0
M  V30 35455 H 3223.5 0.857006 -3.12771 0
M  V30 35456 H 3223.29 -0.765758 -3.8455 0
M  V30 35457 H 3224.78 0.168832 -4.17259 0
M  V30 35458 N 3225.21 1.31165 -0.873701 0
M  V30 35459 C 3226.15 2.27365 -0.289429 0
M  V30 35460 C 3227.16 1.53241 0.54964 0
M  V30 35461 O 3228.35 1.74601 0.371025 0
M  V30 35462 C 3225.45 3.33401 0.608011 0
M  V30 35463 C 3224.62 4.36945 -0.199456 0
M  V30 35464 C 3223.68 5.22455 0.626707 0
M  V30 35465 O 3222.71 5.69175 0.0534121 0
M  V30 35466 N 3223.91 5.47195 1.93799 0
M  V30 35467 H 3226.67 2.78141 -1.11615 0
M  V30 35468 H 3224.23 1.44226 -0.735555 0
M  V30 35469 H 3226.23 3.87524 1.16649 0
M  V30 35470 H 3224.8 2.82641 1.3354 0
M  V30 35471 H 3224.02 3.82844 -0.939383 0
M  V30 35472 H 3225.3 5.03191 -0.753379 0
M  V30 35473 H 3224.7 5.11 2.42684 0
M  V30 35474 H 3223.26 6.04238 2.44417 0
M  V30 35475 N 3226.69 0.633512 1.44307 0
M  V30 35476 C 3227.92 0.144384 2.06897 0
M  V30 35477 C 3228.34 -1.17297 1.47047 0
M  V30 35478 O 3227.7 -1.72012 0.572836 0
M  V30 35479 C 3227.75 0.0456957 3.60571 0
M  V30 35480 O 3226.85 -0.997612 4.00152 0
M  V30 35481 H 3226.19 0.0858614 0.658425 0
M  V30 35482 H 3228.72 0.870866 1.85141 0
M  V30 35483 H 3228.73 -0.144106 4.07745 0
M  V30 35484 H 3227.41 1.00747 4.03513 0
M  V30 35485 H 3225.99 -0.782188 3.64604 0
M  V30 35486 N 3228.17 -1.53093 0.374204 0
M  V30 35487 C 3229.13 -2.24619 -0.455959 0
M  V30 35488 C 3230.13 -1.25711 -1.00266 0
M  V30 35489 O 3231.32 -1.49923 -0.887051 0
M  V30 35490 C 3228.46 -2.9896 -1.63816 0
M  V30 35491 H 3229.65 -2.99418 0.170038 0
M  V30 35492 H 3227.2 -1.55791 0.126042 0
M  V30 35493 H 3227.94 -2.28425 -2.30201 0
M  V30 35494 H 3227.72 -3.7154 -1.25302 0
M  V30 35495 H 3229.21 -3.53309 -2.22626 0
M  V30 35496 N 3229.65 -0.103603 -1.57259 0
M  V30 35497 C 3230.61 0.837822 -2.13338 0
M  V30 35498 C 3231.61 1.2051 -1.06461 0
M  V30 35499 O 3232.8 1.13313 -1.32309 0
M  V30 35500 C 3229.93 2.13085 -2.66097 0
M  V30 35501 H 3231.13 0.350723 -2.97842 0
M  V30 35502 H 3228.68 0.145484 -1.55621 0
M  V30 35503 H 3229.41 2.6626 -1.85137 0
M  V30 35504 H 3229.2 1.87713 -3.44248 0
M  V30 35505 H 3230.69 2.80413 -3.09448 0
M  V30 35506 N 3231.13 1.56679 0.170126 0
M  V30 35507 C 3232.35 1.86198 0.902101 0
M  V30 35508 C 3232.77 0.689129 1.75774 0
M  V30 35509 O 3232.13 -0.341732 1.79272 0
M  V30 35510 C 3232.18 3.14761 1.77787 0
M  V30 35511 O 3231.9 4.27526 0.956742 0
M  V30 35512 C 3233.4 3.57634 2.6194 0
M  V30 35513 H 3230.62 0.617729 0.262016 0
M  V30 35514 H 3233.16 2.03793 0.169863 0
M  V30 35515 H 3231.32 2.98988 2.46343 0
M  V30 35516 H 3231.73 5.00894 1.55581 0
M  V30 35517 H 3233.21 4.5049 3.19003 0
M  V30 35518 H 3233.68 2.81809 3.36868 0
M  V30 35519 H 3234.29 3.76022 1.98714 0
M  V30 35520 N 3232.6 -0.43872 1.5137 0
M  V30 35521 C 3233.53 -1.53984 1.75531 0
M  V30 35522 C 3234.52 -1.58974 0.605095 0
M  V30 35523 O 3235.7 -1.74723 0.847664 0
M  V30 35524 C 3232.83 -2.92074 1.87909 0
M  V30 35525 C 3231.78 -3.01946 3.03336 0
M  V30 35526 C 3231.11 -4.42002 3.00896 0
M  V30 35527 C 3232.41 -2.76155 4.43323 0
M  V30 35528 H 3234.1 -1.34017 2.67731 0
M  V30 35529 H 3231.65 -0.643285 1.28833 0
M  V30 35530 H 3233.6 -3.69064 2.03395 0
M  V30 35531 H 3232.33 -3.13269 0.923569 0
M  V30 35532 H 3230.99 -2.27395 2.87553 0
M  V30 35533 H 3230.63 -4.60163 2.03124 0
M  V30 35534 H 3230.33 -4.49537 3.78405 0
M  V30 35535 H 3231.86 -5.20968 3.18473 0
M  V30 35536 H 3233.27 -3.42879 4.59464 0
M  V30 35537 H 3231.67 -2.95101 5.22528 0
M  V30 35538 H 3232.74 -1.71771 4.53456 0
M  V30 35539 N 3234.08 -1.41493 -0.694073 0
M  V30 35540 C 3235.49 -1.36473 -1.27405 0
M  V30 35541 C 3235.84 -0.0485554 -1.9614 0
M  V30 35542 O 3234.97 0.853153 -1.98872 0
M  V30 35543 C 3235.56 -2.47192 -2.31693 0
M  V30 35544 C 3234.12 -2.45564 -2.85263 0
M  V30 35545 C 3233.27 -2.26963 -1.59321 0
M  V30 35546 H 3236.22 -1.50987 -0.488729 0
M  V30 35547 H 3236.24 -2.16336 -3.13016 0
M  V30 35548 H 3235.75 -3.42971 -1.81638 0
M  V30 35549 H 3233.86 -1.53546 -3.39491 0
M  V30 35550 H 3233.97 -3.41928 -3.35592 0
M  V30 35551 H 3232.33 -1.74867 -1.85185 0
M  V30 35552 H 3233.12 -3.24771 -1.11259 0
M  V30 35553 N 3235.56 0.928479 -1.27346 0
M  V30 35554 C 3236.52 2.01053 -1.10047 0
M  V30 35555 C 3237.52 1.60738 -0.0447075 0
M  V30 35556 O 3238.71 1.71782 -0.289232 0
M  V30 35557 C 3235.85 3.34118 -0.676618 0
M  V30 35558 H 3237.04 2.17831 -2.0613 0
M  V30 35559 H 3234.59 1.10917 -1.10123 0
M  V30 35560 H 3235.33 3.2304 0.28564 0
M  V30 35561 H 3235.11 3.64736 -1.4391 0
M  V30 35562 H 3236.6 4.13583 -0.577797 0
M  V30 35563 N 3237.04 1.09355 1.13486 0
M  V30 35564 C 3238.45 0.82311 1.36737 0
M  V30 35565 C 3238.65 -0.562929 1.93477 0
M  V30 35566 O 3237.71 -1.31793 2.15376 0
M  V30 35567 C 3239.02 1.91375 2.3194 0
M  V30 35568 C 3240.57 1.9409 2.45557 0
M  V30 35569 C 3241.05 3.02295 3.44066 0
M  V30 35570 N 3242.54 3.0153 3.51616 0
M  V30 35571 C 3243.27 3.81897 4.27717 0
M  V30 35572 N 3242.77 4.7217 5.06979 0
M  V30 35573 N 3244.56 3.70159 4.23011 0
M  V30 35574 H 3236.71 1.98715 0.750085 0
M  V30 35575 H 3238.98 0.862907 0.392549 0
M  V30 35576 H 3238.68 2.91076 1.97403 0
M  V30 35577 H 3238.56 1.79136 3.31949 0
M  V30 35578 H 3240.94 0.950283 2.79381 0
M  V30 35579 H 3241.02 2.10406 1.45475 0
M  V30 35580 H 3240.67 4.01569 3.10974 0
M  V30 35581 H 3240.6 2.83222 4.43951 0
M  V30 35582 H 3243.09 2.36108 2.95061 0
M  V30 35583 H 3243.4 5.30077 5.62351 0
M  V30 35584 H 3241.75 4.76206 5.06214 0
M  V30 35585 H 3244.94 2.98995 3.60166 0
M  V30 35586 H 3245.11 4.3303 4.82067 0
M  V30 35587 N 3238.52 -1.307 0.880644 0
M  V30 35588 C 3239.75 -2.00472 0.511717 0
M  V30 35589 C 3240.16 -1.66041 -0.898654 0
M  V30 35590 O 3239.52 -0.895246 -1.59033 0
M  V30 35591 C 3239.57 -3.55203 0.671786 0
M  V30 35592 O 3239.29 -3.88406 2.02663 0
M  V30 35593 C 3240.79 -4.42248 0.305278 0
M  V30 35594 H 3238.01 -0.641047 0.198242 0
M  V30 35595 H 3240.55 -1.66685 1.18475 0
M  V30 35596 H 3238.71 -3.87372 0.0461747 0
M  V30 35597 H 3239.12 -4.83113 2.04211 0
M  V30 35598 H 3240.6 -5.50011 0.468192 0
M  V30 35599 H 3241.07 -4.32638 -0.75638 0
M  V30 35600 H 3241.68 -4.15515 0.907032 0
M  V30 35601 N 3240 -0.641156 -1.43969 0
M  V30 35602 C 3240.93 0.0962912 -2.28998 0
M  V30 35603 C 3241.94 0.799046 -1.41842 0
M  V30 35604 O 3243.13 0.658817 -1.65897 0
M  V30 35605 C 3240.23 1.15897 -3.18467 0
M  V30 35606 C 3239.4 0.536752 -4.34094 0
M  V30 35607 C 3238.46 1.49472 -5.04524 0
M  V30 35608 O 3237.49 1.00797 -5.60204 0
M  V30 35609 N 3238.69 2.82892 -5.06904 0
M  V30 35610 H 3241.45 -0.633474 -2.92929 0
M  V30 35611 H 3239.02 -0.483048 -1.54526 0
M  V30 35612 H 3241.01 1.80037 -3.62448 0
M  V30 35613 H 3239.58 1.79085 -2.56218 0
M  V30 35614 H 3238.8 -0.283483 -3.93179 0
M  V30 35615 H 3240.09 0.101877 -5.08698 0
M  V30 35616 H 3239.48 3.25009 -4.63018 0
M  V30 35617 H 3238.04 3.42366 -5.54643 0
M  V30 35618 N 3241.47 1.52892 -0.382318 0
M  V30 35619 C 3242.38 2.29972 0.463705 0
M  V30 35620 C 3243.4 1.36604 1.07774 0
M  V30 35621 O 3244.58 1.69671 1.08507 0
M  V30 35622 C 3241.64 3.08639 1.57932 0
M  V30 35623 C 3240.7 4.17703 0.991109 0
M  V30 35624 C 3239.93 4.9261 2.05356 0
M  V30 35625 O 3240.16 4.67538 3.26749 0
M  V30 35626 O 3239.09 5.78131 1.67477 0
M  V30 35627 H 3242.92 3.03257 -0.164016 0
M  V30 35628 H 3240.5 1.48683 -0.146225 0
M  V30 35629 H 3242.38 3.5771 2.22758 0
M  V30 35630 H 3241.06 2.38174 2.19214 0
M  V30 35631 H 3239.97 3.72844 0.306299 0
M  V30 35632 H 3241.3 4.90382 0.422613 0
M  V30 35633 N 3242.95 0.111941 1.57202 0
M  V30 35634 C 3244.18 -0.555678 1.99298 0
M  V30 35635 C 3244.59 -1.60671 0.991473 0
M  V30 35636 O 3243.95 -1.82492 -0.0166351 0
M  V30 35637 C 3244 -1.1882 3.41415 0
M  V30 35638 O 3243.72 -0.179184 4.37733 0
M  V30 35639 C 3245.22 -1.93982 3.98605 0
M  V30 35640 H 3242.44 -0.147684 0.654546 0
M  V30 35641 H 3244.99 0.196199 2.03557 0
M  V30 35642 H 3243.14 -1.8909 3.38118 0
M  V30 35643 H 3243.56 -0.637844 5.20607 0
M  V30 35644 H 3245.03 -2.33575 5.00147 0
M  V30 35645 H 3245.51 -2.81227 3.37354 0
M  V30 35646 H 3246.11 -1.2849 4.05426 0
M  V30 35647 N 3244.43 -1.56767 -0.161814 0
M  V30 35648 C 3245.84 -1.72118 -0.723354 0
M  V30 35649 C 3246.19 -0.723993 -1.82353 0
M  V30 35650 O 3245.32 0.112605 -2.16107 0
M  V30 35651 C 3245.91 -3.12075 -1.3189 0
M  V30 35652 C 3244.47 -3.29077 -1.82716 0
M  V30 35653 C 3243.62 -2.68061 -0.709816 0
M  V30 35654 H 3246.57 -1.58572 0.0636926 0
M  V30 35655 H 3246.59 -3.11252 -2.18866 0
M  V30 35656 H 3246.1 -3.84628 -0.517942 0
M  V30 35657 H 3244.2 -2.61496 -2.65425 0
M  V30 35658 H 3244.32 -4.36901 -1.96606 0
M  V30 35659 H 3242.68 -2.28128 -1.13269 0
M  V30 35660 H 3243.46 -3.43208 0.0794488 0
M  V30 35661 N 3245.91 0.430686 -1.51601 0
M  V30 35662 C 3247.13 1.20642 -1.68702 0
M  V30 35663 C 3247.56 1.84085 -0.386587 0
M  V30 35664 O 3246.92 1.69096 0.653923 0
M  V30 35665 C 3246.96 2.26125 -2.80891 0
M  V30 35666 O 3246.07 3.31767 -2.44957 0
M  V30 35667 H 3245.41 0.353157 -0.562295 0
M  V30 35668 H 3247.94 0.507772 -1.98199 0
M  V30 35669 H 3247.95 2.70803 -3.05172 0
M  V30 35670 H 3246.62 1.79327 -3.75253 0
M  V30 35671 H 3245.2 2.92519 -2.31273 0
M  V30 35672 N 3247.39 1.4186 0.686559 0
M  V30 35673 C 3248.35 1.44129 1.78212 0
M  V30 35674 C 3249.35 0.330569 1.57365 0
M  V30 35675 O 3250.54 0.590866 1.63873 0
M  V30 35676 C 3247.67 1.26147 3.16701 0
M  V30 35677 H 3248.86 2.41664 1.7759 0
M  V30 35678 H 3246.42 1.28134 0.895062 0
M  V30 35679 H 3247.15 0.294879 3.22957 0
M  V30 35680 H 3246.94 2.06632 3.33235 0
M  V30 35681 H 3248.43 1.30591 3.96656 0
M  V30 35682 N 3248.86 -0.921712 1.27837 0
M  V30 35683 C 3249.8 -2.02756 1.06877 0
M  V30 35684 C 3250.81 -1.62784 0.0229704 0
M  V30 35685 O 3252 -1.76519 0.265176 0
M  V30 35686 C 3249.1 -3.33539 0.600429 0
M  V30 35687 C 3248.27 -4.02169 1.71986 0
M  V30 35688 C 3247.33 -5.11229 1.24624 0
M  V30 35689 O 3246.36 -5.34864 1.94701 0
M  V30 35690 N 3247.56 -5.80405 0.105123 0
M  V30 35691 H 3250.32 -2.21297 2.02108 0
M  V30 35692 H 3247.88 -1.09249 1.19483 0
M  V30 35693 H 3249.88 -4.03816 0.267352 0
M  V30 35694 H 3248.45 -3.11527 -0.258817 0
M  V30 35695 H 3247.67 -3.25545 2.22292 0
M  V30 35696 H 3248.95 -4.44768 2.471 0
M  V30 35697 H 3248.35 -5.63663 -0.479646 0
M  V30 35698 H 3246.91 -6.51582 -0.168732 0
M  V30 35699 N 3250.34 -1.09956 -1.12905 0
M  V30 35700 C 3251.27 -0.687807 -2.17588 0
M  V30 35701 C 3252.25 0.308416 -1.59648 0
M  V30 35702 O 3253.44 0.208494 -1.87343 0
M  V30 35703 C 3250.56 -0.0141114 -3.38697 0
M  V30 35704 C 3249.61 -0.973015 -4.15253 0
M  V30 35705 S 3250.44 -2.48785 -4.742 0
M  V30 35706 C 3251.6 -1.82672 -5.9865 0
M  V30 35707 H 3251.83 -1.5746 -2.52178 0
M  V30 35708 H 3249.36 -0.916073 -1.24288 0
M  V30 35709 H 3251.32 0.368271 -4.08845 0
M  V30 35710 H 3249.98 0.849402 -3.02397 0
M  V30 35711 H 3249.18 -0.448803 -5.01998 0
M  V30 35712 H 3248.78 -1.29706 -3.50788 0
M  V30 35713 H 3251.07 -1.154 -6.676 0
M  V30 35714 H 3252.01 -2.67355 -6.55688 0
M  V30 35715 H 3252.42 -1.29334 -5.49484 0
M  V30 35716 N 3251.82 1.30231 -0.887563 0
M  V30 35717 C 3252.73 2.31816 -0.360374 0
M  V30 35718 C 3253.75 1.65451 0.538712 0
M  V30 35719 O 3254.92 1.9673 0.431211 0
M  V30 35720 C 3251.99 3.44216 0.414276 0
M  V30 35721 C 3251.05 4.26201 -0.514874 0
M  V30 35722 C 3250.28 5.33234 0.222901 0
M  V30 35723 O 3250.5 5.51699 1.44862 0
M  V30 35724 O 3249.44 6.00374 -0.428327 0
M  V30 35725 H 3253.26 2.78865 -1.20284 0
M  V30 35726 H 3250.85 1.34447 -0.651483 0
M  V30 35727 H 3252.73 4.12681 0.852787 0
M  V30 35728 H 3251.41 2.99297 1.233 0
M  V30 35729 H 3250.31 3.60424 -1.00225 0
M  V30 35730 H 3251.65 4.74731 -1.29967 0
M  V30 35731 N 3253.3 0.648782 1.43627 0
M  V30 35732 C 3254.55 0.160055 2.01465 0
M  V30 35733 C 3254.87 -1.22875 1.51415 0
M  V30 35734 O 3254.14 -1.81993 0.724951 0
M  V30 35735 H 3252.72 0.0561803 0.744884 0
M  V30 35736 H 3255.38 0.839453 1.75895 0
M  V30 35737 H 3254.48 0.141268 3.1178 0
M  V30 35738 N 3254.78 -1.52688 0.390421 0
M  V30 35739 C 3256.02 -2.01593 -0.19141 0
M  V30 35740 C 3256.35 -1.27684 -1.46721 0
M  V30 35741 O 3255.61 -0.366006 -1.92247 0
M  V30 35742 C 3255.91 -3.5382 -0.504618 0
M  V30 35743 C 3255.57 -4.45747 0.679769 0
M  V30 35744 C 3254.23 -4.70595 1.00469 0
M  V30 35745 C 3256.59 -4.9998 1.47207 0
M  V30 35746 C 3253.91 -5.46925 2.12343 0
M  V30 35747 C 3256.27 -5.77534 2.58143 0
M  V30 35748 C 3254.93 -6.0066 2.91142 0
M  V30 35749 H 3254.2 -0.737682 -0.0700418 0
M  V30 35750 H 3256.85 -1.84077 0.527998 0
M  V30 35751 H 3255.15 -3.69415 -1.30536 0
M  V30 35752 H 3256.85 -3.89155 -0.967455 0
M  V30 35753 H 3253.44 -4.26571 0.416521 0
M  V30 35754 H 3257.62 -4.80707 1.23429 0
M  V30 35755 H 3252.88 -5.63057 2.38279 0
M  V30 35756 H 3257.05 -6.18558 3.19936 0
M  V30 35757 H 3254.68 -6.59589 3.77949 0
M  V30 35758 N 3256.25 -0.120276 -1.5714 0
M  V30 35759 C 3257.18 0.826074 -2.18399 0
M  V30 35760 C 3258.17 1.27636 -1.12441 0
M  V30 35761 O 3259.35 1.33874 -1.40682 0
M  V30 35762 C 3256.48 2.07575 -2.78442 0
M  V30 35763 C 3255.43 1.76321 -3.89994 0
M  V30 35764 C 3254.76 3.08329 -4.3685 0
M  V30 35765 C 3256.06 1.03053 -5.12033 0
M  V30 35766 H 3257.75 0.315604 -2.97732 0
M  V30 35767 H 3255.3 0.150361 -1.43213 0
M  V30 35768 H 3257.25 2.74238 -3.19956 0
M  V30 35769 H 3255.98 2.60949 -1.964 0
M  V30 35770 H 3254.64 1.12047 -3.49057 0
M  V30 35771 H 3254.28 3.59639 -3.51665 0
M  V30 35772 H 3253.98 2.8819 -5.12075 0
M  V30 35773 H 3255.51 3.76107 -4.81015 0
M  V30 35774 H 3256.92 1.59871 -5.50558 0
M  V30 35775 H 3255.32 0.930042 -5.92849 0
M  V30 35776 H 3256.39 0.0174968 -4.84897 0
M  V30 35777 N 3257.73 1.56851 0.153498 0
M  V30 35778 C 3258.68 1.98715 1.20893 0
M  V30 35779 C 3259.67 0.878554 1.44837 0
M  V30 35780 O 3260.88 1.06372 1.45207 0
M  V30 35781 H 3257.26 0.632479 0.406785 0
M  V30 35782 H 3259.23 2.86651 0.829095 0
M  V30 35783 C 3257.98 2.3783 2.53638 0
M  V30 35784 H 3257.3 3.22683 2.36041 0
M  V30 35785 H 3258.74 2.70951 3.26131 0
M  V30 35786 C 3257.2 1.22847 3.13704 0
M  V30 35787 O 3257.73 0.525696 3.98245 0
M  V30 35788 N 3255.93 0.994398 2.73057 0
M  V30 35789 H 3255.48 1.56765 2.04408 0
M  V30 35790 H 3255.44 0.226939 3.1358 0
M  V30 35791 N 3259.21 -0.42264 1.51827 0
M  V30 35792 C 3260.63 -0.76025 1.40329 0
M  V30 35793 C 3260.83 -1.95271 0.497153 0
M  V30 35794 O 3259.88 -2.52465 -0.0421639 0
M  V30 35795 C 3261.2 -1.02684 2.82624 0
M  V30 35796 C 3262.74 -1.13038 2.91876 0
M  V30 35797 C 3263.22 -1.42982 4.35109 0
M  V30 35798 N 3264.71 -1.49876 4.38282 0
M  V30 35799 C 3265.44 -1.74645 5.46156 0
M  V30 35800 N 3264.94 -1.97109 6.64169 0
M  V30 35801 N 3266.73 -1.76549 5.33654 0
M  V30 35802 H 3258.88 0.362492 2.09284 0
M  V30 35803 H 3261.15 0.0998326 0.942729 0
M  V30 35804 H 3260.85 -0.223164 3.50991 0
M  V30 35805 H 3260.73 -1.95062 3.22848 0
M  V30 35806 H 3263.11 -1.92467 2.23697 0
M  V30 35807 H 3263.2 -0.185282 2.55128 0
M  V30 35808 H 3262.84 -0.64076 5.03842 0
M  V30 35809 H 3262.77 -2.38723 4.69382 0
M  V30 35810 H 3265.26 -1.3436 3.53208 0
M  V30 35811 H 3265.57 -2.15421 7.42168 0
M  V30 35812 H 3263.92 -1.94401 6.67258 0
M  V30 35813 H 3267.11 -1.58528 4.40439 0
M  V30 35814 H 3267.28 -1.95514 6.17801 0
M  V30 35815 N 3260.69 -1.42222 -0.679027 0
M  V30 35816 C 3261.64 -1.45369 -1.79267 0
M  V30 35817 C 3262.61 -0.306118 -1.63255 0
M  V30 35818 O 3263.79 -0.50958 -1.83869 0
M  V30 35819 C 3260.93 -1.35772 -3.1727 0
M  V30 35820 C 3260.04 -2.60531 -3.44598 0
M  V30 35821 C 3259.18 -2.43107 -4.72306 0
M  V30 35822 C 3258.22 -3.6326 -4.92655 0
M  V30 35823 N 3257.35 -3.44804 -6.116 0
M  V30 35824 H 3262.19 -2.40539 -1.75912 0
M  V30 35825 H 3259.73 -1.19427 -0.858815 0
M  V30 35826 H 3261.69 -1.28207 -3.97012 0
M  V30 35827 H 3260.32 -0.441995 -3.1976 0
M  V30 35828 H 3259.37 -2.7848 -2.59139 0
M  V30 35829 H 3260.68 -3.49857 -3.5553 0
M  V30 35830 H 3259.84 -2.33103 -5.60132 0
M  V30 35831 H 3258.58 -1.51263 -4.63649 0
M  V30 35832 H 3257.58 -3.737 -4.03272 0
M  V30 35833 H 3258.81 -4.56079 -5.03159 0
M  V30 35834 H 3256.75 -2.55674 -6.04125 0
M  V30 35835 H 3256.67 -4.27716 -6.23374 0
M  V30 35836 H 3257.94 -3.38604 -7.02116 0
M  V30 35837 N 3262.17 0.91492 -1.28324 0
M  V30 35838 C 3263.12 2.00371 -1.08791 0
M  V30 35839 C 3264.1 1.60896 -0.0119279 0
M  V30 35840 O 3265.29 1.75474 -0.231933 0
M  V30 35841 C 3262.42 3.34995 -0.750567 0
M  V30 35842 C 3261.51 3.80875 -1.86533 0
M  V30 35843 N 3261.9 3.99139 -3.10679 0
M  V30 35844 C 3260.2 4.10023 -1.75492 0
M  V30 35845 C 3260.9 4.3755 -3.83307 0
M  V30 35846 N 3259.87 4.45743 -3.11149 0
M  V30 35847 H 3263.68 2.1254 -2.02988 0
M  V30 35848 H 3261.19 1.10268 -1.19226 0
M  V30 35849 H 3263.19 4.12679 -0.591716 0
M  V30 35850 H 3261.85 3.2418 0.183639 0
M  V30 35851 H 3262.86 3.85091 -3.46302 0
M  V30 35852 H 3259.53 4.07851 -0.892411 0
M  V30 35853 H 3260.92 4.59654 -4.9007 0
M  V30 35854 N 3263.64 1.10553 1.1232 0
M  V30 35855 C 3264.55 0.767901 2.21676 0
M  V30 35856 C 3265.57 -0.235102 1.72404 0
M  V30 35857 O 3266.75 -0.0735558 2.01266 0
M  V30 35858 C 3263.81 0.20606 3.46087 0
M  V30 35859 C 3262.87 1.26649 4.10193 0
M  V30 35860 C 3262.11 0.731367 5.28665 0
M  V30 35861 O 3262.33 -0.44179 5.68687 0
M  V30 35862 O 3261.26 1.49186 5.83118 0
M  V30 35863 H 3265.09 1.68075 2.52952 0
M  V30 35864 H 3262.67 0.880749 1.20678 0
M  V30 35865 H 3264.56 -0.103361 4.21273 0
M  V30 35866 H 3263.23 -0.679629 3.16485 0
M  V30 35867 H 3262.14 1.62879 3.36781 0
M  V30 35868 H 3263.47 2.12524 4.43953 0
M  V30 35869 N 3265.12 -1.29758 0.894457 0
M  V30 35870 C 3266.37 -1.96431 0.527865 0
M  V30 35871 C 3266.72 -1.69263 -0.914763 0
M  V30 35872 O 3266.02 -0.992178 -1.6391 0
M  V30 35873 C 3266.21 -3.49434 0.750369 0
M  V30 35874 C 3266.04 -3.91476 2.21307 0
M  V30 35875 C 3264.81 -4.16606 2.8595 0
M  V30 35876 C 3267.01 -4.0359 3.18779 0
M  V30 35877 N 3264.99 -4.45177 4.22718 0
M  V30 35878 C 3266.36 -4.36152 4.40648 0
M  V30 35879 C 3268.42 -3.86047 3.14439 0
M  V30 35880 C 3267.12 -4.53001 5.58733 0
M  V30 35881 C 3269.14 -4.04103 4.31804 0
M  V30 35882 C 3268.51 -4.3702 5.52443 0
M  V30 35883 H 3264.61 -0.743395 0.242668 0
M  V30 35884 H 3267.19 -1.56802 1.15417 0
M  V30 35885 H 3265.36 -3.88097 0.153479 0
M  V30 35886 H 3267.09 -4.03186 0.349734 0
M  V30 35887 H 3263.85 -4.10167 2.3677 0
M  V30 35888 H 3264.27 -4.63581 4.93378 0
M  V30 35889 H 3268.91 -3.59666 2.22262 0
M  V30 35890 H 3266.63 -4.78221 6.51407 0
M  V30 35891 H 3270.22 -3.91987 4.29927 0
M  V30 35892 H 3269.1 -4.50701 6.41746 0
M  V30 35893 N 3266.6 -0.65639 -1.4328 0
M  V30 35894 C 3267.51 0.0338228 -2.34576 0
M  V30 35895 C 3268.53 0.808766 -1.54062 0
M  V30 35896 O 3269.7 0.755289 -1.86701 0
M  V30 35897 C 3266.77 0.986138 -3.3238 0
M  V30 35898 C 3265.83 0.207776 -4.28797 0
M  V30 35899 C 3265.06 1.11473 -5.21929 0
M  V30 35900 O 3265.28 2.35405 -5.19558 0
M  V30 35901 O 3264.22 0.58543 -5.99046 0
M  V30 35902 H 3268.04 -0.71772 -2.95097 0
M  V30 35903 H 3265.63 -0.416582 -1.43475 0
M  V30 35904 H 3267.51 1.53334 -3.92513 0
M  V30 35905 H 3266.19 1.71785 -2.74357 0
M  V30 35906 H 3265.09 -0.383088 -3.72133 0
M  V30 35907 H 3266.43 -0.484436 -4.8981 0
M  V30 35908 N 3268.08 1.52478 -0.398513 0
M  V30 35909 C 3269.04 2.25316 0.420167 0
M  V30 35910 C 3270.04 1.2729 0.982537 0
M  V30 35911 O 3271.23 1.51316 0.863087 0
M  V30 35912 C 3268.36 3.01528 1.59039 0
M  V30 35913 H 3269.56 2.99109 -0.217652 0
M  V30 35914 H 3267.11 1.55571 -0.150811 0
M  V30 35915 H 3267.85 2.32058 2.26538 0
M  V30 35916 H 3267.63 3.73486 1.19375 0
M  V30 35917 H 3269.12 3.56806 2.16977 0
M  V30 35918 N 3269.56 0.128608 1.57074 0
M  V30 35919 C 3270.51 -0.829381 2.1238 0
M  V30 35920 C 3271.49 -1.22179 1.04696 0
M  V30 35921 O 3272.68 -1.19127 1.30911 0
M  V30 35922 C 3269.81 -2.07571 2.7344 0
M  V30 35923 C 3268.9 -1.70723 3.8822 0
M  V30 35924 N 3269.29 -1.046 4.94866 0
M  V30 35925 C 3267.59 -2.00118 3.98583 0
M  V30 35926 C 3268.29 -0.871036 5.75142 0
M  V30 35927 N 3267.26 -1.39909 5.25287 0
M  V30 35928 H 3271.07 -0.314765 2.9221 0
M  V30 35929 H 3268.58 -0.0735503 1.62233 0
M  V30 35930 H 3270.58 -2.7718 3.11411 0
M  V30 35931 H 3269.24 -2.59567 1.95077 0
M  V30 35932 H 3270.25 -0.708871 5.13026 0
M  V30 35933 H 3266.93 -2.54094 3.31274 0
M  V30 35934 H 3268.32 -0.351278 6.70981 0
M  V30 35935 N 3271.04 -1.5693 -0.145178 0
M  V30 35936 C 3271.98 -1.99354 -1.19837 0
M  V30 35937 C 3272.98 -0.886223 -1.44369 0
M  V30 35938 O 3274.18 -1.07141 -1.4464 0
M  V30 35939 H 3270.56 -0.634627 -0.403425 0
M  V30 35940 H 3272.53 -2.87086 -0.813882 0
M  V30 35941 C 3271.28 -2.39172 -2.52373 0
M  V30 35942 H 3270.6 -3.23931 -2.34327 0
M  V30 35943 H 3272.04 -2.72677 -3.24689 0
M  V30 35944 C 3270.5 -1.24509 -3.13048 0
M  V30 35945 O 3271.03 -0.546809 -3.97961 0
M  V30 35946 N 3269.24 -1.00886 -2.72526 0
M  V30 35947 H 3268.78 -1.57847 -2.03573 0
M  V30 35948 H 3268.74 -0.243565 -3.13455 0
M  V30 35949 N 3272.51 0.414582 -1.52049 0
M  V30 35950 C 3273.46 1.50477 -1.75001 0
M  V30 35951 C 3274.43 1.55181 -0.592278 0
M  V30 35952 O 3275.62 1.71838 -0.829234 0
M  V30 35953 C 3272.76 2.8798 -1.90162 0
M  V30 35954 C 3271.87 2.92627 -3.17794 0
M  V30 35955 C 3271 4.21395 -3.23419 0
M  V30 35956 C 3270.04 4.19996 -4.45275 0
M  V30 35957 N 3269.18 5.40326 -4.48321 0
M  V30 35958 H 3274.02 1.30208 -2.68048 0
M  V30 35959 H 3271.56 0.632131 -1.32825 0
M  V30 35960 H 3273.51 3.67794 -1.96935 0
M  V30 35961 H 3272.14 3.06756 -1.00501 0
M  V30 35962 H 3271.2 2.05338 -3.2022 0
M  V30 35963 H 3272.51 2.87458 -4.07639 0
M  V30 35964 H 3271.66 5.09598 -3.29233 0
M  V30 35965 H 3270.4 4.29252 -2.31503 0
M  V30 35966 H 3269.41 3.30184 -4.39612 0
M  V30 35967 H 3270.63 4.13784 -5.38479 0
M  V30 35968 H 3268.58 5.48862 -3.59286 0
M  V30 35969 H 3268.49 5.37129 -5.32004 0
M  V30 35970 H 3269.76 6.30498 -4.58359 0
M  V30 35971 N 3273.99 1.4258 0.671475 0
M  V30 35972 C 3274.94 1.46317 1.78493 0
M  V30 35973 C 3275.91 0.314771 1.6309 0
M  V30 35974 O 3277.09 0.519324 1.83596 0
M  V30 35975 C 3274.23 1.37453 3.16545 0
M  V30 35976 C 3273.35 2.62354 3.43211 0
M  V30 35977 C 3272.48 2.45608 4.7101 0
M  V30 35978 C 3271.52 3.65867 4.90721 0
M  V30 35979 N 3270.66 3.48043 6.09763 0
M  V30 35980 H 3275.5 2.41469 1.74633 0
M  V30 35981 H 3273.03 1.19881 0.85247 0
M  V30 35982 H 3274.99 1.3031 3.96327 0
M  V30 35983 H 3273.62 0.458947 3.19521 0
M  V30 35984 H 3272.67 2.7985 2.57659 0
M  V30 35985 H 3273.99 3.51738 3.53669 0
M  V30 35986 H 3273.14 2.3607 5.58888 0
M  V30 35987 H 3271.88 1.5372 4.62841 0
M  V30 35988 H 3270.88 3.75834 4.01284 0
M  V30 35989 H 3272.11 4.58741 5.00733 0
M  V30 35990 H 3270.06 2.58874 6.0276 0
M  V30 35991 H 3269.97 4.31016 6.21097 0
M  V30 35992 H 3271.24 3.42323 7.00311 0
M  V30 35993 N 3275.47 -0.908102 1.28807 0
M  V30 35994 C 3276.43 -1.99277 1.13231 0
M  V30 35995 C 3277.43 -1.60646 0.0702739 0
M  V30 35996 O 3278.62 -1.713 0.316524 0
M  V30 35997 C 3275.75 -3.32999 0.729688 0
M  V30 35998 H 3276.95 -2.14524 2.0957 0
M  V30 35999 H 3274.5 -1.09151 1.11874 0
M  V30 36000 H 3275.24 -3.23453 -0.234211 0
M  V30 36001 H 3275.02 -3.624 1.49694 0
M  V30 36002 H 3276.51 -4.12612 0.643522 0
M  V30 36003 N 3276.95 -1.11147 -1.11732 0
M  V30 36004 C 3278.17 -0.881095 -1.87754 0
M  V30 36005 C 3278.6 0.563465 -1.79462 0
M  V30 36006 O 3277.96 1.39761 -1.15484 0
M  V30 36007 C 3278 -1.34347 -3.34639 0
M  V30 36008 O 3277.11 -0.513229 -4.09194 0
M  V30 36009 H 3276.45 -0.317623 -0.583105 0
M  V30 36010 H 3278.98 -1.48016 -1.41253 0
M  V30 36011 H 3278.99 -1.33665 -3.85484 0
M  V30 36012 H 3277.66 -2.3954 -3.3999 0
M  V30 36013 H 3276.24 -0.585897 -3.68268 0
M  V30 36014 N 3278.43 1.29282 -0.901326 0
M  V30 36015 C 3279.65 2.00169 -0.542858 0
M  V30 36016 C 3280.08 1.67002 0.865553 0
M  V30 36017 O 3279.43 0.895529 1.57639 0
M  V30 36018 C 3279.48 3.5284 -0.744049 0
M  V30 36019 O 3278.59 4.11902 0.202699 0
M  V30 36020 H 3277.93 0.629276 -0.211914 0
M  V30 36021 H 3280.46 1.64738 -1.21336 0
M  V30 36022 H 3280.47 4.028 -0.64933 0
M  V30 36023 H 3279.14 3.76316 -1.77084 0
M  V30 36024 H 3277.72 3.72851 0.0602982 0
M  V30 36025 N 3279.9 0.663979 1.4293 0
M  V30 36026 C 3281.32 0.332523 1.56098 0
M  V30 36027 C 3281.52 -1.16276 1.64567 0
M  V30 36028 O 3280.58 -1.94791 1.60664 0
M  V30 36029 C 3281.89 1.05334 2.81648 0
M  V30 36030 C 3283.44 1.03462 2.95406 0
M  V30 36031 C 3283.91 1.73654 4.23802 0
M  V30 36032 N 3285.4 1.7047 4.3069 0
M  V30 36033 C 3286.14 2.21647 5.28829 0
M  V30 36034 N 3285.63 2.81158 6.33184 0
M  V30 36035 N 3287.43 2.12084 5.20554 0
M  V30 36036 H 3279.58 1.63418 1.35677 0
M  V30 36037 H 3281.84 0.687855 0.652349 0
M  V30 36038 H 3281.55 2.10847 2.8149 0
M  V30 36039 H 3281.42 0.611691 3.72207 0
M  V30 36040 H 3283.81 -0.0121417 2.95098 0
M  V30 36041 H 3283.89 1.51505 2.06106 0
M  V30 36042 H 3283.53 2.78293 4.24871 0
M  V30 36043 H 3283.46 1.23069 5.12017 0
M  V30 36044 H 3285.95 1.27052 3.55902 0
M  V30 36045 H 3286.27 3.17857 7.04405 0
M  V30 36046 H 3284.61 2.85223 6.33776 0
M  V30 36047 H 3287.8 1.65287 4.37947 0
M  V30 36048 H 3287.98 2.52275 5.96876 0
M  V30 36049 N 3281.38 -1.52265 0.406593 0
M  V30 36050 C 3282.61 -2.06685 -0.172065 0
M  V30 36051 C 3283.03 -1.2749 -1.38303 0
M  V30 36052 O 3282.39 -0.304473 -1.78725 0
M  V30 36053 C 3282.44 -3.57069 -0.5034 0
M  V30 36054 O 3281.54 -3.80316 -1.59478 0
M  V30 36055 H 3280.88 -0.663823 -0.0153092 0
M  V30 36056 H 3283.41 -1.96235 0.57906 0
M  V30 36057 H 3283.42 -4.00807 -0.762763 0
M  V30 36058 H 3282.1 -4.14143 0.381848 0
M  V30 36059 H 3280.67 -3.4846 -1.32778 0
M  V30 36060 N 3282.86 -0.136936 -1.57004 0
M  V30 36061 C 3284.11 0.511102 -1.96874 0
M  V30 36062 C 3284.46 1.63135 -1.02004 0
M  V30 36063 O 3283.75 1.91526 -0.0532475 0
M  V30 36064 C 3283.95 1.07325 -3.40905 0
M  V30 36065 C 3283.78 0.00900208 -4.49699 0
M  V30 36066 C 3282.55 -0.428979 -5.03476 0
M  V30 36067 C 3284.75 -0.77872 -5.0837 0
M  V30 36068 N 3282.73 -1.47713 -5.95864 0
M  V30 36069 C 3284.1 -1.67761 -5.96872 0
M  V30 36070 C 3286.15 -0.827625 -4.90973 0
M  V30 36071 C 3284.86 -2.62119 -6.6984 0
M  V30 36072 C 3286.88 -1.75899 -5.64636 0
M  V30 36073 C 3286.24 -2.64543 -6.52837 0
M  V30 36074 H 3282.34 0.156127 -0.766256 0
M  V30 36075 H 3284.93 -0.22921 -1.93346 0
M  V30 36076 H 3283.1 1.78321 -3.45045 0
M  V30 36077 H 3284.83 1.68708 -3.67858 0
M  V30 36078 H 3281.59 -0.0331432 -4.73588 0
M  V30 36079 H 3282.01 -2.00066 -6.46763 0
M  V30 36080 H 3286.65 -0.156393 -4.22511 0
M  V30 36081 H 3284.37 -3.30248 -7.37538 0
M  V30 36082 H 3287.96 -1.8025 -5.53174 0
M  V30 36083 H 3286.84 -3.35439 -7.08837 0
M  V30 36084 N 3284.34 1.57005 0.136853 0
M  V30 36085 C 3285.29 1.95447 1.17408 0
M  V30 36086 C 3286.27 0.827039 1.38018 0
M  V30 36087 O 3287.46 1.09059 1.3941 0
M  V30 36088 C 3284.59 2.34722 2.50521 0
M  V30 36089 C 3283.68 3.54058 2.33461 0
M  V30 36090 N 3284.07 4.70289 1.86176 0
M  V30 36091 C 3282.37 3.59341 2.64178 0
M  V30 36092 C 3283.07 5.52363 1.82401 0
M  V30 36093 N 3282.05 4.94352 2.2609 0
M  V30 36094 H 3285.85 2.82781 0.80075 0
M  V30 36095 H 3283.36 1.58697 0.344803 0
M  V30 36096 H 3285.36 2.60471 3.25516 0
M  V30 36097 H 3284.02 1.48743 2.88627 0
M  V30 36098 H 3285.03 4.9385 1.55989 0
M  V30 36099 H 3281.71 2.83927 3.06091 0
M  V30 36100 H 3283.1 6.55567 1.47248 0
M  V30 36101 N 3285.82 -0.406513 1.52267 0
M  V30 36102 C 3286.76 -1.51597 1.76412 0
M  V30 36103 C 3287.76 -1.57196 0.631338 0
M  V30 36104 O 3288.96 -1.60571 0.813441 0
M  V30 36105 H 3285.34 -0.50422 0.557913 0
M  V30 36106 H 3287.31 -1.28419 2.69353 0
M  V30 36107 C 3286.06 -2.88936 1.9342 0
M  V30 36108 H 3285.38 -2.85372 2.80005 0
M  V30 36109 H 3286.82 -3.6585 2.14312 0
M  V30 36110 C 3285.28 -3.29505 0.701996 0
M  V30 36111 O 3285.81 -4.01493 -0.128895 0
M  V30 36112 N 3284.02 -2.85593 0.53714 0
M  V30 36113 H 3283.56 -2.27179 1.21439 0
M  V30 36114 H 3283.52 -3.13096 -0.286 0
M  V30 36115 N 3287.29 -1.42934 -0.663904 0
M  V30 36116 C 3288.54 -1.44197 -1.42601 0
M  V30 36117 C 3288.87 -0.0620626 -1.94101 0
M  V30 36118 O 3288.15 0.91543 -1.7161 0
M  V30 36119 C 3288.43 -2.47549 -2.61518 0
M  V30 36120 C 3288.28 -3.94773 -2.1558 0
M  V30 36121 C 3289.6 -2.47759 -3.63736 0
M  V30 36122 H 3286.72 -0.525065 -0.51718 0
M  V30 36123 H 3289.36 -1.74417 -0.75358 0
M  V30 36124 H 3287.51 -2.2191 -3.18886 0
M  V30 36125 H 3289.19 -4.31431 -1.63295 0
M  V30 36126 H 3287.43 -4.08116 -1.4705 0
M  V30 36127 H 3288.1 -4.62683 -3.01045 0
M  V30 36128 H 3290.58 -2.70585 -3.16106 0
M  V30 36129 H 3289.45 -3.22033 -4.44506 0
M  V30 36130 H 3289.71 -1.50749 -4.15605 0
M  V30 36131 N 3288.77 0.901258 -1.29287 0
M  V30 36132 C 3290 1.68265 -1.19877 0
M  V30 36133 C 3290.41 1.87628 0.243354 0
M  V30 36134 O 3289.75 1.41211 1.17495 0
M  V30 36135 C 3289.82 3.08896 -1.83912 0
M  V30 36136 C 3289.48 3.12769 -3.33203 0
M  V30 36137 C 3290.48 2.93032 -4.29451 0
M  V30 36138 C 3288.16 3.34885 -3.74376 0
M  V30 36139 C 3290.16 2.95342 -5.64847 0
M  V30 36140 C 3287.84 3.36825 -5.09894 0
M  V30 36141 C 3288.84 3.17076 -6.0494 0
M  V30 36142 O 3288.53 3.18802 -7.37984 0
M  V30 36143 H 3288.26 0.532364 -0.41661 0
M  V30 36144 H 3290.81 1.13555 -1.71156 0
M  V30 36145 H 3289.04 3.65201 -1.27142 0
M  V30 36146 H 3290.73 3.69115 -1.68846 0
M  V30 36147 H 3291.5 2.7576 -3.98975 0
M  V30 36148 H 3287.38 3.49298 -3.00852 0
M  V30 36149 H 3290.92 2.79845 -6.39009 0
M  V30 36150 H 3286.82 3.53629 -5.40016 0
M  V30 36151 H 3287.59 3.35079 -7.46769 0
M  V30 36152 N 3290.25 1.11738 1.11141 0
M  V30 36153 C 3291.49 0.878151 1.84575 0
M  V30 36154 C 3291.85 -0.585573 1.82853 0
M  V30 36155 O 3293.06 -0.941688 2.51765 0
M  V30 36156 C 3291.33 1.42816 3.27625 0
M  V30 36157 S 3292.89 1.32637 4.18274 0
M  V30 36158 H 3289.7 0.316969 0.636437 0
M  V30 36159 H 3292.31 1.42548 1.33792 0
M  V30 36160 H 3291.01 2.4872 3.26445 0
M  V30 36161 H 3290.54 0.877993 3.83477 0
M  V30 36162 H 3292.56 0.292965 4.95334 0
M  V30 36163 N 3291.73 -1.28802 0.90817 0
M  V30 36164 C 3292.97 -1.955 0.539236 0
M  V30 36165 C 3293.31 -1.71361 -0.913728 0
M  V30 36166 O 3292.58 -1.03139 -1.64902 0
M  V30 36167 C 3292.87 -3.50107 0.842433 0
M  V30 36168 C 3292.72 -3.83669 2.34772 0
M  V30 36169 C 3294.04 -4.38825 0.334736 0
M  V30 36170 H 3291.16 -0.710076 0.197385 0
M  V30 36171 H 3293.8 -1.5227 1.1364 0
M  V30 36172 H 3291.95 -3.8706 0.334211 0
M  V30 36173 H 3293.62 -3.56616 2.92613 0
M  V30 36174 H 3291.86 -3.30912 2.805 0
M  V30 36175 H 3292.53 -4.91611 2.51042 0
M  V30 36176 H 3295.01 -4.08913 0.770033 0
M  V30 36177 H 3293.89 -5.45869 0.57601 0
M  V30 36178 H 3294.15 -4.35434 -0.764801 0
M  V30 36179 N 3293.21 -0.67155 -1.42576 0
M  V30 36180 C 3294.46 -0.189698 -2.00806 0
M  V30 36181 C 3294.77 1.20975 -1.53702 0
M  V30 36182 O 3295.97 1.7878 -2.04328 0
M  V30 36183 C 3294.43 -0.28829 -3.58743 0
M  V30 36184 C 3294.04 -1.69159 -4.14836 0
M  V30 36185 C 3295.78 0.135016 -4.24285 0
M  V30 36186 C 3293.69 -1.74312 -5.65128 0
M  V30 36187 H 3292.62 -0.0671592 -0.751003 0
M  V30 36188 H 3295.27 -0.836259 -1.63337 0
M  V30 36189 H 3293.65 0.426106 -3.93701 0
M  V30 36190 H 3294.83 -2.43281 -3.91345 0
M  V30 36191 H 3293.14 -2.06246 -3.61734 0
M  V30 36192 H 3295.74 0.116615 -5.34573 0
M  V30 36193 H 3296.08 1.1697 -3.99529 0
M  V30 36194 H 3296.61 -0.52826 -3.94277 0
M  V30 36195 H 3293.35 -2.75752 -5.94677 0
M  V30 36196 H 3292.87 -1.04542 -5.90619 0
M  V30 36197 H 3294.55 -1.4951 -6.29489 0
M  V30 36198 N 3294.68 1.52047 -0.414663 0
M  V30 36199 C 3295.63 2.28726 0.422725 0
M  V30 36200 C 3296.63 1.33642 1.04097 0
M  V30 36201 O 3297.83 1.51079 0.978532 0
M  V30 36202 H 3294.21 0.735829 0.15511 0
M  V30 36203 H 3296.18 2.97391 -0.245143 0
M  V30 36204 C 3294.93 3.12515 1.52412 0
M  V30 36205 H 3294.25 3.85554 1.05774 0
M  V30 36206 H 3295.69 3.69264 2.08375 0
M  V30 36207 C 3294.15 2.26431 2.49461 0
M  V30 36208 O 3294.68 1.90835 3.53476 0
M  V30 36209 N 3292.89 1.90092 2.19803 0
M  V30 36210 H 3292.43 2.19239 1.35249 0
M  V30 36211 H 3292.39 1.32788 2.84982 0
M  V30 36212 N 3296.16 0.145261 1.56929 0
M  V30 36213 C 3297.11 -0.812198 2.17959 0
M  V30 36214 C 3298.1 -1.25655 1.1361 0
M  V30 36215 O 3299.31 -1.22523 1.31864 0
M  V30 36216 H 3295.69 -0.280118 0.697881 0
M  V30 36217 H 3297.66 -0.273245 2.97146 0
M  V30 36218 C 3296.41 -2.04198 2.81422 0
M  V30 36219 H 3295.73 -1.70905 3.6143 0
M  V30 36220 H 3297.17 -2.69138 3.27629 0
M  V30 36221 C 3295.63 -2.84885 1.7984 0
M  V30 36222 O 3296.16 -3.81169 1.2678 0
M  V30 36223 N 3294.36 -2.49385 1.49183 0
M  V30 36224 H 3293.91 -1.71151 1.92523 0
M  V30 36225 H 3293.87 -3.03663 0.814633 0
M  V30 36226 N 3297.64 -1.57075 -0.128525 0
M  V30 36227 C 3298.57 -1.96275 -1.18359 0
M  V30 36228 C 3299.59 -0.860842 -1.38179 0
M  V30 36229 O 3300.78 -1.13918 -1.37422 0
M  V30 36230 C 3297.88 -2.23759 -2.54529 0
M  V30 36231 C 3297.05 -3.55062 -2.5544 0
M  V30 36232 C 3296.11 -3.70871 -3.73285 0
M  V30 36233 O 3295.13 -4.4308 -3.57308 0
M  V30 36234 N 3296.34 -3.08921 -4.91475 0
M  V30 36235 H 3299.1 -2.87387 -0.850225 0
M  V30 36236 H 3296.66 -1.58748 -0.317904 0
M  V30 36237 H 3298.65 -2.31559 -3.31908 0
M  V30 36238 H 3297.22 -1.38821 -2.80085 0
M  V30 36239 H 3296.44 -3.58537 -1.63844 0
M  V30 36240 H 3297.73 -4.41384 -2.53096 0
M  V30 36241 H 3297.13 -2.50205 -5.0736 0
M  V30 36242 H 3295.69 -3.22255 -5.66564 0
M  V30 36243 N 3299.12 0.398432 -1.5248 0
M  V30 36244 C 3300.03 1.51059 -1.79495 0
M  V30 36245 C 3301.05 1.60114 -0.681129 0
M  V30 36246 O 3302.22 1.76628 -0.967702 0
M  V30 36247 C 3299.29 2.86689 -1.94963 0
M  V30 36248 C 3298.35 2.87432 -3.18875 0
M  V30 36249 C 3297.58 4.16593 -3.33595 0
M  V30 36250 O 3297.8 5.11055 -2.53336 0
M  V30 36251 O 3296.74 4.24409 -4.26803 0
M  V30 36252 H 3300.56 1.31165 -2.73915 0
M  V30 36253 H 3298.15 0.585347 -1.37456 0
M  V30 36254 H 3300.03 3.67112 -2.06898 0
M  V30 36255 H 3298.71 3.06629 -1.03731 0
M  V30 36256 H 3297.61 2.05824 -3.12389 0
M  V30 36257 H 3298.95 2.72443 -4.09922 0
M  V30 36258 N 3300.6 1.43284 0.656314 0
M  V30 36259 C 3301.53 1.42649 1.78119 0
M  V30 36260 C 3302.51 0.288329 1.60023 0
M  V30 36261 O 3303.69 0.481439 1.82248 0
M  V30 36262 C 3300.82 1.2351 3.15377 0
M  V30 36263 C 3299.87 2.40562 3.52182 0
M  V30 36264 S 3300.7 4.03111 3.52508 0
M  V30 36265 C 3301.85 3.86349 4.92428 0
M  V30 36266 H 3302.09 2.37835 1.78387 0
M  V30 36267 H 3299.62 1.30278 0.828676 0
M  V30 36268 H 3301.58 1.13155 3.94596 0
M  V30 36269 H 3300.24 0.298781 3.12676 0
M  V30 36270 H 3299.43 2.22967 4.51998 0
M  V30 36271 H 3299.03 2.47527 2.80368 0
M  V30 36272 H 3301.33 3.48482 5.81005 0
M  V30 36273 H 3302.27 4.85906 5.15074 0
M  V30 36274 H 3302.68 3.18865 4.65817 0
M  V30 36275 N 3302.08 -0.894389 1.29763 0
M  V30 36276 C 3303.32 -1.64212 1.17809 0
M  V30 36277 C 3303.64 -1.93128 -0.269554 0
M  V30 36278 O 3302.91 -1.5611 -1.1835 0
M  V30 36279 H 3301.49 -0.608694 0.433013 0
M  V30 36280 H 3304.16 -1.07213 1.62762 0
M  V30 36281 H 3303.25 -2.59627 1.73205 0
M  V30 36282 N 3303.55 -1.12326 -1.10547 0
M  V30 36283 C 3304.8 -0.877849 -1.82483 0
M  V30 36284 C 3305.13 0.59634 -1.85132 0
M  V30 36285 O 3304.38 1.45677 -1.30678 0
M  V30 36286 C 3304.68 -1.39632 -3.28995 0
M  V30 36287 C 3304.35 -2.88535 -3.46495 0
M  V30 36288 C 3303.01 -3.29193 -3.50978 0
M  V30 36289 C 3305.36 -3.84391 -3.51984 0
M  V30 36290 C 3302.69 -4.64416 -3.58517 0
M  V30 36291 C 3305.04 -5.19444 -3.61055 0
M  V30 36292 C 3303.71 -5.59646 -3.63803 0
M  V30 36293 H 3302.98 -0.321228 -0.667753 0
M  V30 36294 H 3305.62 -1.40325 -1.30312 0
M  V30 36295 H 3303.93 -0.791359 -3.83725 0
M  V30 36296 H 3305.63 -1.18266 -3.83163 0
M  V30 36297 H 3302.22 -2.56088 -3.43681 0
M  V30 36298 H 3306.4 -3.54075 -3.47771 0
M  V30 36299 H 3301.66 -4.94957 -3.58926 0
M  V30 36300 H 3305.83 -5.93546 -3.64247 0
M  V30 36301 H 3303.46 -6.64417 -3.69397 0
M  V30 36302 N 3305.03 1.28319 -0.914988 0
M  V30 36303 C 3306.26 1.98756 -0.56387 0
M  V30 36304 C 3306.67 1.6855 0.859498 0
M  V30 36305 O 3306.01 0.935364 1.58103 0
M  V30 36306 C 3306.07 3.52726 -0.694601 0
M  V30 36307 C 3305.74 4.06525 -2.08774 0
M  V30 36308 C 3306.74 4.20266 -3.06059 0
M  V30 36309 C 3304.42 4.41186 -2.40126 0
M  V30 36310 C 3306.41 4.67924 -4.32812 0
M  V30 36311 C 3304.1 4.88537 -3.67117 0
M  V30 36312 C 3305.1 5.01863 -4.63273 0
M  V30 36313 O 3304.79 5.48181 -5.88007 0
M  V30 36314 H 3304.52 0.641377 -0.213568 0
M  V30 36315 H 3307.07 1.64451 -1.23065 0
M  V30 36316 H 3305.3 3.86689 0.0292506 0
M  V30 36317 H 3306.99 4.04385 -0.350406 0
M  V30 36318 H 3307.76 3.93761 -2.83157 0
M  V30 36319 H 3303.64 4.30063 -1.66032 0
M  V30 36320 H 3307.18 4.78241 -5.0787 0
M  V30 36321 H 3303.08 5.14483 -3.89844 0
M  V30 36322 H 3303.85 5.66464 -5.90814 0
M  V30 36323 N 3306.51 0.679102 1.42218 0
M  V30 36324 C 3307.46 0.00344373 2.308 0
M  V30 36325 C 3308.43 -0.788308 1.46202 0
M  V30 36326 O 3309.61 -0.759685 1.75024 0
M  V30 36327 C 3306.75 -0.938795 3.32085 0
M  V30 36328 C 3305.86 -0.140409 4.31772 0
M  V30 36329 C 3305 -1.07879 5.2013 0
M  V30 36330 C 3304.04 -0.272343 6.11494 0
M  V30 36331 N 3303.18 -1.16366 6.9239 0
M  V30 36332 H 3308.02 0.764637 2.88023 0
M  V30 36333 H 3305.55 0.388805 1.41869 0
M  V30 36334 H 3307.51 -1.49896 3.89342 0
M  V30 36335 H 3306.14 -1.66657 2.76451 0
M  V30 36336 H 3305.19 0.536442 3.76599 0
M  V30 36337 H 3306.5 0.485521 4.96431 0
M  V30 36338 H 3305.66 -1.70874 5.8214 0
M  V30 36339 H 3304.4 -1.7386 4.55658 0
M  V30 36340 H 3303.4 0.37079 5.48548 0
M  V30 36341 H 3304.63 0.383434 6.78017 0
M  V30 36342 H 3302.57 -1.80979 6.30542 0
M  V30 36343 H 3302.49 -0.59291 7.53671 0
M  V30 36344 H 3303.76 -1.78094 7.58883 0
M  V30 36345 N 3307.99 -1.51825 0.42272 0
M  V30 36346 C 3309.26 -1.94493 -0.207826 0
M  V30 36347 C 3309.64 -1.3605 -1.61411 0
M  V30 36348 O 3308.99 -0.541696 -2.21986 0
M  V30 36349 C 3309.2 -3.48424 -0.200396 0
M  V30 36350 C 3310.55 -4.22585 -0.413125 0
M  V30 36351 O 3311.57 -3.55104 -0.279158 0
M  V30 36352 O 3310.43 -5.42273 -0.678374 0
M  V30 36353 H 3307.53 -0.815433 -0.137836 0
M  V30 36354 H 3310.07 -1.62781 0.479645 0
M  V30 36355 H 3308.85 -3.83379 0.78333 0
M  V30 36356 H 3308.47 -3.86537 -0.931396 0
M  V30 36357 N 3309.47 -0.153581 -1.5685 0
M  V30 36358 C 3310.43 0.769526 -2.15896 0
M  V30 36359 C 3311.43 1.17062 -1.10241 0
M  V30 36360 O 3312.62 1.09047 -1.35847 0
M  V30 36361 C 3309.75 2.04511 -2.72742 0
M  V30 36362 H 3310.94 0.255789 -2.98807 0
M  V30 36363 H 3308.5 0.0959005 -1.56006 0
M  V30 36364 H 3309.23 2.60236 -1.93515 0
M  V30 36365 H 3309.02 1.76666 -3.50045 0
M  V30 36366 H 3310.51 2.70427 -3.18213 0
M  V30 36367 N 3310.94 1.57141 0.120193 0
M  V30 36368 C 3311.89 2.00254 1.14748 0
M  V30 36369 C 3312.86 0.874487 1.41216 0
M  V30 36370 O 3314.05 1.13862 1.53102 0
M  V30 36371 C 3311.19 2.41091 2.46919 0
M  V30 36372 C 3310.3 3.67307 2.27397 0
M  V30 36373 C 3309.43 3.97131 3.5279 0
M  V30 36374 C 3308.47 5.16533 3.2842 0
M  V30 36375 N 3307.61 5.42233 4.46013 0
M  V30 36376 H 3312.45 2.87804 0.772834 0
M  V30 36377 H 3309.99 1.42368 0.370112 0
M  V30 36378 H 3311.94 2.62805 3.24021 0
M  V30 36379 H 3310.57 1.56585 2.82278 0
M  V30 36380 H 3309.63 3.53216 1.41218 0
M  V30 36381 H 3310.94 4.54562 2.05365 0
M  V30 36382 H 3310.09 4.19487 4.3831 0
M  V30 36383 H 3308.83 3.0835 3.77852 0
M  V30 36384 H 3307.84 4.94024 2.4129 0
M  V30 36385 H 3309.06 6.06891 3.0473 0
M  V30 36386 H 3307.01 4.56409 4.71197 0
M  V30 36387 H 3306.92 6.23809 4.27081 0
M  V30 36388 H 3308.19 5.69107 5.3267 0
M  V30 36389 N 3312.42 -0.39034 1.5269 0
M  V30 36390 C 3313.65 -1.15675 1.71543 0
M  V30 36391 C 3314.07 -1.83763 0.433204 0
M  V30 36392 O 3313.42 -1.72624 -0.592218 0
M  V30 36393 C 3313.47 -2.20579 2.86404 0
M  V30 36394 O 3313.19 -1.55267 4.09663 0
M  V30 36395 C 3314.7 -3.09957 3.16925 0
M  V30 36396 H 3311.92 -0.346873 0.574387 0
M  V30 36397 H 3314.46 -0.456816 1.99332 0
M  V30 36398 H 3312.61 -2.8621 2.6108 0
M  V30 36399 H 3313.03 -2.24962 4.73806 0
M  V30 36400 H 3314.5 -3.79597 4.00762 0
M  V30 36401 H 3314.98 -3.73389 2.31252 0
M  V30 36402 H 3315.59 -2.49973 3.44084 0
M  V30 36403 N 3313.9 -1.4363 -0.648706 0
M  V30 36404 C 3314.86 -1.48803 -1.74328 0
M  V30 36405 C 3315.86 -0.372175 -1.56434 0
M  V30 36406 O 3317.05 -0.634106 -1.62249 0
M  V30 36407 C 3314.19 -1.345 -3.13245 0
M  V30 36408 H 3315.38 -2.46288 -1.7112 0
M  V30 36409 H 3312.93 -1.30462 -0.860775 0
M  V30 36410 H 3313.67 -0.380402 -3.22061 0
M  V30 36411 H 3313.45 -2.15395 -3.27639 0
M  V30 36412 H 3314.94 -1.41062 -3.93054 0
M  V30 36413 N 3315.38 0.887495 -1.30236 0
M  V30 36414 C 3316.34 1.9745 -1.16387 0
M  V30 36415 C 3317.34 1.60514 -0.0958224 0
M  V30 36416 O 3318.53 1.70775 -0.343736 0
M  V30 36417 C 3315.66 3.31796 -0.782573 0
M  V30 36418 H 3316.86 2.11163 -2.12956 0
M  V30 36419 H 3314.41 1.07357 -1.13596 0
M  V30 36420 H 3315.14 3.23785 0.182723 0
M  V30 36421 H 3314.93 3.59973 -1.55441 0
M  V30 36422 H 3316.42 4.11536 -0.709083 0
M  V30 36423 N 3316.86 1.12911 1.0995 0
M  V30 36424 C 3318.08 0.910854 1.86328 0
M  V30 36425 C 3318.51 -0.534842 1.80336 0
M  V30 36426 O 3317.86 -1.37906 1.17693 0
M  V30 36427 C 3317.91 1.39654 3.32459 0
M  V30 36428 O 3317.02 0.578264 4.08326 0
M  V30 36429 H 3316.36 0.32686 0.577978 0
M  V30 36430 H 3318.89 1.50244 1.3888 0
M  V30 36431 H 3318.9 1.39781 3.83308 0
M  V30 36432 H 3317.57 2.44919 3.36136 0
M  V30 36433 H 3316.15 0.644411 3.6729 0
M  V30 36434 N 3318.33 -1.27832 0.92178 0
M  V30 36435 C 3319.58 -1.94244 0.558008 0
M  V30 36436 C 3319.9 -1.7285 -0.90265 0
M  V30 36437 O 3319.17 -1.07282 -1.63913 0
M  V30 36438 H 3317.75 -0.718782 0.203377 0
M  V30 36439 H 3320.42 -1.55658 1.17289 0
M  V30 36440 H 3319.51 -3.02724 0.759256 0
M  V30 36441 N 3319.81 -0.686634 -1.41856 0
M  V30 36442 C 3321.06 -0.210986 -2.00593 0
M  V30 36443 C 3321.37 1.19338 -1.54977 0
M  V30 36444 O 3322.58 1.76603 -2.06213 0
M  V30 36445 C 3321.04 -0.326324 -3.58418 0
M  V30 36446 C 3320.64 -1.73549 -4.13019 0
M  V30 36447 C 3322.39 0.090007 -4.24405 0
M  V30 36448 C 3320.3 -1.80296 -5.63247 0
M  V30 36449 H 3319.23 -0.0751209 -0.750249 0
M  V30 36450 H 3321.88 -0.853536 -1.62441 0
M  V30 36451 H 3320.26 0.384325 -3.94131 0
M  V30 36452 H 3321.43 -2.47418 -3.88743 0
M  V30 36453 H 3319.75 -2.10071 -3.59526 0
M  V30 36454 H 3322.34 0.05991 -5.34666 0
M  V30 36455 H 3322.69 1.12726 -4.00747 0
M  V30 36456 H 3323.22 -0.570049 -3.93694 0
M  V30 36457 H 3319.96 -2.82044 -5.91719 0
M  V30 36458 H 3319.48 -1.108 -5.89477 0
M  V30 36459 H 3321.16 -1.56178 -6.27867 0
M  V30 36460 N 3321.29 1.51599 -0.430766 0
M  V30 36461 C 3322.7 1.86669 0.0338811 0
M  V30 36462 C 3323.05 1.34832 1.4253 0
M  V30 36463 O 3322.18 0.696412 2.04888 0
M  V30 36464 C 3322.77 3.38731 0.0682579 0
M  V30 36465 C 3321.33 3.73362 0.477298 0
M  V30 36466 C 3320.48 2.75277 -0.334307 0
M  V30 36467 H 3323.43 1.44917 -0.646901 0
M  V30 36468 H 3323.45 3.70205 0.879114 0
M  V30 36469 H 3322.96 3.7643 -0.944567 0
M  V30 36470 H 3321.06 3.4125 1.49597 0
M  V30 36471 H 3321.18 4.78654 0.206659 0
M  V30 36472 H 3319.54 2.53862 0.206458 0
M  V30 36473 H 3320.32 3.15818 -1.34588 0
M  V30 36474 N 3322.77 0.161897 1.56766 0
M  V30 36475 C 3324 -0.491278 2.00674 0
M  V30 36476 C 3324.41 -1.57978 1.04114 0
M  V30 36477 O 3323.75 -1.83671 0.0325212 0
M  V30 36478 C 3323.81 -1.138 3.41013 0
M  V30 36479 C 3323.48 -0.192304 4.56595 0
M  V30 36480 C 3324.47 0.585762 5.1659 0
M  V30 36481 C 3322.16 -0.0908711 5.02218 0
M  V30 36482 C 3324.15 1.45256 6.20628 0
M  V30 36483 C 3321.84 0.779516 6.06108 0
M  V30 36484 C 3322.84 1.54982 6.65184 0
M  V30 36485 O 3322.52 2.40568 7.67061 0
M  V30 36486 H 3322.26 -0.131047 0.663176 0
M  V30 36487 H 3324.81 0.257932 2.03774 0
M  V30 36488 H 3323.04 -1.93515 3.34797 0
M  V30 36489 H 3324.73 -1.69242 3.68934 0
M  V30 36490 H 3325.5 0.517517 4.82231 0
M  V30 36491 H 3321.37 -0.680211 4.55954 0
M  V30 36492 H 3324.92 2.05427 6.66667 0
M  V30 36493 H 3320.82 0.848999 6.39892 0
M  V30 36494 H 3321.58 2.3398 7.84344 0
M  V30 36495 N 3324.25 -1.57203 -0.111858 0
M  V30 36496 C 3325.2 -1.9729 -1.14284 0
M  V30 36497 C 3326.18 -0.848892 -1.36684 0
M  V30 36498 O 3327.37 -1.11263 -1.37657 0
M  V30 36499 C 3324.5 -2.38678 -2.46755 0
M  V30 36500 C 3323.59 -3.57727 -2.27799 0
M  V30 36501 N 3323.98 -4.73192 -1.7867 0
M  V30 36502 C 3322.28 -3.63498 -2.58428 0
M  V30 36503 C 3322.98 -5.55195 -1.7359 0
M  V30 36504 N 3321.95 -4.97887 -2.18196 0
M  V30 36505 H 3325.76 -2.84019 -0.755661 0
M  V30 36506 H 3323.27 -1.59226 -0.319512 0
M  V30 36507 H 3325.27 -2.65617 -3.21331 0
M  V30 36508 H 3323.93 -1.53316 -2.86224 0
M  V30 36509 H 3324.94 -4.96269 -1.48112 0
M  V30 36510 H 3321.61 -2.88761 -3.01535 0
M  V30 36511 H 3323 -6.57826 -1.368 0
M  V30 36512 N 3325.72 0.382237 -1.52894 0
M  V30 36513 C 3326.95 1.15213 -1.72455 0
M  V30 36514 C 3327.37 1.82761 -0.444957 0
M  V30 36515 O 3326.73 1.71091 0.599795 0
M  V30 36516 C 3326.78 2.17074 -2.87943 0
M  V30 36517 O 3325.88 3.23806 -2.55388 0
M  V30 36518 H 3325.23 0.335089 -0.573246 0
M  V30 36519 H 3327.76 0.44446 -1.99714 0
M  V30 36520 H 3327.77 2.60957 -3.13632 0
M  V30 36521 H 3326.44 1.67298 -3.80768 0
M  V30 36522 H 3325.02 2.85013 -2.40462 0
M  V30 36523 N 3327.2 1.43972 0.64108 0
M  V30 36524 C 3328.11 1.52541 1.78237 0
M  V30 36525 C 3329.13 0.411698 1.69059 0
M  V30 36526 O 3330.31 0.667604 1.90013 0
M  V30 36527 C 3327.37 1.45749 3.14576 0
M  V30 36528 C 3326.43 2.67891 3.3546 0
M  V30 36529 C 3325.66 2.61412 4.65295 0
M  V30 36530 O 3325.89 1.6686 5.45448 0
M  V30 36531 O 3324.82 3.52108 4.88163 0
M  V30 36532 H 3328.65 2.4894 1.73961 0
M  V30 36533 H 3326.23 1.26108 0.801076 0
M  V30 36534 H 3328.11 1.44447 3.9587 0
M  V30 36535 H 3326.79 0.524893 3.19416 0
M  V30 36536 H 3325.7 2.74762 2.53883 0
M  V30 36537 H 3327.03 3.60163 3.35475 0
M  V30 36538 N 3328.68 -0.880575 1.30704 0
M  V30 36539 C 3329.93 -1.63517 1.19958 0
M  V30 36540 C 3330.26 -1.92659 -0.244181 0
M  V30 36541 O 3329.54 -1.55065 -1.1741 0
M  V30 36542 C 3329.82 -2.97218 2.03307 0
M  V30 36543 C 3329.67 -2.75021 3.55926 0
M  V30 36544 C 3330.99 -3.98194 1.87428 0
M  V30 36545 H 3328.11 -0.593369 0.43713 0
M  V30 36546 H 3330.75 -1.01868 1.60384 0
M  V30 36547 H 3328.9 -3.49836 1.68959 0
M  V30 36548 H 3330.57 -2.29157 4.00356 0
M  V30 36549 H 3328.82 -2.09445 3.79888 0
M  V30 36550 H 3329.49 -3.7011 4.0954 0
M  V30 36551 H 3331.96 -3.54751 2.17465 0
M  V30 36552 H 3330.84 -4.89648 2.48065 0
M  V30 36553 H 3331.1 -4.3415 0.83464 0
M  V30 36554 N 3330.16 -1.13492 -1.09349 0
M  V30 36555 C 3331.57 -0.909774 -1.63034 0
M  V30 36556 C 3331.92 0.55354 -1.8823 0
M  V30 36557 O 3331.05 1.42041 -1.63258 0
M  V30 36558 C 3331.64 -1.64502 -2.96183 0
M  V30 36559 C 3330.2 -1.46572 -3.46689 0
M  V30 36560 C 3329.35 -1.67373 -2.21092 0
M  V30 36561 H 3332.3 -1.2881 -0.927018 0
M  V30 36562 H 3332.32 -1.10257 -3.64175 0
M  V30 36563 H 3331.83 -2.71001 -2.77813 0
M  V30 36564 H 3329.93 -0.423793 -3.70182 0
M  V30 36565 H 3330.05 -2.22931 -4.24074 0
M  V30 36566 H 3328.41 -1.09864 -2.29787 0
M  V30 36567 H 3329.19 -2.75193 -2.0524 0
M  V30 36568 N 3331.64 1.27341 -0.928546 0
M  V30 36569 C 3332.88 1.94617 -0.57027 0
M  V30 36570 C 3333.22 1.72793 0.886351 0
M  V30 36571 O 3332.49 1.0575 1.6324 0
M  V30 36572 C 3332.77 3.48723 -0.898025 0
M  V30 36573 C 3332.63 3.79886 -2.40846 0
M  V30 36574 C 3333.95 4.38237 -0.404506 0
M  V30 36575 H 3331.07 0.706846 -0.208657 0
M  V30 36576 H 3333.71 1.50442 -1.16048 0
M  V30 36577 H 3331.86 3.86479 -0.395747 0
M  V30 36578 H 3333.53 3.51916 -2.9825 0
M  V30 36579 H 3331.77 3.26407 -2.85729 0
M  V30 36580 H 3332.44 4.87555 -2.58831 0
M  V30 36581 H 3334.92 4.07636 -0.83499 0
M  V30 36582 H 3333.8 5.44884 -0.66278 0
M  V30 36583 H 3334.06 4.36596 0.695431 0
M  V30 36584 N 3333.12 0.694147 1.4149 0
M  V30 36585 C 3334.34 0.232006 2.06098 0
M  V30 36586 C 3334.77 -1.10955 1.5189 0
M  V30 36587 O 3334.12 -1.69428 0.645277 0
M  V30 36588 C 3334.17 0.198585 3.60053 0
M  V30 36589 O 3333.28 -0.826996 4.04023 0
M  V30 36590 H 3332.62 0.11371 0.654191 0
M  V30 36591 H 3335.15 0.948607 1.8128 0
M  V30 36592 H 3335.16 0.0289621 4.0799 0
M  V30 36593 H 3333.83 1.17771 3.98877 0
M  V30 36594 H 3332.41 -0.626843 3.67594 0
M  V30 36595 N 3334.59 -1.51368 0.438799 0
M  V30 36596 C 3335.52 -2.3067 -0.362427 0
M  V30 36597 C 3336.5 -1.36147 -1.01971 0
M  V30 36598 O 3337.69 -1.65067 -1.02307 0
M  V30 36599 C 3334.82 -3.14979 -1.46307 0
M  V30 36600 C 3333.77 -4.17792 -0.929198 0
M  V30 36601 C 3333.1 -4.9063 -2.1257 0
M  V30 36602 C 3334.4 -5.22287 0.03737 0
M  V30 36603 H 3336.09 -2.979 0.299363 0
M  V30 36604 H 3333.64 -1.43264 0.145415 0
M  V30 36605 H 3335.59 -3.69237 -2.03081 0
M  V30 36606 H 3334.32 -2.45573 -2.15317 0
M  V30 36607 H 3332.98 -3.64587 -0.383658 0
M  V30 36608 H 3332.62 -4.17727 -2.80203 0
M  V30 36609 H 3332.32 -5.60154 -1.77486 0
M  V30 36610 H 3333.85 -5.47713 -2.69895 0
M  V30 36611 H 3335.26 -5.71608 -0.440119 0
M  V30 36612 H 3333.66 -5.99345 0.300854 0
M  V30 36613 H 3334.73 -4.75026 0.973586 0
M  V30 36614 N 3336.07 -0.170208 -1.56678 0
M  V30 36615 C 3337.02 0.760518 -2.1791 0
M  V30 36616 C 3337.99 1.22771 -1.11877 0
M  V30 36617 O 3339.17 1.29608 -1.40023 0
M  V30 36618 C 3336.31 1.98485 -2.82308 0
M  V30 36619 C 3335.43 1.56133 -4.02798 0
M  V30 36620 C 3334.56 2.73924 -4.55126 0
M  V30 36621 C 3333.6 2.28057 -5.68029 0
M  V30 36622 N 3332.74 3.38937 -6.14871 0
M  V30 36623 H 3337.58 0.231577 -2.97099 0
M  V30 36624 H 3335.11 0.102576 -1.46742 0
M  V30 36625 H 3337.07 2.70293 -3.17801 0
M  V30 36626 H 3335.7 2.48751 -2.05725 0
M  V30 36627 H 3334.75 0.740031 -3.73132 0
M  V30 36628 H 3336.07 1.18464 -4.84528 0
M  V30 36629 H 3335.22 3.5389 -4.92795 0
M  V30 36630 H 3333.96 3.14852 -3.72451 0
M  V30 36631 H 3332.96 1.46537 -5.29912 0
M  V30 36632 H 3334.19 1.88188 -6.52505 0
M  V30 36633 H 3332.14 3.79443 -5.35126 0
M  V30 36634 H 3332.05 3.05357 -6.91587 0
M  V30 36635 H 3333.32 4.19191 -6.5719 0
M  V30 36636 N 3337.55 1.5726 0.10352 0
M  V30 36637 C 3338.46 2.04777 1.14472 0
M  V30 36638 C 3339.48 0.97105 1.44384 0
M  V30 36639 O 3340.65 1.28364 1.55192 0
M  V30 36640 C 3337.72 2.45562 2.44745 0
M  V30 36641 C 3336.78 3.67388 2.22091 0
M  V30 36642 C 3336.01 4.06219 3.46153 0
M  V30 36643 O 3336.23 3.45227 4.54064 0
M  V30 36644 O 3335.17 4.99226 3.36239 0
M  V30 36645 H 3338.99 2.93746 0.771159 0
M  V30 36646 H 3336.58 1.46032 0.31543 0
M  V30 36647 H 3338.46 2.7246 3.21471 0
M  V30 36648 H 3337.14 1.59733 2.81544 0
M  V30 36649 H 3336.04 3.45619 1.43173 0
M  V30 36650 H 3337.38 4.5397 1.90189 0
M  V30 36651 N 3339.03 -0.374123 1.53095 0
M  V30 36652 C 3339.99 -1.44062 1.78266 0
M  V30 36653 C 3340.99 -1.46948 0.652918 0
M  V30 36654 O 3342.18 -1.47858 0.921072 0
M  V30 36655 C 3339.31 -2.83245 1.89698 0
M  V30 36656 H 3340.51 -1.2302 2.73507 0
M  V30 36657 H 3338.06 -0.606754 1.44042 0
M  V30 36658 H 3338.79 -3.09612 0.964939 0
M  V30 36659 H 3338.58 -2.8255 2.7186 0
M  V30 36660 H 3340.07 -3.60494 2.10794 0
M  V30 36661 N 3340.51 -1.4431 -0.633436 0
M  V30 36662 C 3341.75 -1.47189 -1.3951 0
M  V30 36663 C 3342.08 -0.10322 -1.93925 0
M  V30 36664 O 3341.36 0.878823 -1.73514 0
M  V30 36665 C 3341.64 -2.5304 -2.56208 0
M  V30 36666 C 3341.5 -3.99257 -2.07157 0
M  V30 36667 C 3342.81 -2.55419 -3.58398 0
M  V30 36668 H 3339.93 -0.535917 -0.505926 0
M  V30 36669 H 3342.58 -1.75976 -0.716414 0
M  V30 36670 H 3340.73 -2.28624 -3.14107 0
M  V30 36671 H 3342.4 -4.34797 -1.54107 0
M  V30 36672 H 3340.64 -4.11144 -1.3836 0
M  V30 36673 H 3341.31 -4.68965 -2.91163 0
M  V30 36674 H 3343.79 -2.77229 -3.10295 0
M  V30 36675 H 3342.66 -3.31389 -4.37575 0
M  V30 36676 H 3342.92 -1.59531 -4.12313 0
M  V30 36677 N 3341.98 0.873632 -1.3117 0
M  V30 36678 C 3343.22 1.64042 -1.21941 0
M  V30 36679 C 3343.59 1.90737 0.219869 0
M  V30 36680 O 3344.79 2.65247 0.435589 0
M  V30 36681 C 3343.06 2.93711 -2.03638 0
M  V30 36682 S 3344.62 3.84613 -2.11231 0
M  V30 36683 H 3341.44 0.562889 -0.43437 0
M  V30 36684 H 3344.04 1.03609 -1.65787 0
M  V30 36685 H 3342.74 2.72017 -3.07303 0
M  V30 36686 H 3342.27 3.59172 -1.60497 0
M  V30 36687 H 3344.29 4.8025 -1.24796 0
M  V30 36688 N 3343.46 1.1407 1.08746 0
M  V30 36689 C 3344.37 0.838037 2.19121 0
M  V30 36690 C 3345.39 -0.180133 1.73065 0
M  V30 36691 O 3346.56 -0.00948744 2.01398 0
M  V30 36692 C 3343.63 0.31606 3.45256 0
M  V30 36693 C 3342.69 1.39635 4.05956 0
M  V30 36694 C 3341.92 0.899187 5.26071 0
M  V30 36695 O 3342.15 -0.260643 5.69804 0
M  V30 36696 O 3341.08 1.67662 5.78077 0
M  V30 36697 H 3344.91 1.76037 2.47476 0
M  V30 36698 H 3342.49 0.918696 1.17815 0
M  V30 36699 H 3344.37 0.0307166 4.21389 0
M  V30 36700 H 3343.05 -0.578598 3.18487 0
M  V30 36701 H 3341.96 1.73511 3.31428 0
M  V30 36702 H 3343.29 2.2654 4.36967 0
M  V30 36703 N 3344.94 -1.26847 0.935286 0
M  V30 36704 C 3346.19 -1.94312 0.580583 0
M  V30 36705 C 3346.52 -1.73261 -0.877175 0
M  V30 36706 O 3345.79 -1.06614 -1.62677 0
M  V30 36707 C 3346.08 -3.48242 0.916506 0
M  V30 36708 C 3345.93 -3.78603 2.42857 0
M  V30 36709 C 3347.25 -4.38016 0.427742 0
M  V30 36710 H 3344.37 -0.705729 0.212403 0
M  V30 36711 H 3347.01 -1.49825 1.16844 0
M  V30 36712 H 3345.16 -3.86264 0.416237 0
M  V30 36713 H 3346.83 -3.50329 3.00112 0
M  V30 36714 H 3345.08 -3.24887 2.87456 0
M  V30 36715 H 3345.75 -4.86176 2.61413 0
M  V30 36716 H 3348.22 -4.07187 0.856596 0
M  V30 36717 H 3347.1 -5.44525 0.691667 0
M  V30 36718 H 3347.36 -4.36959 -0.672267 0
M  V30 36719 N 3346.42 -0.701641 -1.4112 0
M  V30 36720 C 3347.38 -0.0490494 -2.29148 0
M  V30 36721 C 3348.38 0.701738 -1.4468 0
M  V30 36722 O 3349.57 0.535721 -1.65758 0
M  V30 36723 C 3346.7 0.94078 -3.27662 0
M  V30 36724 H 3347.9 -0.824183 -2.88353 0
M  V30 36725 H 3345.45 -0.465483 -1.49208 0
M  V30 36726 H 3346.18 1.74346 -2.73448 0
M  V30 36727 H 3345.97 0.405482 -3.89998 0
M  V30 36728 H 3347.46 1.395 -3.93611 0
M  V30 36729 N 3347.9 1.51133 -0.446821 0
M  V30 36730 C 3348.83 2.30859 0.350189 0
M  V30 36731 C 3349.81 1.36686 1.01247 0
M  V30 36732 O 3350.99 1.65607 1.0143 0
M  V30 36733 C 3348.12 3.1575 1.44635 0
M  V30 36734 C 3347.08 4.18279 0.907029 0
M  V30 36735 C 3346.4 4.91751 2.09965 0
M  V30 36736 C 3347.7 5.22259 -0.0650676 0
M  V30 36737 H 3349.4 2.97737 -0.315157 0
M  V30 36738 H 3346.94 1.43185 -0.15301 0
M  V30 36739 H 3348.9 3.70309 2.0112 0
M  V30 36740 H 3347.62 2.46712 2.14012 0
M  V30 36741 H 3346.28 3.64785 0.364318 0
M  V30 36742 H 3345.93 4.19207 2.77983 0
M  V30 36743 H 3345.63 5.61087 1.74513 0
M  V30 36744 H 3347.15 5.49136 2.66987 0
M  V30 36745 H 3348.56 5.71833 0.409799 0
M  V30 36746 H 3346.96 5.99177 -0.332634 0
M  V30 36747 H 3348.03 4.74503 -0.998764 0
M  V30 36748 N 3349.37 0.178515 1.56586 0
M  V30 36749 C 3350.65 -0.511323 1.88798 0
M  V30 36750 C 3351.03 -1.80811 1.08952 0
M  V30 36751 O 3350.38 -2.27745 0.185591 0
M  V30 36752 C 3350.59 -0.746238 3.40929 0
M  V30 36753 C 3351.94 -1.07303 4.10818 0
M  V30 36754 O 3352.96 -0.834532 3.46286 0
M  V30 36755 O 3351.82 -1.52333 5.2484 0
M  V30 36756 H 3348.91 -0.264449 0.783579 0
M  V30 36757 H 3351.46 0.217489 1.68301 0
M  V30 36758 H 3350.23 0.170219 3.9093 0
M  V30 36759 H 3349.86 -1.52811 3.67062 0
M  V30 36760 N 3350.85 -1.57312 -0.0951784 0
M  V30 36761 C 3352.08 -1.90014 -0.811059 0
M  V30 36762 C 3352.49 -0.770389 -1.72805 0
M  V30 36763 O 3351.83 0.266583 -1.81755 0
M  V30 36764 C 3351.9 -3.17969 -1.67738 0
M  V30 36765 C 3351.56 -4.47391 -0.932222 0
M  V30 36766 C 3352.56 -5.19239 -0.26207 0
M  V30 36767 C 3350.24 -4.94056 -0.906327 0
M  V30 36768 C 3352.24 -6.35988 0.424009 0
M  V30 36769 C 3349.92 -6.10717 -0.216462 0
M  V30 36770 C 3350.92 -6.81532 0.447528 0
M  V30 36771 O 3350.61 -7.9597 1.12633 0
M  V30 36772 H 3350.34 -0.63304 -0.237143 0
M  V30 36773 H 3352.89 -2.05256 -0.0768615 0
M  V30 36774 H 3351.12 -2.98873 -2.45381 0
M  V30 36775 H 3352.81 -3.36502 -2.26982 0
M  V30 36776 H 3353.58 -4.84228 -0.273536 0
M  V30 36777 H 3349.46 -4.38824 -1.41259 0
M  V30 36778 H 3353 -6.91199 0.942848 0
M  V30 36779 H 3348.9 -6.45181 -0.202842 0
M  V30 36780 H 3349.67 -8.11952 1.03322 0
M  V30 36781 N 3352.33 0.365999 -1.53291 0
M  V30 36782 C 3353.28 1.44833 -1.797 0
M  V30 36783 C 3354.25 1.53219 -0.641348 0
M  V30 36784 O 3355.43 1.69113 -0.883483 0
M  V30 36785 C 3352.57 2.81784 -1.99228 0
M  V30 36786 C 3351.69 2.82369 -3.26943 0
M  V30 36787 C 3350.82 4.10893 -3.36661 0
M  V30 36788 C 3349.86 4.05618 -4.58411 0
M  V30 36789 N 3349 5.2579 -4.65284 0
M  V30 36790 H 3353.84 1.21614 -2.72055 0
M  V30 36791 H 3351.37 0.589554 -1.34769 0
M  V30 36792 H 3353.33 3.61342 -2.08537 0
M  V30 36793 H 3351.96 3.03404 -1.10209 0
M  V30 36794 H 3351.01 1.95046 -3.2659 0
M  V30 36795 H 3352.33 2.74344 -4.16578 0
M  V30 36796 H 3351.48 4.98866 -3.45279 0
M  V30 36797 H 3350.22 4.2167 -2.45042 0
M  V30 36798 H 3349.22 3.16031 -4.49894 0
M  V30 36799 H 3350.45 3.96443 -5.51371 0
M  V30 36800 H 3348.39 5.37154 -3.76566 0
M  V30 36801 H 3348.31 5.19932 -5.48823 0
M  V30 36802 H 3349.58 6.15596 -4.78185 0
M  V30 36803 N 3353.81 1.44644 0.625774 0
M  V30 36804 C 3354.76 1.51922 1.73748 0
M  V30 36805 C 3355.73 0.366498 1.62006 0
M  V30 36806 O 3356.91 0.577471 1.81851 0
M  V30 36807 C 3354.05 1.47454 3.12012 0
M  V30 36808 C 3353.16 2.73141 3.34691 0
M  V30 36809 C 3352.3 2.60469 4.62957 0
M  V30 36810 C 3351.34 3.81294 4.78833 0
M  V30 36811 N 3350.47 3.67266 5.98381 0
M  V30 36812 H 3355.31 2.46902 1.66863 0
M  V30 36813 H 3352.85 1.22532 0.813899 0
M  V30 36814 H 3354.81 1.42853 3.91981 0
M  V30 36815 H 3353.44 0.560368 3.17899 0
M  V30 36816 H 3352.49 2.87906 2.48625 0
M  V30 36817 H 3353.8 3.62812 3.423 0
M  V30 36818 H 3352.96 2.53731 5.51095 0
M  V30 36819 H 3351.7 1.68367 4.57716 0
M  V30 36820 H 3350.7 3.8841 3.89124 0
M  V30 36821 H 3351.93 4.74439 4.85885 0
M  V30 36822 H 3349.87 2.7792 5.94219 0
M  V30 36823 H 3349.79 4.50557 6.0707 0
M  V30 36824 H 3351.06 3.6443 6.89066 0
M  V30 36825 N 3355.29 -0.866663 1.31631 0
M  V30 36826 C 3356.23 -1.97419 1.19559 0
M  V30 36827 C 3357.2 -1.65904 0.0805869 0
M  V30 36828 O 3358.39 -1.89101 0.25403 0
M  V30 36829 C 3355.53 -3.32823 0.912293 0
M  V30 36830 C 3354.64 -3.76912 2.11095 0
M  V30 36831 C 3353.78 -5.0105 1.76415 0
M  V30 36832 C 3352.82 -5.37597 2.9267 0
M  V30 36833 N 3351.95 -6.52914 2.58163 0
M  V30 36834 H 3356.79 -2.07076 2.14298 0
M  V30 36835 H 3354.33 -1.01368 1.06597 0
M  V30 36836 H 3356.29 -4.10789 0.728582 0
M  V30 36837 H 3354.92 -3.228 0.00173078 0
M  V30 36838 H 3353.97 -2.94701 2.40532 0
M  V30 36839 H 3355.28 -3.99926 2.98096 0
M  V30 36840 H 3354.44 -5.86691 1.54526 0
M  V30 36841 H 3353.17 -4.79948 0.866103 0
M  V30 36842 H 3352.18 -4.50474 3.15204 0
M  V30 36843 H 3353.4 -5.60663 3.83189 0
M  V30 36844 H 3351.35 -6.33352 1.70886 0
M  V30 36845 H 3351.27 -6.75886 3.38694 0
M  V30 36846 H 3352.54 -7.41739 2.39675 0
M  V30 36847 N 3356.77 -1.14645 -1.0814 0
M  V30 36848 C 3357.71 -0.835883 -2.15132 0
M  V30 36849 C 3358.68 0.207756 -1.64796 0
M  V30 36850 O 3359.87 0.0770765 -1.90644 0
M  V30 36851 C 3357.01 -0.322516 -3.4359 0
M  V30 36852 C 3356.12 -1.42678 -4.07759 0
M  V30 36853 C 3355.26 -0.870373 -5.24021 0
M  V30 36854 C 3354.29 -1.95213 -5.80137 0
M  V30 36855 N 3353.43 -1.41269 -6.87741 0
M  V30 36856 H 3358.27 -1.75226 -2.41039 0
M  V30 36857 H 3355.81 -0.874449 -1.18287 0
M  V30 36858 H 3357.77 -0.00664392 -4.17199 0
M  V30 36859 H 3356.4 0.556958 -3.17959 0
M  V30 36860 H 3355.45 -1.85899 -3.31882 0
M  V30 36861 H 3356.76 -2.24383 -4.45481 0
M  V30 36862 H 3355.91 -0.506565 -6.04582 0
M  V30 36863 H 3354.65 -0.0223976 -4.87695 0
M  V30 36864 H 3353.66 -2.32485 -4.98228 0
M  V30 36865 H 3354.88 -2.80374 -6.1852 0
M  V30 36866 H 3352.83 -0.586941 -6.53369 0
M  V30 36867 H 3352.75 -2.16609 -7.24304 0
M  V30 36868 H 3354.01 -1.07687 -7.72026 0
M  V30 36869 N 3358.24 1.26349 -0.942 0
M  V30 36870 C 3359.19 2.2404 -0.423093 0
M  V30 36871 C 3360.18 1.53553 0.480641 0
M  V30 36872 O 3361.37 1.74161 0.315752 0
M  V30 36873 C 3358.5 3.419 0.309754 0
M  V30 36874 C 3357.58 4.19671 -0.611319 0
M  V30 36875 N 3357.98 4.75022 -1.73746 0
M  V30 36876 C 3356.27 4.44046 -0.417064 0
M  V30 36877 C 3356.97 5.33802 -2.3115 0
M  V30 36878 N 3355.95 5.19537 -1.59943 0
M  V30 36879 H 3359.75 2.6443 -1.28273 0
M  V30 36880 H 3357.27 1.41443 -0.797966 0
M  V30 36881 H 3359.26 4.11006 0.698545 0
M  V30 36882 H 3357.92 3.03037 1.16614 0
M  V30 36883 H 3358.93 4.7254 -2.11959 0
M  V30 36884 H 3355.61 4.15604 0.397488 0
M  V30 36885 H 3357 5.87493 -3.26039 0
M  V30 36886 N 3359.72 0.709115 1.40746 0
M  V30 36887 C 3360.97 0.246209 2.013 0
M  V30 36888 C 3361.3 -1.15554 1.5608 0
M  V30 36889 O 3360.58 -1.78263 0.777973 0
M  V30 36890 C 3360.86 0.319009 3.58684 0
M  V30 36891 C 3360.71 1.75867 4.13994 0
M  V30 36892 C 3362.03 -0.313503 4.38982 0
M  V30 36893 H 3359.15 0.0909383 0.731368 0
M  V30 36894 H 3361.79 0.900394 1.67311 0
M  V30 36895 H 3359.94 -0.237981 3.8777 0
M  V30 36896 H 3361.61 2.37054 3.95731 0
M  V30 36897 H 3359.86 2.28848 3.68526 0
M  V30 36898 H 3360.53 1.76104 5.23155 0
M  V30 36899 H 3363 0.161012 4.15788 0
M  V30 36900 H 3361.88 -0.232087 5.48409 0
M  V30 36901 H 3362.14 -1.39613 4.19477 0
M  V30 36902 N 3361.2 -1.50894 0.454829 0
M  V30 36903 C 3362.45 -2.02224 -0.105735 0
M  V30 36904 C 3362.77 -1.33792 -1.41174 0
M  V30 36905 O 3362.03 -0.447215 -1.90522 0
M  V30 36906 C 3362.33 -3.55642 -0.354097 0
M  V30 36907 C 3361.99 -4.42462 0.868214 0
M  V30 36908 C 3360.66 -4.6591 1.20338 0
M  V30 36909 C 3363.01 -4.93286 1.6828 0
M  V30 36910 C 3360.34 -5.37427 2.35349 0
M  V30 36911 C 3362.69 -5.66065 2.82406 0
M  V30 36912 C 3361.35 -5.87771 3.16356 0
M  V30 36913 H 3360.62 -0.739989 -0.0386911 0
M  V30 36914 H 3363.27 -1.81672 0.605596 0
M  V30 36915 H 3361.57 -3.74619 -1.14751 0
M  V30 36916 H 3363.27 -3.92908 -0.801531 0
M  V30 36917 H 3359.86 -4.24421 0.597069 0
M  V30 36918 H 3364.05 -4.75039 1.43706 0
M  V30 36919 H 3359.3 -5.52444 2.61946 0
M  V30 36920 H 3363.48 -6.04432 3.45883 0
M  V30 36921 H 3361.1 -6.42966 4.05585 0
M  V30 36922 N 3362.68 -0.186817 -1.56489 0
M  V30 36923 C 3363.62 0.737363 -2.18704 0
M  V30 36924 C 3364.59 1.21577 -1.13173 0
M  V30 36925 O 3365.78 1.28115 -1.4139 0
M  V30 36926 C 3362.92 1.95479 -2.84397 0
M  V30 36927 C 3362.03 1.51852 -4.04432 0
M  V30 36928 C 3361.17 2.69081 -4.58005 0
M  V30 36929 C 3360.21 2.22019 -5.70415 0
M  V30 36930 N 3359.34 3.32396 -6.18431 0
M  V30 36931 H 3364.18 0.200052 -2.97328 0
M  V30 36932 H 3361.72 0.0870062 -1.46842 0
M  V30 36933 H 3363.68 2.66907 -3.2065 0
M  V30 36934 H 3362.31 2.46555 -2.08352 0
M  V30 36935 H 3361.36 0.700414 -3.73896 0
M  V30 36936 H 3362.67 1.13318 -4.85758 0
M  V30 36937 H 3361.83 3.48643 -4.96521 0
M  V30 36938 H 3360.57 3.10884 -3.75769 0
M  V30 36939 H 3359.57 1.40908 -5.31437 0
M  V30 36940 H 3360.8 1.81257 -6.54464 0
M  V30 36941 H 3358.74 3.73746 -5.3912 0
M  V30 36942 H 3358.66 2.98005 -6.94787 0
M  V30 36943 H 3359.93 4.12197 -6.61599 0
M  V30 36944 N 3364.16 1.57361 0.0868344 0
M  V30 36945 C 3365.09 2.0568 1.10535 0
M  V30 36946 C 3366.07 0.947318 1.4128 0
M  V30 36947 O 3367.25 1.21911 1.51167 0
M  V30 36948 C 3364.38 2.48816 2.42297 0
M  V30 36949 C 3363.34 3.63503 2.25941 0
M  V30 36950 C 3362.66 3.92643 3.62954 0
M  V30 36951 C 3363.96 4.94097 1.6931 0
M  V30 36952 H 3365.66 2.91022 0.70332 0
M  V30 36953 H 3363.2 1.40004 0.33687 0
M  V30 36954 H 3365.15 2.81229 3.13828 0
M  V30 36955 H 3363.88 1.60484 2.84451 0
M  V30 36956 H 3362.54 3.31349 1.56854 0
M  V30 36957 H 3362.19 3.01466 4.02651 0
M  V30 36958 H 3361.89 4.6986 3.52854 0
M  V30 36959 H 3363.41 4.27539 4.35939 0
M  V30 36960 H 3364.82 5.24838 2.3069 0
M  V30 36961 H 3363.22 5.75533 1.69946 0
M  V30 36962 H 3364.29 4.8048 0.653233 0
M  V30 36963 N 3365.63 -0.357865 1.53483 0
M  V30 36964 C 3367.05 -0.700048 1.43428 0
M  V30 36965 C 3367.25 -1.92986 0.579527 0
M  V30 36966 O 3366.31 -2.52416 0.064953 0
M  V30 36967 C 3367.62 -0.906049 2.86725 0
M  V30 36968 C 3369.17 -1.00557 2.96407 0
M  V30 36969 C 3369.64 -1.24399 4.40782 0
M  V30 36970 N 3371.13 -1.31152 4.44245 0
M  V30 36971 C 3371.87 -1.51324 5.53072 0
M  V30 36972 N 3371.36 -1.68762 6.71931 0
M  V30 36973 N 3373.16 -1.53756 5.40662 0
M  V30 36974 H 3365.31 0.45093 2.07558 0
M  V30 36975 H 3367.57 0.139727 0.937646 0
M  V30 36976 H 3367.28 -0.0740961 3.51622 0
M  V30 36977 H 3367.15 -1.81193 3.30831 0
M  V30 36978 H 3369.54 -1.82806 2.31659 0
M  V30 36979 H 3369.62 -0.0769063 2.55684 0
M  V30 36980 H 3369.26 -0.426486 5.06106 0
M  V30 36981 H 3369.19 -2.186 4.79084 0
M  V30 36982 H 3371.68 -1.19258 3.58589 0
M  V30 36983 H 3372 -1.83749 7.50637 0
M  V30 36984 H 3370.34 -1.65925 6.74903 0
M  V30 36985 H 3373.53 -1.39705 4.46766 0
M  V30 36986 H 3373.71 -1.69135 6.25538 0
M  V30 36987 N 3367.11 -1.44974 -0.618094 0
M  V30 36988 C 3368.04 -1.55676 -1.74032 0
M  V30 36989 C 3369.02 -0.408929 -1.65111 0
M  V30 36990 O 3370.21 -0.63073 -1.83672 0
M  V30 36991 C 3367.34 -1.51308 -3.12607 0
M  V30 36992 C 3366.29 -2.64701 -3.36329 0
M  V30 36993 C 3365.62 -2.45386 -4.75068 0
M  V30 36994 C 3366.92 -4.06778 -3.27611 0
M  V30 36995 H 3368.61 -2.49611 -1.65332 0
M  V30 36996 H 3366.16 -1.20133 -0.793982 0
M  V30 36997 H 3368.11 -1.57394 -3.90903 0
M  V30 36998 H 3366.83 -0.538971 -3.22122 0
M  V30 36999 H 3365.49 -2.58026 -2.60419 0
M  V30 37000 H 3365.14 -1.46138 -4.81303 0
M  V30 37001 H 3364.84 -3.21421 -4.91897 0
M  V30 37002 H 3366.37 -2.5331 -5.55577 0
M  V30 37003 H 3367.78 -4.14753 -3.95794 0
M  V30 37004 H 3366.18 -4.83119 -3.55972 0
M  V30 37005 H 3367.25 -4.29427 -2.25212 0
M  V30 37006 N 3368.59 0.85967 -1.32089 0
M  V30 37007 C 3369.54 1.98922 -1.20552 0
M  V30 37008 C 3370.53 1.69033 -0.111451 0
M  V30 37009 O 3371.74 1.77902 -0.274041 0
M  V30 37010 H 3368.11 0.65266 -0.373549 0
M  V30 37011 H 3370.08 2.05781 -2.16094 0
M  V30 37012 C 3368.83 3.34745 -0.940284 0
M  V30 37013 H 3368.16 3.5827 -1.77433 0
M  V30 37014 H 3369.6 4.14343 -0.899785 0
M  V30 37015 C 3368.05 3.35003 0.356983 0
M  V30 37016 O 3368.58 3.77599 1.37048 0
M  V30 37017 N 3366.79 2.88142 0.377179 0
M  V30 37018 H 3366.34 2.53673 -0.448095 0
M  V30 37019 H 3366.3 2.88697 1.24504 0
M  V30 37020 N 3370.07 1.15217 1.0753 0
M  V30 37021 C 3371.34 0.836491 1.76811 0
M  V30 37022 C 3371.72 -0.668265 2.00243 0
M  V30 37023 O 3371.07 -1.61203 1.61944 0
M  V30 37024 C 3371.28 1.64524 3.07787 0
M  V30 37025 C 3372.63 1.85029 3.82164 0
M  V30 37026 O 3373.65 1.61285 3.17593 0
M  V30 37027 O 3372.51 2.24783 4.98131 0
M  V30 37028 H 3369.61 0.307439 0.767731 0
M  V30 37029 H 3372.15 1.25786 1.13912 0
M  V30 37030 H 3370.93 2.66695 2.86338 0
M  V30 37031 H 3370.55 1.22009 3.78417 0
M  V30 37032 N 3371.55 -1.25848 0.948687 0
M  V30 37033 C 3372.79 -1.93017 0.599084 0
M  V30 37034 C 3373.12 -1.74726 -0.865783 0
M  V30 37035 O 3372.39 -1.10734 -1.616 0
M  V30 37036 H 3370.97 -0.714306 0.218577 0
M  V30 37037 H 3373.63 -1.53135 1.20564 0
M  V30 37038 H 3372.72 -3.01045 0.823297 0
M  V30 37039 N 3373.02 -0.716569 -1.40368 0
M  V30 37040 C 3373.97 -0.0535129 -2.32538 0
M  V30 37041 C 3374.97 0.745958 -1.52092 0
M  V30 37042 O 3376.17 0.649215 -1.67884 0
M  V30 37043 H 3372.55 0.00149766 -0.751999 0
M  V30 37044 H 3374.52 -0.847585 -2.86109 0
M  V30 37045 C 3373.27 0.853456 -3.37063 0
M  V30 37046 H 3372.59 0.247684 -3.99032 0
M  V30 37047 H 3374.03 1.28534 -4.04048 0
M  V30 37048 C 3372.49 1.97936 -2.72623 0
M  V30 37049 O 3373.02 3.07029 -2.59029 0
M  V30 37050 N 3371.23 1.76328 -2.30991 0
M  V30 37051 H 3370.77 0.876021 -2.42247 0
M  V30 37052 H 3370.73 2.5184 -1.88213 0
M  V30 37053 N 3374.5 1.50651 -0.462825 0
M  V30 37054 C 3375.41 2.32106 0.34115 0
M  V30 37055 C 3376.43 1.42125 1.00382 0
M  V30 37056 O 3377.6 1.75184 0.993604 0
M  V30 37057 C 3374.67 3.16577 1.4135 0
M  V30 37058 C 3373.73 4.22369 0.7683 0
M  V30 37059 C 3372.96 5.02803 1.78955 0
M  V30 37060 O 3373.19 4.84201 3.01506 0
M  V30 37061 O 3372.12 5.86196 1.36596 0
M  V30 37062 H 3375.95 3.01961 -0.324535 0
M  V30 37063 H 3373.53 1.47699 -0.224833 0
M  V30 37064 H 3375.41 3.69015 2.03484 0
M  V30 37065 H 3374.09 2.4946 2.0628 0
M  V30 37066 H 3373 3.73943 0.108232 0
M  V30 37067 H 3374.33 4.91933 0.162078 0
M  V30 37068 N 3375.98 0.195113 1.56388 0
M  V30 37069 C 3377.21 -0.448602 2.01671 0
M  V30 37070 C 3377.62 -1.55734 1.07441 0
M  V30 37071 O 3376.96 -1.83561 0.0714732 0
M  V30 37072 C 3377.02 -1.06541 3.4335 0
M  V30 37073 C 3376.69 -0.0954097 4.569 0
M  V30 37074 C 3377.68 0.695207 5.15231 0
M  V30 37075 C 3375.37 0.0156772 5.02298 0
M  V30 37076 C 3377.36 1.58388 6.17408 0
M  V30 37077 C 3375.05 0.907905 6.04318 0
M  V30 37078 C 3376.05 1.69057 6.61747 0
M  V30 37079 O 3375.74 2.56785 7.61785 0
M  V30 37080 H 3375.47 -0.116951 0.665807 0
M  V30 37081 H 3378.02 0.301098 2.03181 0
M  V30 37082 H 3376.25 -1.8637 3.38826 0
M  V30 37083 H 3377.94 -1.61378 3.7244 0
M  V30 37084 H 3378.71 0.619689 4.81025 0
M  V30 37085 H 3374.59 -0.583344 4.57294 0
M  V30 37086 H 3378.13 2.19522 6.6216 0
M  V30 37087 H 3374.03 0.984539 6.37948 0
M  V30 37088 H 3374.8 2.50564 7.79205 0
M  V30 37089 N 3377.46 -1.57404 -0.0784879 0
M  V30 37090 C 3378.39 -2.06264 -1.09442 0
M  V30 37091 C 3379.37 -0.954797 -1.40775 0
M  V30 37092 O 3380.55 -1.22711 -1.50518 0
M  V30 37093 C 3377.68 -2.50097 -2.40974 0
M  V30 37094 C 3376.64 -3.64696 -2.2401 0
M  V30 37095 C 3375.96 -3.94562 -3.60866 0
M  V30 37096 C 3377.26 -4.94988 -1.66687 0
M  V30 37097 H 3378.96 -2.91391 -0.687877 0
M  V30 37098 H 3376.5 -1.40181 -0.329441 0
M  V30 37099 H 3378.46 -2.8289 -3.12332 0
M  V30 37100 H 3377.18 -1.6199 -2.83596 0
M  V30 37101 H 3375.84 -3.32176 -1.55095 0
M  V30 37102 H 3375.49 -3.03597 -4.01046 0
M  V30 37103 H 3375.19 -4.71724 -3.50357 0
M  V30 37104 H 3376.71 -4.29845 -4.33665 0
M  V30 37105 H 3378.13 -5.26054 -2.27904 0
M  V30 37106 H 3376.52 -5.76426 -1.66892 0
M  V30 37107 H 3377.59 -4.8082 -0.627743 0
M  V30 37108 N 3378.94 0.34972 -1.53671 0
M  V30 37109 C 3380.18 1.09065 -1.7062 0
M  V30 37110 C 3380.51 1.88831 -0.466166 0
M  V30 37111 O 3379.77 1.87752 0.552046 0
M  V30 37112 C 3380.07 2.06429 -2.91757 0
M  V30 37113 C 3379.73 1.43022 -4.27616 0
M  V30 37114 C 3378.39 1.25458 -4.64558 0
M  V30 37115 C 3380.75 0.972897 -5.12039 0
M  V30 37116 C 3378.07 0.607705 -5.83544 0
M  V30 37117 C 3380.43 0.339962 -6.31686 0
M  V30 37118 C 3379.09 0.151952 -6.67327 0
M  V30 37119 H 3378.36 0.399097 -0.624341 0
M  V30 37120 H 3381.01 0.370624 -1.87879 0
M  V30 37121 H 3379.31 2.84791 -2.69075 0
M  V30 37122 H 3381.01 2.63739 -3.02064 0
M  V30 37123 H 3377.6 1.57689 -3.98538 0
M  V30 37124 H 3381.78 1.09647 -4.84036 0
M  V30 37125 H 3377.04 0.450598 -6.09737 0
M  V30 37126 H 3381.21 -0.0225197 -6.96396 0
M  V30 37127 H 3378.84 -0.351344 -7.59388 0
M  V30 37128 N 3380.41 1.45299 0.610397 0
M  V30 37129 C 3381.35 1.49763 1.73504 0
M  V30 37130 C 3382.36 0.388698 1.58092 0
M  V30 37131 O 3383.55 0.655601 1.66024 0
M  V30 37132 C 3380.65 1.3356 3.11472 0
M  V30 37133 C 3379.82 2.58076 3.53151 0
M  V30 37134 C 3378.88 2.36471 4.70072 0
M  V30 37135 O 3377.91 3.1007 4.77332 0
M  V30 37136 N 3379.11 1.40853 5.63153 0
M  V30 37137 H 3381.87 2.46724 1.7014 0
M  V30 37138 H 3379.43 1.41003 0.795596 0
M  V30 37139 H 3381.43 1.16921 3.87442 0
M  V30 37140 H 3380 0.448857 3.09361 0
M  V30 37141 H 3379.22 2.89849 2.67172 0
M  V30 37142 H 3380.5 3.4085 3.77755 0
M  V30 37143 H 3379.9 0.801081 5.59999 0
M  V30 37144 H 3378.46 1.30187 6.38666 0
M  V30 37145 N 3381.89 -0.852653 1.32543 0
M  V30 37146 C 3382.86 -1.94295 1.21581 0
M  V30 37147 C 3383.86 -1.60204 0.138346 0
M  V30 37148 O 3385.05 -1.69804 0.388894 0
M  V30 37149 C 3382.18 -3.29605 0.870267 0
M  V30 37150 H 3383.37 -2.05442 2.1848 0
M  V30 37151 H 3380.92 -1.04308 1.16403 0
M  V30 37152 H 3381.66 -3.24155 -0.0968128 0
M  V30 37153 H 3381.44 -3.55725 1.6493 0
M  V30 37154 H 3382.93 -4.09511 0.817946 0
M  V30 37155 N 3383.37 -1.15786 -1.06918 0
M  V30 37156 C 3384.32 -0.858654 -2.14233 0
M  V30 37157 C 3385.29 0.190266 -1.65007 0
M  V30 37158 O 3386.47 0.0568518 -1.90715 0
M  V30 37159 C 3383.61 -0.358941 -3.43228 0
M  V30 37160 C 3382.73 -1.46995 -4.06222 0
M  V30 37161 C 3381.86 -0.925904 -5.23068 0
M  V30 37162 C 3380.9 -2.01355 -5.78033 0
M  V30 37163 N 3380.04 -1.48556 -6.86204 0
M  V30 37164 H 3384.88 -1.77773 -2.39167 0
M  V30 37165 H 3382.41 -0.886946 -1.17353 0
M  V30 37166 H 3384.37 -0.0508931 -4.17169 0
M  V30 37167 H 3383 0.523203 -3.18532 0
M  V30 37168 H 3382.05 -1.89409 -3.29892 0
M  V30 37169 H 3383.37 -2.29095 -4.43076 0
M  V30 37170 H 3382.52 -0.570661 -6.0401 0
M  V30 37171 H 3381.26 -0.0741229 -4.87644 0
M  V30 37172 H 3380.26 -2.37756 -4.95734 0
M  V30 37173 H 3381.49 -2.86918 -6.15512 0
M  V30 37174 H 3379.43 -0.656206 -6.5271 0
M  V30 37175 H 3379.35 -2.24279 -7.21966 0
M  V30 37176 H 3380.62 -1.1587 -7.7084 0
M  V30 37177 N 3384.85 1.25343 -0.955348 0
M  V30 37178 C 3386.13 1.88343 -0.527861 0
M  V30 37179 C 3386.51 1.86186 0.994878 0
M  V30 37180 O 3385.85 1.3259 1.86097 0
M  V30 37181 C 3386.06 3.31035 -1.10531 0
M  V30 37182 C 3387.41 4.07798 -1.18261 0
M  V30 37183 O 3388.44 3.40158 -1.05691 0
M  V30 37184 O 3387.29 5.28793 -1.37987 0
M  V30 37185 H 3384.39 0.808441 -0.17422 0
M  V30 37186 H 3386.93 1.33408 -1.04882 0
M  V30 37187 H 3385.71 3.27038 -2.14852 0
M  V30 37188 H 3385.33 3.93527 -0.567637 0
M  V30 37189 N 3386.33 0.724003 1.39986 0
M  V30 37190 C 3387.6 0.193935 1.94636 0
M  V30 37191 C 3387.98 -1.30209 1.66159 0
M  V30 37192 O 3387.33 -2.06236 0.983819 0
M  V30 37193 C 3387.54 0.515712 3.45169 0
M  V30 37194 C 3388.89 0.458993 4.22112 0
M  V30 37195 O 3389.91 0.45226 3.53317 0
M  V30 37196 O 3388.77 0.443879 5.44694 0
M  V30 37197 H 3385.87 0.031676 0.826393 0
M  V30 37198 H 3388.41 0.802111 1.49547 0
M  V30 37199 H 3387.19 1.55011 3.59287 0
M  V30 37200 H 3386.81 -0.121998 3.97413 0
M  V30 37201 N 3387.81 -1.50403 0.470808 0
M  V30 37202 C 3388.72 -2.32284 -0.328836 0
M  V30 37203 C 3389.73 -1.42655 -0.996264 0
M  V30 37204 O 3390.91 -1.75709 -0.9843 0
M  V30 37205 C 3387.97 -3.17322 -1.39669 0
M  V30 37206 C 3387.03 -4.22771 -0.74589 0
M  V30 37207 C 3386.27 -5.03745 -1.76286 0
M  V30 37208 O 3386.49 -4.85793 -2.98934 0
M  V30 37209 O 3385.42 -5.86912 -1.33485 0
M  V30 37210 H 3389.25 -3.01785 0.340544 0
M  V30 37211 H 3386.83 -1.47577 0.232663 0
M  V30 37212 H 3388.72 -3.70089 -2.01524 0
M  V30 37213 H 3387.39 -2.5055 -2.04955 0
M  V30 37214 H 3386.3 -3.73996 -0.088399 0
M  V30 37215 H 3387.63 -4.92012 -0.135987 0
M  V30 37216 N 3389.28 -0.203404 -1.56282 0
M  V30 37217 C 3390.19 0.725883 -2.23088 0
M  V30 37218 C 3391.21 1.22812 -1.23261 0
M  V30 37219 O 3392.39 1.27354 -1.56022 0
M  V30 37220 C 3389.45 1.9248 -2.88362 0
M  V30 37221 C 3388.51 1.46631 -4.03482 0
M  V30 37222 C 3387.74 2.60808 -4.65634 0
M  V30 37223 O 3387.97 3.78498 -4.26726 0
M  V30 37224 O 3386.9 2.33046 -5.54953 0
M  V30 37225 H 3390.73 0.186887 -3.03124 0
M  V30 37226 H 3388.31 0.0262567 -1.49377 0
M  V30 37227 H 3390.19 2.62533 -3.29627 0
M  V30 37228 H 3388.87 2.45224 -2.11298 0
M  V30 37229 H 3387.78 0.734331 -3.66822 0
M  V30 37230 H 3389.11 0.98545 -4.82234 0
M  V30 37231 N 3390.76 1.57444 0.0701393 0
M  V30 37232 C 3391.69 1.99102 1.11505 0
M  V30 37233 C 3392.67 0.868219 1.3748 0
M  V30 37234 O 3393.86 1.13066 1.50825 0
M  V30 37235 C 3390.98 2.32914 2.45904 0
M  V30 37236 C 3390.03 3.5522 2.36053 0
M  V30 37237 S 3390.86 5.05992 1.75307 0
M  V30 37238 C 3392.02 5.43006 3.11279 0
M  V30 37239 H 3392.25 2.87421 0.760046 0
M  V30 37240 H 3389.78 1.51863 0.278729 0
M  V30 37241 H 3391.74 2.53069 3.23212 0
M  V30 37242 H 3390.4 1.45122 2.78565 0
M  V30 37243 H 3389.6 3.76401 3.3517 0
M  V30 37244 H 3389.2 3.34704 1.6688 0
M  V30 37245 H 3391.49 5.41178 4.07593 0
M  V30 37246 H 3392.43 6.4378 2.94877 0
M  V30 37247 H 3392.84 4.70469 3.11961 0
M  V30 37248 N 3392.24 -0.341566 1.53854 0
M  V30 37249 C 3393.19 -1.43978 1.82683 0
M  V30 37250 C 3394.18 -1.54376 0.697442 0
M  V30 37251 O 3395.39 -1.56977 0.880813 0
M  V30 37252 H 3391.76 -0.480103 0.578796 0
M  V30 37253 H 3393.73 -1.16879 2.74558 0
M  V30 37254 C 3392.48 -2.80472 2.05501 0
M  V30 37255 H 3391.81 -2.73239 2.91857 0
M  V30 37256 H 3393.25 -3.56431 2.29636 0
M  V30 37257 C 3391.7 -3.26231 0.841118 0
M  V30 37258 O 3392.23 -4.01679 0.0415082 0
M  V30 37259 N 3390.44 -2.83057 0.657786 0
M  V30 37260 H 3389.99 -2.21824 1.30966 0
M  V30 37261 H 3389.95 -3.14028 -0.152948 0
M  V30 37262 N 3393.72 -1.45621 -0.602683 0
M  V30 37263 C 3394.95 -1.53428 -1.38807 0
M  V30 37264 C 3395.36 -0.168543 -1.88046 0
M  V30 37265 O 3394.72 0.830762 -1.62495 0
M  V30 37266 C 3394.77 -2.52272 -2.58923 0
M  V30 37267 O 3394.49 -3.8354 -2.11729 0
M  V30 37268 C 3395.99 -2.69826 -3.51723 0
M  V30 37269 H 3393.21 -0.519462 -0.424735 0
M  V30 37270 H 3395.75 -1.90852 -0.734557 0
M  V30 37271 H 3393.91 -2.17907 -3.20305 0
M  V30 37272 H 3394.32 -4.37164 -2.89806 0
M  V30 37273 H 3395.8 -3.42953 -4.32536 0
M  V30 37274 H 3396.27 -1.76031 -4.0238 0
M  V30 37275 H 3396.88 -3.05207 -2.9619 0
M  V30 37276 N 3395.2 0.845612 -1.32993 0
M  V30 37277 C 3396.44 1.60254 -1.25261 0
M  V30 37278 C 3396.8 1.91541 0.181651 0
M  V30 37279 O 3396.09 1.55318 1.12191 0
M  V30 37280 C 3396.28 2.92441 -2.05459 0
M  V30 37281 C 3396.11 2.74064 -3.56538 0
M  V30 37282 C 3394.88 2.71974 -4.25862 0
M  V30 37283 C 3397.08 2.47178 -4.51007 0
M  V30 37284 N 3395.06 2.44904 -5.62935 0
M  V30 37285 C 3396.43 2.29597 -5.75921 0
M  V30 37286 C 3398.49 2.3272 -4.40166 0
M  V30 37287 C 3397.19 1.99025 -6.91217 0
M  V30 37288 C 3399.22 2.0354 -5.55271 0
M  V30 37289 C 3398.58 1.86765 -6.79189 0
M  V30 37290 H 3394.68 0.589741 -0.513546 0
M  V30 37291 H 3397.26 0.993247 -1.6746 0
M  V30 37292 H 3395.43 3.51332 -1.65592 0
M  V30 37293 H 3397.17 3.57565 -1.8955 0
M  V30 37294 H 3393.92 2.85238 -3.78069 0
M  V30 37295 H 3394.34 2.34271 -6.35174 0
M  V30 37296 H 3398.99 2.44404 -3.45002 0
M  V30 37297 H 3396.7 1.86077 -7.86385 0
M  V30 37298 H 3400.29 1.93118 -5.48814 0
M  V30 37299 H 3399.17 1.6451 -7.6675 0
M  V30 37300 N 3396.67 1.16351 1.06302 0
M  V30 37301 C 3397.92 0.939454 1.78486 0
M  V30 37302 C 3398.24 -0.533965 1.88171 0
M  V30 37303 O 3399.44 -0.875917 2.56982 0
M  V30 37304 C 3397.9 1.63155 3.20794 0
M  V30 37305 C 3397.51 3.14273 3.19275 0
M  V30 37306 C 3399.25 1.48945 3.97512 0
M  V30 37307 C 3397.16 3.76221 4.56302 0
M  V30 37308 H 3396.09 0.347849 0.668967 0
M  V30 37309 H 3398.74 1.39483 1.19234 0
M  V30 37310 H 3397.12 1.10389 3.80303 0
M  V30 37311 H 3398.29 3.73882 2.69349 0
M  V30 37312 H 3396.61 3.28366 2.56056 0
M  V30 37313 H 3399.21 1.92609 4.98804 0
M  V30 37314 H 3399.55 0.438392 4.13985 0
M  V30 37315 H 3400.08 1.98867 3.44524 0
M  V30 37316 H 3396.82 4.81275 4.45034 0
M  V30 37317 H 3396.34 3.21397 5.06423 0
M  V30 37318 H 3398.02 3.77772 5.2526 0
M  V30 37319 N 3398.15 -1.24835 0.961982 0
M  V30 37320 C 3399.08 -2.24831 0.445369 0
M  V30 37321 C 3400.1 -1.56663 -0.44277 0
M  V30 37322 O 3401.29 -1.76743 -0.249865 0
M  V30 37323 C 3398.39 -3.36798 -0.376894 0
M  V30 37324 C 3397.56 -4.34533 0.499984 0
M  V30 37325 C 3396.62 -5.25531 -0.26531 0
M  V30 37326 O 3395.64 -5.68191 0.338807 0
M  V30 37327 N 3396.85 -5.59245 -1.55644 0
M  V30 37328 H 3399.61 -2.69791 1.3051 0
M  V30 37329 H 3397.17 -1.38817 0.833162 0
M  V30 37330 H 3399.16 -3.94639 -0.896762 0
M  V30 37331 H 3397.73 -2.91169 -1.13752 0
M  V30 37332 H 3396.95 -3.75463 1.20088 0
M  V30 37333 H 3398.24 -4.96806 1.09823 0
M  V30 37334 H 3397.64 -5.26504 -2.06906 0
M  V30 37335 H 3396.2 -6.1964 -2.02212 0
M  V30 37336 N 3399.63 -0.731417 -1.396 0
M  V30 37337 C 3400.59 -0.0976439 -2.28992 0
M  V30 37338 C 3401.59 0.670891 -1.46136 0
M  V30 37339 O 3402.78 0.50044 -1.66857 0
M  V30 37340 C 3399.91 0.871066 -3.29583 0
M  V30 37341 H 3401.11 -0.885162 -2.8654 0
M  V30 37342 H 3398.66 -0.497028 -1.48187 0
M  V30 37343 H 3399.4 1.68507 -2.77085 0
M  V30 37344 H 3399.18 0.322666 -3.9077 0
M  V30 37345 H 3400.67 1.31119 -3.96481 0
M  V30 37346 N 3401.11 1.50152 -0.478778 0
M  V30 37347 C 3402.36 2.01559 0.0752745 0
M  V30 37348 C 3402.67 1.3651 1.40087 0
M  V30 37349 O 3403.88 1.79118 2.04032 0
M  V30 37350 C 3402.33 3.59426 0.184651 0
M  V30 37351 C 3401.94 4.33437 -1.13297 0
M  V30 37352 C 3403.68 4.18851 0.690252 0
M  V30 37353 C 3401.59 5.83106 -0.986968 0
M  V30 37354 H 3400.52 0.753325 0.0319063 0
M  V30 37355 H 3403.17 1.72893 -0.614839 0
M  V30 37356 H 3401.55 3.84713 0.93872 0
M  V30 37357 H 3402.73 4.19869 -1.89859 0
M  V30 37358 H 3401.04 3.85657 -1.57028 0
M  V30 37359 H 3403.64 5.28427 0.81664 0
M  V30 37360 H 3403.98 3.8074 1.68354 0
M  V30 37361 H 3404.52 3.97799 -0.00664838 0
M  V30 37362 H 3401.26 6.25703 -1.95386 0
M  V30 37363 H 3400.78 5.99228 -0.261857 0
M  V30 37364 H 3402.45 6.43659 -0.656681 0
M  V30 37365 N 3402.59 0.211689 1.56172 0
M  V30 37366 C 3403.81 -0.43087 2.02875 0
M  V30 37367 C 3404.24 -1.53252 1.09067 0
M  V30 37368 O 3403.59 -1.81136 0.0770727 0
M  V30 37369 C 3403.64 -0.948872 3.47892 0
M  V30 37370 O 3402.75 -2.06083 3.57216 0
M  V30 37371 H 3402.09 -0.0987492 0.656616 0
M  V30 37372 H 3404.62 0.327435 2.01963 0
M  V30 37373 H 3404.63 -1.26123 3.88017 0
M  V30 37374 H 3403.3 -0.142511 4.15656 0
M  V30 37375 H 3401.88 -1.75586 3.28974 0
M  V30 37376 N 3404.06 -1.57479 -0.0617887 0
M  V30 37377 C 3405.29 -1.92357 -0.775479 0
M  V30 37378 C 3405.71 -0.808979 -1.69815 0
M  V30 37379 O 3405.07 0.237579 -1.79737 0
M  V30 37380 C 3405.12 -3.2622 -1.53664 0
M  V30 37381 O 3404.22 -3.16159 -2.64796 0
M  V30 37382 H 3403.57 -0.629617 -0.210898 0
M  V30 37383 H 3406.1 -2.04582 -0.0270393 0
M  V30 37384 H 3406.11 -3.60334 -1.91373 0
M  V30 37385 H 3404.78 -4.06917 -0.859727 0
M  V30 37386 H 3403.36 -2.93622 -2.29871 0
M  V30 37387 N 3405.54 0.333401 -1.54033 0
M  V30 37388 C 3406.51 1.39285 -1.82023 0
M  V30 37389 C 3407.51 1.45165 -0.691649 0
M  V30 37390 O 3408.7 1.45364 -0.95995 0
M  V30 37391 C 3405.83 2.78116 -1.97141 0
M  V30 37392 H 3407.02 1.15725 -2.76673 0
M  V30 37393 H 3404.57 0.568351 -1.456 0
M  V30 37394 H 3405.31 3.06945 -1.04669 0
M  V30 37395 H 3405.09 2.75242 -2.79256 0
M  V30 37396 H 3406.58 3.54778 -2.20277 0
M  V30 37397 N 3407.02 1.45939 0.594952 0
M  V30 37398 C 3408.27 1.49884 1.34973 0
M  V30 37399 C 3408.58 0.149864 1.95025 0
M  V30 37400 O 3409.79 0.0670345 2.71417 0
M  V30 37401 C 3408.24 2.64044 2.44558 0
M  V30 37402 C 3407.85 4.05309 1.90863 0
M  V30 37403 C 3409.6 2.77248 3.21456 0
M  V30 37404 C 3407.5 5.1083 2.98004 0
M  V30 37405 H 3406.43 0.557769 0.507356 0
M  V30 37406 H 3409.08 1.72115 0.636285 0
M  V30 37407 H 3407.47 2.35119 3.18646 0
M  V30 37408 H 3408.64 4.4397 1.234 0
M  V30 37409 H 3406.96 3.96665 1.26671 0
M  V30 37410 H 3409.55 3.53253 4.01393 0
M  V30 37411 H 3409.9 1.84328 3.73268 0
M  V30 37412 H 3410.43 3.0576 2.54471 0
M  V30 37413 H 3407.17 6.05502 2.51094 0
M  V30 37414 H 3406.69 4.76726 3.63994 0
M  V30 37415 H 3408.37 5.36137 3.62169 0
M  V30 37416 N 3408.5 -0.838547 1.3344 0
M  V30 37417 C 3409.72 -1.63111 1.281 0
M  V30 37418 C 3410.15 -1.87539 -0.145164 0
M  V30 37419 O 3409.51 -1.43973 -1.10189 0
M  V30 37420 C 3409.55 -2.95823 2.06206 0
M  V30 37421 O 3408.66 -3.87149 1.42088 0
M  V30 37422 H 3408 -0.496674 0.440694 0
M  V30 37423 H 3410.53 -1.04322 1.76006 0
M  V30 37424 H 3410.54 -3.45518 2.16983 0
M  V30 37425 H 3409.21 -2.77366 3.09905 0
M  V30 37426 H 3407.79 -3.45638 1.39959 0
M  V30 37427 N 3409.98 -1.16914 -1.05683 0
M  V30 37428 C 3411.2 -0.979381 -1.82819 0
M  V30 37429 C 3411.63 0.467543 -1.82197 0
M  V30 37430 O 3410.98 1.33443 -1.2273 0
M  V30 37431 C 3411.03 -1.51897 -3.27047 0
M  V30 37432 O 3410.14 -0.729413 -4.05898 0
M  V30 37433 H 3409.48 -0.348086 -0.565449 0
M  V30 37434 H 3412.01 -1.55295 -1.33209 0
M  V30 37435 H 3412.02 -1.53911 -3.77856 0
M  V30 37436 H 3410.69 -2.57225 -3.26815 0
M  V30 37437 H 3409.27 -0.780285 -3.64645 0
M  V30 37438 N 3411.45 1.24323 -0.968589 0
M  V30 37439 C 3412.73 1.87772 -0.547807 0
M  V30 37440 C 3413.11 1.87231 0.975074 0
M  V30 37441 O 3412.46 1.34556 1.8468 0
M  V30 37442 C 3412.67 3.29844 -1.14035 0
M  V30 37443 C 3414.02 4.06521 -1.22579 0
M  V30 37444 O 3415.04 3.39018 -1.09293 0
M  V30 37445 O 3413.9 5.27299 -1.43588 0
M  V30 37446 H 3410.99 0.806547 -0.182785 0
M  V30 37447 H 3413.54 1.32288 -1.06292 0
M  V30 37448 H 3412.31 3.24741 -2.18309 0
M  V30 37449 H 3411.94 3.92903 -0.609344 0
M  V30 37450 N 3412.93 0.73881 1.3921 0
M  V30 37451 C 3413.88 0.101331 2.30577 0
M  V30 37452 C 3414.85 -0.72559 1.49414 0
M  V30 37453 O 3416.03 -0.684768 1.78089 0
M  V30 37454 C 3413.17 -0.797102 3.35768 0
M  V30 37455 C 3412.29 0.042846 4.31979 0
M  V30 37456 C 3411.42 -0.857214 5.24238 0
M  V30 37457 C 3410.46 -0.0127425 6.12099 0
M  V30 37458 N 3409.6 -0.868944 6.96702 0
M  V30 37459 H 3414.44 0.88611 2.84521 0
M  V30 37460 H 3411.98 0.448627 1.40092 0
M  V30 37461 H 3413.93 -1.33248 3.95349 0
M  V30 37462 H 3412.56 -1.54782 2.83271 0
M  V30 37463 H 3411.62 0.695687 3.73984 0
M  V30 37464 H 3412.93 0.695637 4.93925 0
M  V30 37465 H 3412.08 -1.4603 5.88864 0
M  V30 37466 H 3410.82 -1.54378 4.62622 0
M  V30 37467 H 3409.83 0.603114 5.46482 0
M  V30 37468 H 3411.05 0.670659 6.7578 0
M  V30 37469 H 3409 -1.54073 6.3765 0
M  V30 37470 H 3408.91 -0.272719 7.55508 0
M  V30 37471 H 3410.18 -1.45747 7.65753 0
M  V30 37472 N 3414.41 -1.49895 0.486734 0
M  V30 37473 C 3415.36 -2.25768 -0.318216 0
M  V30 37474 C 3416.34 -1.30009 -0.947967 0
M  V30 37475 O 3417.54 -1.54818 -0.857927 0
M  V30 37476 C 3414.67 -3.13878 -1.39051 0
M  V30 37477 C 3413.75 -4.17093 -0.767714 0
M  V30 37478 N 3414.14 -5.05655 0.121252 0
M  V30 37479 C 3412.44 -4.33946 -1.02991 0
M  V30 37480 C 3413.14 -5.79747 0.476312 0
M  V30 37481 N 3412.12 -5.43387 -0.152326 0
M  V30 37482 H 3415.92 -2.91608 0.366345 0
M  V30 37483 H 3413.43 -1.5957 0.301881 0
M  V30 37484 H 3415.43 -3.66854 -1.9805 0
M  V30 37485 H 3414.09 -2.4959 -2.0769 0
M  V30 37486 H 3415.1 -5.15566 0.491134 0
M  V30 37487 H 3411.78 -3.80869 -1.71012 0
M  V30 37488 H 3413.17 -6.61048 1.20273 0
M  V30 37489 N 3415.89 -0.219968 -1.56057 0
M  V30 37490 C 3416.8 0.702181 -2.23845 0
M  V30 37491 C 3417.82 1.21498 -1.24556 0
M  V30 37492 O 3418.99 1.25692 -1.57364 0
M  V30 37493 C 3416.06 1.89411 -2.90387 0
M  V30 37494 C 3415.12 1.42344 -4.05014 0
M  V30 37495 C 3414.35 2.55855 -4.68374 0
M  V30 37496 O 3414.57 3.73951 -4.30717 0
M  V30 37497 O 3413.51 2.27147 -5.57394 0
M  V30 37498 H 3417.33 0.154726 -3.03306 0
M  V30 37499 H 3414.92 0.0104118 -1.49396 0
M  V30 37500 H 3416.8 2.59022 -3.32393 0
M  V30 37501 H 3415.48 2.42969 -2.13887 0
M  V30 37502 H 3414.38 0.695383 -3.6758 0
M  V30 37503 H 3415.72 0.934247 -4.83252 0
M  V30 37504 N 3417.37 1.57509 0.0534363 0
M  V30 37505 C 3418.61 1.88415 0.750179 0
M  V30 37506 C 3418.95 0.81465 1.76287 0
M  V30 37507 O 3418.22 -0.173102 1.93728 0
M  V30 37508 C 3418.5 3.2998 1.44171 0
M  V30 37509 C 3418.36 4.47601 0.444185 0
M  V30 37510 C 3419.68 3.70066 2.382 0
M  V30 37511 H 3416.8 0.685267 0.271254 0
M  V30 37512 H 3419.44 1.89995 0.0131342 0
M  V30 37513 H 3417.59 3.28763 2.06995 0
M  V30 37514 H 3419.26 4.60948 -0.180263 0
M  V30 37515 H 3417.5 4.33142 -0.238847 0
M  V30 37516 H 3418.17 5.43481 0.966038 0
M  V30 37517 H 3420.65 3.72493 1.8544 0
M  V30 37518 H 3419.53 4.69972 2.83579 0
M  V30 37519 H 3419.79 3.00991 3.23816 0
M  V30 37520 N 3418.85 -0.325228 1.54208 0
M  V30 37521 C 3420.07 -1.08733 1.76612 0
M  V30 37522 C 3420.5 -1.80984 0.512481 0
M  V30 37523 O 3419.85 -1.73199 -0.535882 0
M  V30 37524 C 3419.9 -2.06238 2.95801 0
M  V30 37525 O 3419.01 -3.14105 2.6723 0
M  V30 37526 H 3418.35 -0.313583 0.585288 0
M  V30 37527 H 3420.88 -0.370031 2.01226 0
M  V30 37528 H 3420.89 -2.49137 3.23102 0
M  V30 37529 H 3419.56 -1.53051 3.86715 0
M  V30 37530 H 3418.14 -2.75892 2.50874 0
M  V30 37531 N 3420.32 -1.46252 -0.587204 0
M  V30 37532 C 3421.29 -1.56063 -1.6786 0
M  V30 37533 C 3422.29 -0.438189 -1.54714 0
M  V30 37534 O 3423.48 -0.702351 -1.59414 0
M  V30 37535 C 3420.61 -1.47664 -3.07259 0
M  V30 37536 H 3421.8 -2.53324 -1.60521 0
M  V30 37537 H 3419.35 -1.33996 -0.804667 0
M  V30 37538 H 3420.09 -0.516657 -3.20158 0
M  V30 37539 H 3419.87 -2.29097 -3.18209 0
M  V30 37540 H 3421.36 -1.57606 -3.86717 0
M  V30 37541 N 3421.8 0.831459 -1.33883 0
M  V30 37542 C 3423.03 1.62429 -1.28964 0
M  V30 37543 C 3423.45 1.87613 0.135216 0
M  V30 37544 O 3422.81 1.44555 1.09424 0
M  V30 37545 C 3422.86 2.94725 -2.07772 0
M  V30 37546 O 3421.96 3.8639 -1.4414 0
M  V30 37547 H 3421.3 0.494329 -0.443322 0
M  V30 37548 H 3423.83 1.03387 -1.76557 0
M  V30 37549 H 3423.84 3.44362 -2.18812 0
M  V30 37550 H 3422.52 2.75718 -3.11372 0
M  V30 37551 H 3421.09 3.44891 -1.4179 0
M  V30 37552 N 3423.28 1.17472 1.05062 0
M  V30 37553 C 3424.51 0.988496 1.81759 0
M  V30 37554 C 3424.92 -0.46324 1.83029 0
M  V30 37555 O 3424.28 -1.32169 1.25848 0
M  V30 37556 C 3424.33 1.52376 3.27817 0
M  V30 37557 O 3424.05 2.91865 3.26721 0
M  V30 37558 C 3425.55 1.3823 4.21197 0
M  V30 37559 H 3422.77 0.349641 0.572706 0
M  V30 37560 H 3425.32 1.55791 1.32474 0
M  V30 37561 H 3423.47 0.996338 3.74369 0
M  V30 37562 H 3423.89 3.1663 4.18145 0
M  V30 37563 H 3425.36 1.80494 5.21657 0
M  V30 37564 H 3425.84 0.329568 4.37962 0
M  V30 37565 H 3426.44 1.89995 3.80502 0
M  V30 37566 N 3424.76 -1.23807 0.975168 0
M  V30 37567 C 3425.69 -2.24346 0.46919 0
M  V30 37568 C 3426.7 -1.57124 -0.426129 0
M  V30 37569 O 3427.89 -1.76998 -0.231105 0
M  V30 37570 C 3424.99 -3.37179 -0.34115 0
M  V30 37571 C 3424.16 -4.33978 0.546044 0
M  V30 37572 C 3423.22 -5.25783 -0.209555 0
M  V30 37573 O 3422.25 -5.67799 0.399053 0
M  V30 37574 N 3423.45 -5.60865 -1.49704 0
M  V30 37575 H 3426.22 -2.68392 1.33364 0
M  V30 37576 H 3423.78 -1.37925 0.847838 0
M  V30 37577 H 3425.77 -3.95568 -0.854854 0
M  V30 37578 H 3424.34 -2.92359 -1.10658 0
M  V30 37579 H 3423.56 -3.74168 1.24064 0
M  V30 37580 H 3424.85 -4.95613 1.15086 0
M  V30 37581 H 3424.25 -5.28669 -2.0131 0
M  V30 37582 H 3422.8 -6.2175 -1.95628 0
M  V30 37583 N 3426.24 -0.746182 -1.38816 0
M  V30 37584 C 3427.46 -0.308338 -2.05095 0
M  V30 37585 C 3427.89 1.05241 -1.55903 0
M  V30 37586 O 3427.24 1.66916 -0.707715 0
M  V30 37587 C 3427.29 -0.33208 -3.59068 0
M  V30 37588 O 3426.4 0.676476 -4.06814 0
M  V30 37589 H 3425.74 -0.137912 -0.64952 0
M  V30 37590 H 3428.27 -1.01523 -1.77635 0
M  V30 37591 H 3428.28 -0.180365 -4.07601 0
M  V30 37592 H 3426.95 -1.32494 -3.94231 0
M  V30 37593 H 3425.53 0.489981 -3.69667 0
M  V30 37594 N 3427.71 1.49635 -0.494676 0
M  V30 37595 C 3428.94 2.06842 0.0490766 0
M  V30 37596 C 3429.36 1.35578 1.31393 0
M  V30 37597 O 3428.71 0.432166 1.77309 0
M  V30 37598 C 3428.76 3.60141 0.313108 0
M  V30 37599 O 3428.49 4.28722 -0.901596 0
M  V30 37600 C 3429.99 4.34043 0.901207 0
M  V30 37601 H 3427.21 0.670768 -0.0176304 0
M  V30 37602 H 3429.75 1.925 -0.690222 0
M  V30 37603 H 3427.91 3.74207 1.00238 0
M  V30 37604 H 3428.32 5.20324 -0.660568 0
M  V30 37605 H 3429.79 5.42199 1.03557 0
M  V30 37606 H 3430.27 3.961 1.8974 0
M  V30 37607 H 3430.88 4.24567 0.249602 0
M  V30 37608 N 3429.19 0.228241 1.55939 0
M  V30 37609 C 3430.6 -0.278384 1.84613 0
M  V30 37610 C 3430.95 -1.58981 1.14976 0
M  V30 37611 O 3430.08 -2.12251 0.421711 0
M  V30 37612 C 3430.67 -0.511876 3.34911 0
M  V30 37613 C 3429.23 -0.962797 3.63878 0
M  V30 37614 C 3428.38 -0.0295758 2.77284 0
M  V30 37615 H 3431.33 0.451272 1.52149 0
M  V30 37616 H 3431.35 -1.357 3.55479 0
M  V30 37617 H 3430.86 0.442765 3.85566 0
M  V30 37618 H 3428.96 -1.93056 3.18685 0
M  V30 37619 H 3429.08 -0.832576 4.7181 0
M  V30 37620 H 3427.44 -0.537586 2.48962 0
M  V30 37621 H 3428.22 0.920102 3.3074 0
M  V30 37622 N 3430.67 -1.57536 -0.0450825 0
M  V30 37623 C 3431.63 -2.04492 -1.03517 0
M  V30 37624 C 3432.63 -0.946288 -1.30008 0
M  V30 37625 O 3433.82 -1.2104 -1.2528 0
M  V30 37626 C 3430.96 -2.44828 -2.37217 0
M  V30 37627 H 3432.15 -2.9321 -0.629891 0
M  V30 37628 H 3429.7 -1.53557 -0.291517 0
M  V30 37629 H 3430.44 -1.59217 -2.82525 0
M  V30 37630 H 3430.22 -3.25022 -2.19324 0
M  V30 37631 H 3431.71 -2.8164 -3.08332 0
M  V30 37632 N 3432.15 0.317045 -1.54378 0
M  V30 37633 C 3433.37 1.07795 -1.77186 0
M  V30 37634 C 3433.8 1.8071 -0.522072 0
M  V30 37635 O 3433.16 1.73481 0.52669 0
M  V30 37636 C 3433.2 2.04666 -2.96891 0
M  V30 37637 O 3432.31 3.12683 -2.68892 0
M  V30 37638 H 3431.65 0.310474 -0.586943 0
M  V30 37639 H 3434.18 0.359354 -2.01419 0
M  V30 37640 H 3434.19 2.4742 -3.24418 0
M  V30 37641 H 3432.86 1.50998 -3.87521 0
M  V30 37642 H 3431.44 2.74558 -2.52334 0
M  V30 37643 N 3433.63 1.46561 0.57944 0
M  V30 37644 C 3434.85 1.55857 1.36834 0
M  V30 37645 C 3435.28 0.201443 1.87018 0
M  V30 37646 O 3434.63 -0.818982 1.61748 0
M  V30 37647 C 3434.68 2.56989 2.5296 0
M  V30 37648 O 3433.79 2.10719 3.54501 0
M  V30 37649 H 3433.13 0.524352 0.40737 0
M  V30 37650 H 3435.66 1.92161 0.702524 0
M  V30 37651 H 3435.67 2.76702 2.99833 0
M  V30 37652 H 3434.34 3.5554 2.15787 0
M  V30 37653 H 3432.92 2.01009 3.14086 0
M  V30 37654 N 3435.1 -0.824347 1.34322 0
M  V30 37655 C 3436.52 -1.11725 1.13972 0
M  V30 37656 C 3436.72 -2.01411 -0.0597243 0
M  V30 37657 O 3435.78 -2.41545 -0.735674 0
M  V30 37658 C 3437.09 -1.76533 2.43426 0
M  V30 37659 C 3438.64 -1.89035 2.49469 0
M  V30 37660 C 3439.11 -2.57259 3.78922 0
M  V30 37661 N 3440.6 -2.6476 3.80074 0
M  V30 37662 C 3441.34 -3.18274 4.76958 0
M  V30 37663 N 3440.83 -3.72363 5.84224 0
M  V30 37664 N 3442.63 -3.16662 4.64416 0
M  V30 37665 H 3434.78 -0.227765 2.11175 0
M  V30 37666 H 3437.04 -0.163599 0.933777 0
M  V30 37667 H 3436.75 -1.18096 3.3128 0
M  V30 37668 H 3436.62 -2.76415 2.5666 0
M  V30 37669 H 3439.01 -2.46621 1.62056 0
M  V30 37670 H 3439.09 -0.880593 2.40165 0
M  V30 37671 H 3438.73 -2.00328 4.66724 0
M  V30 37672 H 3438.66 -3.58735 3.85508 0
M  V30 37673 H 3441.15 -2.26419 3.0256 0
M  V30 37674 H 3441.47 -4.11443 6.54167 0
M  V30 37675 H 3439.81 -3.7061 5.8794 0
M  V30 37676 H 3443 -2.73672 3.79765 0
M  V30 37677 H 3443.18 -3.58063 5.40088 0
M  V30 37678 N 3436.58 -1.18028 -1.04437 0
M  V30 37679 C 3437.55 -0.906065 -2.10531 0
M  V30 37680 C 3438.55 0.106994 -1.60444 0
M  V30 37681 O 3439.74 -0.126032 -1.73743 0
M  V30 37682 C 3436.87 -0.358685 -3.39008 0
M  V30 37683 H 3438.06 -1.84681 -2.3629 0
M  V30 37684 H 3435.61 -0.991785 -1.20803 0
M  V30 37685 H 3436.35 0.588848 -3.18909 0
M  V30 37686 H 3436.13 -1.08891 -3.76676 0
M  V30 37687 H 3437.62 -0.185404 -4.17188 0
M  V30 37688 N 3438.06 1.23288 -0.98172 0
M  V30 37689 C 3438.99 2.24094 -0.481081 0
M  V30 37690 C 3440.01 1.57348 0.41779 0
M  V30 37691 O 3441.19 1.77118 0.221715 0
M  V30 37692 C 3438.29 3.37355 0.323264 0
M  V30 37693 C 3437.47 4.33683 -0.569051 0
M  V30 37694 C 3436.53 5.25886 0.181669 0
M  V30 37695 O 3435.55 5.6758 -0.429159 0
M  V30 37696 N 3436.75 5.61651 1.46727 0
M  V30 37697 H 3439.52 2.67681 -1.34786 0
M  V30 37698 H 3437.08 1.37473 -0.855141 0
M  V30 37699 H 3439.07 3.96016 0.833864 0
M  V30 37700 H 3437.64 2.92942 1.09106 0
M  V30 37701 H 3436.86 3.73505 -1.26047 0
M  V30 37702 H 3438.15 4.94996 -1.17713 0
M  V30 37703 H 3437.55 5.29729 1.98504 0
M  V30 37704 H 3436.11 6.22778 1.92328 0
M  V30 37705 N 3439.54 0.753533 1.38418 0
M  V30 37706 C 3440.77 0.320485 2.04403 0
M  V30 37707 C 3441.18 -1.05116 1.56832 0
M  V30 37708 O 3440.54 -1.66763 0.741364 0
M  V30 37709 C 3440.59 0.334 3.59954 0
M  V30 37710 O 3440.31 1.65151 4.05779 0
M  V30 37711 C 3441.81 -0.11292 4.43156 0
M  V30 37712 H 3439.03 0.136938 0.656878 0
M  V30 37713 H 3441.58 1.02237 1.7711 0
M  V30 37714 H 3439.73 -0.319147 3.86083 0
M  V30 37715 H 3440.14 1.57766 5.0021 0
M  V30 37716 H 3441.62 -0.0523025 5.51975 0
M  V30 37717 H 3442.1 -1.16079 4.23583 0
M  V30 37718 H 3442.7 0.511352 4.22215 0
M  V30 37719 N 3441.02 -1.49371 0.502605 0
M  V30 37720 C 3441.95 -2.32 -0.264266 0
M  V30 37721 C 3442.93 -1.40349 -0.961045 0
M  V30 37722 O 3444.11 -1.69257 -0.952137 0
M  V30 37723 C 3441.24 -3.20901 -1.32816 0
M  V30 37724 C 3440.2 -4.21357 -0.751162 0
M  V30 37725 C 3439.52 -4.99205 -1.91569 0
M  V30 37726 C 3440.82 -5.21658 0.258856 0
M  V30 37727 H 3442.52 -2.96362 0.425443 0
M  V30 37728 H 3440.06 -1.42518 0.206047 0
M  V30 37729 H 3442.02 -3.77518 -1.87238 0
M  V30 37730 H 3440.74 -2.54484 -2.04708 0
M  V30 37731 H 3439.4 -3.65886 -0.228679 0
M  V30 37732 H 3439.05 -4.29235 -2.62233 0
M  V30 37733 H 3438.75 -5.67178 -1.53568 0
M  V30 37734 H 3440.27 -5.58667 -2.46422 0
M  V30 37735 H 3441.68 -5.7296 -0.197285 0
M  V30 37736 H 3440.08 -5.9753 0.554786 0
M  V30 37737 H 3441.15 -4.70469 1.17418 0
M  V30 37738 N 3442.49 -0.236508 -1.55815 0
M  V30 37739 C 3443.91 0.26859 -1.84758 0
M  V30 37740 C 3444.26 1.58369 -1.15817 0
M  V30 37741 O 3443.38 2.12025 -0.432961 0
M  V30 37742 C 3443.98 0.494108 -3.35178 0
M  V30 37743 C 3442.54 0.943487 -3.64383 0
M  V30 37744 C 3441.68 0.0148704 -2.77296 0
M  V30 37745 H 3444.63 -0.459335 -1.51907 0
M  V30 37746 H 3444.65 1.33813 -3.56194 0
M  V30 37747 H 3444.17 -0.463206 -3.85326 0
M  V30 37748 H 3442.27 1.91363 -3.19704 0
M  V30 37749 H 3442.38 0.807543 -4.72245 0
M  V30 37750 H 3440.74 0.524376 -2.49244 0
M  V30 37751 H 3441.53 -0.937629 -3.30247 0
M  V30 37752 N 3443.97 1.57557 0.0367273 0
M  V30 37753 C 3445.2 1.93174 0.741052 0
M  V30 37754 C 3445.62 0.835619 1.69301 0
M  V30 37755 O 3444.97 -0.188568 1.81523 0
M  V30 37756 C 3445.02 3.28696 1.50471 0
M  V30 37757 O 3444.74 4.34096 0.59097 0
M  V30 37758 C 3446.25 3.78547 2.30688 0
M  V30 37759 H 3443.47 0.637712 0.20872 0
M  V30 37760 H 3446.01 2.045 -0.00346371 0
M  V30 37761 H 3444.16 3.1879 2.20117 0
M  V30 37762 H 3444.58 5.12278 1.1257 0
M  V30 37763 H 3446.05 4.75905 2.79676 0
M  V30 37764 H 3446.53 3.09345 3.11773 0
M  V30 37765 H 3447.14 3.91511 1.66131 0
M  V30 37766 N 3445.45 -0.308854 1.54544 0
M  V30 37767 C 3446.68 -1.06854 1.77755 0
M  V30 37768 C 3447.1 -1.8043 0.531648 0
M  V30 37769 O 3446.46 -1.73758 -0.517482 0
M  V30 37770 C 3446.51 -2.03089 2.97972 0
M  V30 37771 O 3445.61 -3.11253 2.70547 0
M  V30 37772 H 3444.95 -0.307357 0.588581 0
M  V30 37773 H 3447.48 -0.348667 2.01607 0
M  V30 37774 H 3447.49 -2.45696 3.25726 0
M  V30 37775 H 3446.17 -1.48941 3.88316 0
M  V30 37776 H 3444.74 -2.73216 2.53786 0
M  V30 37777 N 3446.93 -1.46867 -0.571659 0
M  V30 37778 C 3448.18 -1.52974 -1.33142 0
M  V30 37779 C 3448.51 -0.185378 -1.93313 0
M  V30 37780 O 3447.78 0.804439 -1.77085 0
M  V30 37781 C 3448.07 -2.63679 -2.45246 0
M  V30 37782 C 3447.92 -4.07684 -1.90037 0
M  V30 37783 C 3449.24 -2.7039 -3.47243 0
M  V30 37784 H 3446.36 -0.556893 -0.482741 0
M  V30 37785 H 3449 -1.78856 -0.641132 0
M  V30 37786 H 3447.15 -2.41741 -3.04128 0
M  V30 37787 H 3448.82 -4.40942 -1.35527 0
M  V30 37788 H 3447.06 -4.16642 -1.20797 0
M  V30 37789 H 3447.74 -4.80892 -2.71011 0
M  V30 37790 H 3450.21 -2.9014 -2.98258 0
M  V30 37791 H 3449.09 -3.4965 -4.23126 0
M  V30 37792 H 3449.35 -1.76875 -4.05176 0
M  V30 37793 N 3448.41 0.817212 -1.34757 0
M  V30 37794 C 3449.65 1.57608 -1.27623 0
M  V30 37795 C 3449.99 1.93604 0.151983 0
M  V30 37796 O 3449.26 1.6049 1.09878 0
M  V30 37797 C 3449.54 2.87179 -2.17256 0
M  V30 37798 C 3449.4 2.57726 -3.68642 0
M  V30 37799 C 3450.72 3.88798 -2.06213 0
M  V30 37800 H 3447.84 0.571837 -0.464943 0
M  V30 37801 H 3450.48 0.940999 -1.65061 0
M  V30 37802 H 3448.63 3.41376 -1.85458 0
M  V30 37803 H 3450.3 2.09795 -4.10833 0
M  V30 37804 H 3448.54 1.91082 -3.89449 0
M  V30 37805 H 3449.21 3.50148 -4.26732 0
M  V30 37806 H 3451.69 3.43971 -2.34143 0
M  V30 37807 H 3450.57 4.77254 -2.71145 0
M  V30 37808 H 3450.83 4.29673 -1.04083 0
M  V30 37809 N 3449.89 1.1858 1.0381 0
M  V30 37810 C 3451.11 1.00772 1.807 0
M  V30 37811 C 3451.53 -0.443801 1.8351 0
M  V30 37812 O 3450.89 -1.30826 1.27243 0
M  V30 37813 C 3450.94 1.55844 3.26182 0
M  V30 37814 O 3450.66 2.95313 3.23607 0
M  V30 37815 C 3452.16 1.4269 4.19708 0
M  V30 37816 H 3449.38 0.355695 0.568966 0
M  V30 37817 H 3451.92 1.57187 1.30814 0
M  V30 37818 H 3450.08 1.03599 3.73291 0
M  V30 37819 H 3450.49 3.21047 4.14764 0
M  V30 37820 H 3451.97 1.86017 5.19713 0
M  V30 37821 H 3452.44 0.376001 4.37588 0
M  V30 37822 H 3453.05 1.9402 3.78466 0
M  V30 37823 N 3451.36 -1.22766 0.988245 0
M  V30 37824 C 3452.61 -1.90701 0.656974 0
M  V30 37825 C 3452.93 -1.77857 -0.814027 0
M  V30 37826 O 3454.13 -2.40665 -1.25669 0
M  V30 37827 C 3452.59 -3.41881 1.12451 0
M  V30 37828 C 3452.2 -3.63371 2.62041 0
M  V30 37829 C 3453.94 -4.15545 0.86735 0
M  V30 37830 C 3451.85 -5.08228 3.02421 0
M  V30 37831 H 3450.78 -0.714101 0.242024 0
M  V30 37832 H 3453.43 -1.39067 1.19719 0
M  V30 37833 H 3451.81 -3.9267 0.512455 0
M  V30 37834 H 3452.98 -3.23095 3.28552 0
M  V30 37835 H 3451.3 -3.03032 2.85588 0
M  V30 37836 H 3453.9 -5.22301 1.1448 0
M  V30 37837 H 3454.24 -4.15836 -0.196538 0
M  V30 37838 H 3454.77 -3.70769 1.44137 0
M  V30 37839 H 3451.51 -5.13073 4.07966 0
M  V30 37840 H 3451.03 -5.49424 2.4061 0
M  V30 37841 H 3452.71 -5.76618 2.93462 0
M  V30 37842 N 3452.84 -0.760864 -1.38017 0
M  V30 37843 C 3454.07 -0.331321 -2.0423 0
M  V30 37844 C 3454.48 1.04282 -1.57387 0
M  V30 37845 O 3453.84 1.66368 -0.750198 0
M  V30 37846 C 3453.89 -0.353085 -3.59772 0
M  V30 37847 O 3453.61 -1.67301 -4.04898 0
M  V30 37848 C 3455.11 0.0894163 -4.4321 0
M  V30 37849 H 3452.33 -0.14042 -0.656143 0
M  V30 37850 H 3454.88 -1.03175 -1.76565 0
M  V30 37851 H 3453.03 0.298668 -3.86247 0
M  V30 37852 H 3453.45 -1.60417 -4.99366 0
M  V30 37853 H 3454.92 0.0230292 -5.51995 0
M  V30 37854 H 3455.4 1.13831 -4.24192 0
M  V30 37855 H 3456 -0.533736 -4.21938 0
M  V30 37856 N 3454.32 1.49102 -0.510519 0
M  V30 37857 C 3455.54 2.07379 0.0292749 0
M  V30 37858 C 3455.97 1.36715 1.29192 0
M  V30 37859 O 3455.33 0.426869 1.76203 0
M  V30 37860 C 3455.38 3.59689 0.256227 0
M  V30 37861 O 3454.48 3.90399 1.329 0
M  V30 37862 H 3453.82 0.663301 -0.0304565 0
M  V30 37863 H 3456.35 1.9178 -0.712866 0
M  V30 37864 H 3456.36 4.05109 0.484843 0
M  V30 37865 H 3455.04 4.10529 -0.666235 0
M  V30 37866 H 3453.61 3.56779 1.08458 0
M  V30 37867 N 3455.8 0.244768 1.55688 0
M  V30 37868 C 3456.71 -0.66648 2.24934 0
M  V30 37869 C 3457.72 -1.19501 1.26473 0
M  V30 37870 O 3458.9 -1.23173 1.59344 0
M  V30 37871 C 3455.96 -1.84767 2.93363 0
M  V30 37872 C 3455.03 -1.35882 4.07228 0
M  V30 37873 C 3454.26 -2.48371 4.72385 0
M  V30 37874 O 3454.48 -3.67051 4.36611 0
M  V30 37875 O 3453.42 -2.18251 5.60937 0
M  V30 37876 H 3457.24 -0.106453 3.03513 0
M  V30 37877 H 3454.83 0.0133572 1.49394 0
M  V30 37878 H 3456.71 -2.53702 3.36472 0
M  V30 37879 H 3455.38 -2.39536 2.17725 0
M  V30 37880 H 3454.29 -0.636817 3.6864 0
M  V30 37881 H 3455.62 -0.857248 4.84677 0
M  V30 37882 N 3457.28 -1.57574 -0.0283712 0
M  V30 37883 C 3458.5 -1.93958 -0.734503 0
M  V30 37884 C 3458.93 -0.844817 -1.68061 0
M  V30 37885 O 3458.28 0.1994 -1.802 0
M  V30 37886 C 3458.33 -3.29406 -1.4671 0
M  V30 37887 O 3457.44 -3.21705 -2.5803 0
M  V30 37888 H 3456.78 -0.633949 -0.197496 0
M  V30 37889 H 3459.31 -2.04593 0.0163617 0
M  V30 37890 H 3459.32 -3.64312 -1.83687 0
M  V30 37891 H 3457.99 -4.08649 -0.77322 0
M  V30 37892 H 3456.57 -2.98431 -2.23591 0
M  V30 37893 N 3458.75 0.300654 -1.54706 0
M  V30 37894 C 3459.98 1.0591 -1.7832 0
M  V30 37895 C 3460.4 1.80146 -0.541209 0
M  V30 37896 O 3459.76 1.7403 0.50826 0
M  V30 37897 C 3459.81 2.01506 -2.99045 0
M  V30 37898 O 3458.91 3.09814 -2.72194 0
M  V30 37899 H 3458.25 0.304232 -0.590203 0
M  V30 37900 H 3460.78 0.337971 -2.01789 0
M  V30 37901 H 3460.79 2.43965 -3.27024 0
M  V30 37902 H 3459.47 1.46879 -3.89101 0
M  V30 37903 H 3458.05 2.71866 -2.55232 0
M  V30 37904 N 3460.23 1.47168 0.563863 0
M  V30 37905 C 3461.64 1.4739 1.146 0
M  V30 37906 C 3461.99 0.22495 1.94906 0
M  V30 37907 O 3461.12 -0.670636 2.05746 0
M  V30 37908 C 3461.71 2.67048 2.08497 0
M  V30 37909 C 3460.27 2.7025 2.61996 0
M  V30 37910 C 3459.42 2.40385 1.3824 0
M  V30 37911 H 3462.37 1.54774 0.350805 0
M  V30 37912 H 3462.39 2.43639 2.92267 0
M  V30 37913 H 3461.9 3.57932 1.50021 0
M  V30 37914 H 3460.01 1.83488 3.24288 0
M  V30 37915 H 3460.12 3.70754 3.03444 0
M  V30 37916 H 3458.48 1.9083 1.68689 0
M  V30 37917 H 3459.27 3.33469 0.815667 0
M  V30 37918 N 3461.71 -0.810054 1.35188 0
M  V30 37919 C 3462.96 -1.56387 1.28014 0
M  V30 37920 C 3463.28 -1.94451 -0.146186 0
M  V30 37921 O 3462.55 -1.6332 -1.08182 0
M  V30 37922 H 3461.13 -0.579924 0.470847 0
M  V30 37923 H 3463.79 -0.966447 1.69251 0
M  V30 37924 H 3462.89 -2.48087 1.89366 0
M  V30 37925 N 3463.19 -1.19129 -1.0318 0
M  V30 37926 C 3464.14 -0.926376 -2.11393 0
M  V30 37927 C 3465.11 0.137674 -1.65528 0
M  V30 37928 O 3466.29 -0.00385158 -1.908 0
M  V30 37929 C 3463.43 -0.467954 -3.41913 0
M  V30 37930 C 3462.54 -1.59844 -4.0134 0
M  V30 37931 C 3461.68 -1.09185 -5.19858 0
M  V30 37932 C 3460.72 -2.19642 -5.71335 0
M  V30 37933 N 3459.85 -1.70311 -6.8113 0
M  V30 37934 H 3464.69 -1.85292 -2.3339 0
M  V30 37935 H 3462.23 -0.923832 -1.14472 0
M  V30 37936 H 3464.19 -0.183586 -4.16796 0
M  V30 37937 H 3462.82 0.4216 -3.20035 0
M  V30 37938 H 3461.87 -1.99808 -3.23699 0
M  V30 37939 H 3463.18 -2.43075 -4.35564 0
M  V30 37940 H 3462.34 -0.762533 -6.01889 0
M  V30 37941 H 3461.08 -0.229225 -4.87161 0
M  V30 37942 H 3460.08 -2.53407 -4.87919 0
M  V30 37943 H 3461.31 -3.06355 -6.06072 0
M  V30 37944 H 3459.25 -0.863529 -6.50292 0
M  V30 37945 H 3459.17 -2.47134 -7.14465 0
M  V30 37946 H 3460.44 -1.40335 -7.66764 0
M  V30 37947 N 3464.67 1.2224 -0.994741 0
M  V30 37948 C 3466.08 1.43146 -0.705787 0
M  V30 37949 C 3466.28 1.88087 0.722875 0
M  V30 37950 O 3465.34 2.03591 1.49355 0
M  V30 37951 C 3466.65 2.47142 -1.71293 0
M  V30 37952 C 3468.2 2.60939 -1.72858 0
M  V30 37953 C 3468.67 3.68158 -2.7244 0
M  V30 37954 N 3470.17 3.75618 -2.71045 0
M  V30 37955 C 3470.9 4.58178 -3.44762 0
M  V30 37956 N 3470.4 5.44716 -4.28084 0
M  V30 37957 N 3472.19 4.52506 -3.33459 0
M  V30 37958 H 3464.34 0.913758 -1.9174 0
M  V30 37959 H 3466.6 0.463389 -0.827028 0
M  V30 37960 H 3466.31 2.2107 -2.73534 0
M  V30 37961 H 3466.18 3.45776 -1.50727 0
M  V30 37962 H 3468.57 2.86354 -0.713135 0
M  V30 37963 H 3468.65 1.62574 -1.97493 0
M  V30 37964 H 3468.3 3.4349 -3.74135 0
M  V30 37965 H 3468.23 4.66097 -2.45074 0
M  V30 37966 H 3470.72 3.13786 -2.10586 0
M  V30 37967 H 3471.03 6.0474 -4.81154 0
M  V30 37968 H 3469.37 5.44292 -4.32171 0
M  V30 37969 H 3472.57 3.83925 -2.67804 0
M  V30 37970 H 3472.74 5.16616 -3.91167 0
M  V30 37971 N 3466.14 0.768172 1.37611 0
M  V30 37972 C 3467.05 0.15269 2.34103 0
M  V30 37973 C 3468.07 -0.683783 1.60001 0
M  V30 37974 O 3469.25 -0.604538 1.92113 0
M  V30 37975 C 3466.31 -0.718894 3.39165 0
M  V30 37976 C 3465.37 0.133625 4.29092 0
M  V30 37977 C 3464.61 -0.696454 5.29136 0
M  V30 37978 O 3464.83 -1.93374 5.36622 0
M  V30 37979 O 3463.76 -0.107546 6.01804 0
M  V30 37980 H 3467.59 0.94995 2.88461 0
M  V30 37981 H 3465.17 0.529277 1.3971 0
M  V30 37982 H 3467.06 -1.21658 4.03457 0
M  V30 37983 H 3465.73 -1.4944 2.8714 0
M  V30 37984 H 3464.64 0.677592 3.67912 0
M  V30 37985 H 3465.97 0.872133 4.84412 0
M  V30 37986 N 3467.62 -1.48829 0.518419 0
M  V30 37987 C 3468.57 -2.29435 -0.250644 0
M  V30 37988 C 3469.54 -1.36635 -0.944457 0
M  V30 37989 O 3470.72 -1.65598 -0.947737 0
M  V30 37990 C 3467.86 -3.19733 -1.29865 0
M  V30 37991 C 3466.98 -4.27602 -0.614854 0
M  V30 37992 C 3466.11 -5.05094 -1.6448 0
M  V30 37993 C 3465.15 -6.0478 -0.943826 0
M  V30 37994 N 3464.29 -6.75372 -1.91877 0
M  V30 37995 H 3469.13 -2.9469 0.442932 0
M  V30 37996 H 3466.67 -1.45286 0.230272 0
M  V30 37997 H 3468.62 -3.70475 -1.91844 0
M  V30 37998 H 3467.25 -2.56425 -1.96076 0
M  V30 37999 H 3466.31 -3.80215 0.118619 0
M  V30 38000 H 3467.62 -4.98759 -0.0639064 0
M  V30 38001 H 3466.77 -5.59792 -2.33918 0
M  V30 38002 H 3465.51 -4.3375 -2.22963 0
M  V30 38003 H 3464.52 -5.49296 -0.235311 0
M  V30 38004 H 3465.74 -6.78117 -0.365263 0
M  V30 38005 H 3463.69 -6.06787 -2.4929 0
M  V30 38006 H 3463.6 -7.42564 -1.41896 0
M  V30 38007 H 3464.87 -7.34666 -2.6055 0
M  V30 38008 N 3469.1 -0.253021 -1.55556 0
M  V30 38009 C 3470.38 0.420663 -1.91023 0
M  V30 38010 C 3470.76 1.75407 -1.17455 0
M  V30 38011 O 3470.11 2.266 -0.294039 0
M  V30 38012 C 3470.32 0.582726 -3.44101 0
M  V30 38013 C 3471.66 0.8758 -4.15469 0
M  V30 38014 O 3472.69 0.668364 -3.49873 0
M  V30 38015 O 3471.55 1.27119 -5.3151 0
M  V30 38016 H 3468.64 0.226762 -0.795304 0
M  V30 38017 H 3471.19 -0.29754 -1.67071 0
M  V30 38018 H 3469.96 -0.356542 -3.89672 0
M  V30 38019 H 3469.58 1.35124 -3.73935 0
M  V30 38020 N 3470.58 1.57587 0.0200142 0
M  V30 38021 C 3471.53 2.07146 1.0178 0
M  V30 38022 C 3472.5 0.962525 1.35369 0
M  V30 38023 O 3473.68 1.23368 1.45551 0
M  V30 38024 C 3470.82 2.56306 2.31087 0
M  V30 38025 C 3469.93 3.81025 2.03577 0
M  V30 38026 C 3469.07 4.18763 3.26819 0
M  V30 38027 C 3468.11 5.36374 2.94906 0
M  V30 38028 N 3467.24 5.69501 4.10626 0
M  V30 38029 H 3472.08 2.92137 0.588237 0
M  V30 38030 H 3469.62 1.44433 0.278822 0
M  V30 38031 H 3471.58 2.82879 3.06651 0
M  V30 38032 H 3470.21 1.74219 2.71749 0
M  V30 38033 H 3469.26 3.61482 1.18469 0
M  V30 38034 H 3470.57 4.66702 1.76041 0
M  V30 38035 H 3469.73 4.46512 4.10745 0
M  V30 38036 H 3468.47 3.31755 3.57477 0
M  V30 38037 H 3467.47 5.08369 2.09383 0
M  V30 38038 H 3468.7 6.25042 2.65517 0
M  V30 38039 H 3466.64 4.85452 4.41217 0
M  V30 38040 H 3466.56 6.49707 3.86545 0
M  V30 38041 H 3467.83 6.01831 4.95399 0
M  V30 38042 N 3472.06 -0.292445 1.54863 0
M  V30 38043 C 3472.97 -1.38335 1.89474 0
M  V30 38044 C 3473.98 -1.55042 0.78981 0
M  V30 38045 O 3475.16 -1.69542 1.08708 0
M  V30 38046 C 3472.22 -2.72577 2.14249 0
M  V30 38047 C 3471.28 -2.64783 3.37918 0
M  V30 38048 C 3470.52 -3.92623 3.61501 0
M  V30 38049 O 3470.74 -4.92389 2.87939 0
M  V30 38050 O 3469.67 -3.93999 4.55026 0
M  V30 38051 H 3473.5 -1.11984 2.823 0
M  V30 38052 H 3471.09 -0.489267 1.41161 0
M  V30 38053 H 3472.97 -3.51987 2.31696 0
M  V30 38054 H 3471.64 -2.98755 1.24608 0
M  V30 38055 H 3470.55 -1.83815 3.25826 0
M  V30 38056 H 3471.88 -2.43557 4.27716 0
M  V30 38057 N 3473.53 -1.47465 -0.55605 0
M  V30 38058 C 3474.48 -1.60039 -1.66302 0
M  V30 38059 C 3475.45 -0.443376 -1.60073 0
M  V30 38060 O 3476.64 -0.663577 -1.78889 0
M  V30 38061 C 3473.78 -1.62172 -3.04621 0
M  V30 38062 C 3472.89 -2.88798 -3.21278 0
M  V30 38063 C 3472.02 -2.8226 -4.50003 0
M  V30 38064 C 3471.06 -4.03706 -4.60096 0
M  V30 38065 N 3470.2 -3.95397 -5.80177 0
M  V30 38066 H 3475.04 -2.54582 -1.54893 0
M  V30 38067 H 3472.58 -1.26276 -0.754511 0
M  V30 38068 H 3474.54 -1.61392 -3.84719 0
M  V30 38069 H 3473.17 -0.711403 -3.14863 0
M  V30 38070 H 3472.22 -2.9944 -2.34606 0
M  V30 38071 H 3473.53 -3.7873 -3.246 0
M  V30 38072 H 3472.68 -2.79736 -5.38361 0
M  V30 38073 H 3471.42 -1.90013 -4.49162 0
M  V30 38074 H 3470.43 -4.06533 -3.70149 0
M  V30 38075 H 3471.65 -4.97081 -4.62696 0
M  V30 38076 H 3469.6 -3.05954 -5.80283 0
M  V30 38077 H 3469.52 -4.79008 -5.84882 0
M  V30 38078 H 3470.78 -3.96891 -6.70893 0
M  V30 38079 N 3475.01 0.802873 -1.35616 0
M  V30 38080 C 3476.29 1.5473 -1.19657 0
M  V30 38081 C 3476.67 2.09921 0.22279 0
M  V30 38082 O 3476.02 1.92776 1.22677 0
M  V30 38083 C 3476.23 2.65289 -2.26765 0
M  V30 38084 C 3477.58 3.3353 -2.6276 0
M  V30 38085 O 3478.6 2.75563 -2.25707 0
M  V30 38086 O 3477.46 4.38259 -3.26484 0
M  V30 38087 H 3474.55 0.683827 -0.465091 0
M  V30 38088 H 3477.1 0.842514 -1.47308 0
M  V30 38089 H 3475.87 2.22406 -3.21949 0
M  V30 38090 H 3475.49 3.434 -2.00405 0
M  V30 38091 N 3476.49 1.19674 1.02547 0
M  V30 38092 C 3477.44 0.937573 2.10899 0
M  V30 38093 C 3478.41 -0.128894 1.65599 0
M  V30 38094 O 3479.59 0.0139701 1.90795 0
M  V30 38095 C 3476.73 0.48608 3.4166 0
M  V30 38096 C 3475.85 1.6197 4.00487 0
M  V30 38097 C 3474.98 1.1194 5.19272 0
M  V30 38098 C 3474.02 2.22669 5.70162 0
M  V30 38099 N 3473.16 1.73921 6.80217 0
M  V30 38100 H 3478 1.86527 2.32404 0
M  V30 38101 H 3475.53 0.929889 1.1398 0
M  V30 38102 H 3477.49 0.205688 4.16693 0
M  V30 38103 H 3476.12 -0.404622 3.20254 0
M  V30 38104 H 3475.17 2.01522 3.22634 0
M  V30 38105 H 3476.49 2.45382 4.34268 0
M  V30 38106 H 3475.64 0.794442 6.01476 0
M  V30 38107 H 3474.38 0.255058 4.87033 0
M  V30 38108 H 3473.38 2.55991 4.86568 0
M  V30 38109 H 3474.61 3.09565 6.04439 0
M  V30 38110 H 3472.56 0.898003 6.49825 0
M  V30 38111 H 3472.47 2.5092 7.13145 0
M  V30 38112 H 3473.74 1.44399 7.66009 0
M  V30 38113 N 3477.97 -1.21711 1.00121 0
M  V30 38114 C 3478.88 -2.2763 0.567622 0
M  V30 38115 C 3479.9 -1.69629 -0.387563 0
M  V30 38116 O 3481.07 -1.99813 -0.252337 0
M  V30 38117 C 3478.14 -3.46548 -0.102684 0
M  V30 38118 C 3477.2 -4.19835 0.896506 0
M  V30 38119 C 3476.43 -5.33076 0.258094 0
M  V30 38120 O 3476.65 -5.625 -0.946019 0
M  V30 38121 O 3475.59 -5.94079 0.967125 0
M  V30 38122 H 3479.41 -2.66903 1.44902 0
M  V30 38123 H 3477 -1.28036 0.769885 0
M  V30 38124 H 3478.88 -4.18683 -0.477773 0
M  V30 38125 H 3477.56 -3.09183 -0.958521 0
M  V30 38126 H 3476.46 -3.49937 1.32268 0
M  V30 38127 H 3477.8 -4.61101 1.72181 0
M  V30 38128 N 3479.45 -0.775459 -1.37202 0
M  V30 38129 C 3480.39 -0.162429 -2.30228 0
M  V30 38130 C 3481.36 0.68572 -1.51285 0
M  V30 38131 O 3482.55 0.63731 -1.79842 0
M  V30 38132 C 3479.69 0.707799 -3.37764 0
M  V30 38133 C 3478.8 -0.157363 -4.31713 0
M  V30 38134 C 3477.94 0.71792 -5.26326 0
M  V30 38135 C 3476.98 -0.149549 -6.11917 0
M  V30 38136 N 3476.11 0.683921 -6.98761 0
M  V30 38137 H 3480.95 -0.961234 -2.82071 0
M  V30 38138 H 3478.49 -0.485612 -1.38853 0
M  V30 38139 H 3480.45 1.22719 -3.98743 0
M  V30 38140 H 3479.08 1.47217 -2.87275 0
M  V30 38141 H 3478.13 -0.794598 -3.72008 0
M  V30 38142 H 3479.44 -0.826348 -4.91907 0
M  V30 38143 H 3478.6 1.30366 -5.92528 0
M  V30 38144 H 3477.34 1.42058 -4.66552 0
M  V30 38145 H 3476.34 -0.747792 -5.44691 0
M  V30 38146 H 3477.57 -0.849594 -6.73765 0
M  V30 38147 H 3475.51 1.37112 -6.41511 0
M  V30 38148 H 3475.43 0.0723136 -7.55965 0
M  V30 38149 H 3476.7 1.25393 -7.69348 0
M  V30 38150 N 3480.93 1.48552 -0.526305 0
M  V30 38151 C 3482.34 1.58537 -0.183914 0
M  V30 38152 C 3482.54 1.52874 1.31269 0
M  V30 38153 O 3481.6 1.41589 2.09067 0
M  V30 38154 C 3482.91 2.90322 -0.783181 0
M  V30 38155 C 3484.46 3.03843 -0.75158 0
M  V30 38156 C 3484.93 4.38283 -1.32936 0
M  V30 38157 N 3486.42 4.44841 -1.29116 0
M  V30 38158 C 3487.16 5.47366 -1.70815 0
M  V30 38159 N 3486.66 6.56866 -2.20226 0
M  V30 38160 N 3488.45 5.38227 -1.62075 0
M  V30 38161 H 3480.6 1.50476 -1.49903 0
M  V30 38162 H 3482.86 0.714278 -0.623306 0
M  V30 38163 H 3482.57 3.0011 -1.83376 0
M  V30 38164 H 3482.44 3.76316 -0.258146 0
M  V30 38165 H 3484.83 2.93669 0.29023 0
M  V30 38166 H 3484.91 2.19469 -1.31404 0
M  V30 38167 H 3484.55 4.4921 -2.37008 0
M  V30 38168 H 3484.48 5.21338 -0.742607 0
M  V30 38169 H 3486.98 3.66293 -0.929413 0
M  V30 38170 H 3487.29 7.31229 -2.50048 0
M  V30 38171 H 3485.63 6.57839 -2.24217 0
M  V30 38172 H 3488.82 4.51577 -1.23273 0
M  V30 38173 H 3489 6.17997 -1.94893 0
M  V30 38174 N 3482.4 0.261267 1.55419 0
M  V30 38175 C 3483.65 -0.359452 1.99284 0
M  V30 38176 C 3483.98 -1.56892 1.14957 0
M  V30 38177 O 3483.23 -1.94636 0.20383 0
M  V30 38178 C 3483.53 -0.798959 3.48355 0
M  V30 38179 C 3483.2 0.304339 4.49872 0
M  V30 38180 C 3481.86 0.607321 4.77352 0
M  V30 38181 C 3484.21 1.04847 5.10545 0
M  V30 38182 C 3481.54 1.65826 5.62778 0
M  V30 38183 C 3483.89 2.08903 5.97111 0
M  V30 38184 C 3482.56 2.39851 6.22919 0
M  V30 38185 H 3481.83 -0.131533 0.729233 0
M  V30 38186 H 3484.47 0.372091 1.8785 0
M  V30 38187 H 3482.78 -1.60995 3.57194 0
M  V30 38188 H 3484.48 -1.28975 3.79693 0
M  V30 38189 H 3481.07 0.0580616 4.28561 0
M  V30 38190 H 3485.25 0.827652 4.8935 0
M  V30 38191 H 3480.51 1.90321 5.81023 0
M  V30 38192 H 3484.68 2.67046 6.43163 0
M  V30 38193 H 3482.31 3.21422 6.88906 0
M  V30 38194 N 3483.88 -1.57596 -0.0116567 0
M  V30 38195 C 3485.11 -1.94726 -0.71389 0
M  V30 38196 C 3485.53 -0.862594 -1.67155 0
M  V30 38197 O 3484.89 0.180277 -1.80401 0
M  V30 38198 C 3484.94 -3.30944 -1.43208 0
M  V30 38199 O 3484.04 -3.24424 -2.54604 0
M  V30 38200 H 3483.38 -0.636008 -0.190761 0
M  V30 38201 H 3485.91 -2.04565 0.0380607 0
M  V30 38202 H 3485.92 -3.6624 -1.79812 0
M  V30 38203 H 3484.6 -4.09446 -0.729834 0
M  V30 38204 H 3483.17 -3.00786 -2.20414 0
M  V30 38205 N 3485.36 0.284228 -1.55016 0
M  V30 38206 C 3486.29 1.35546 -1.9013 0
M  V30 38207 C 3487.27 1.52081 -0.76194 0
M  V30 38208 O 3488.46 1.6531 -1.01912 0
M  V30 38209 C 3485.59 2.71691 -2.16336 0
M  V30 38210 C 3484.54 2.69901 -3.3217 0
M  V30 38211 C 3483.87 4.09492 -3.43831 0
M  V30 38212 C 3485.17 2.3016 -4.68854 0
M  V30 38213 H 3486.86 1.06406 -2.79854 0
M  V30 38214 H 3484.41 0.510427 -1.3465 0
M  V30 38215 H 3486.36 3.46733 -2.39488 0
M  V30 38216 H 3485.08 3.0239 -1.23401 0
M  V30 38217 H 3483.74 1.97317 -3.08969 0
M  V30 38218 H 3483.39 4.37396 -2.48382 0
M  V30 38219 H 3483.09 4.09193 -4.21705 0
M  V30 38220 H 3484.61 4.8629 -3.69262 0
M  V30 38221 H 3486.03 2.94921 -4.91624 0
M  V30 38222 H 3484.42 2.41042 -5.49562 0
M  V30 38223 H 3485.49 1.25286 -4.68435 0
M  V30 38224 N 3486.84 1.47758 0.548222 0
M  V30 38225 C 3488.08 1.54844 1.30498 0
M  V30 38226 C 3488.41 0.21451 1.93313 0
M  V30 38227 O 3487.67 -0.793495 1.78891 0
M  V30 38228 C 3487.97 2.62166 2.42906 0
M  V30 38229 C 3487.63 4.05168 1.97863 0
M  V30 38230 C 3486.29 4.44093 1.85296 0
M  V30 38231 C 3488.65 4.94859 1.63598 0
M  V30 38232 C 3485.97 5.70535 1.36771 0
M  V30 38233 C 3488.33 6.21772 1.16541 0
M  V30 38234 C 3486.99 6.59571 1.02576 0
M  V30 38235 H 3486.26 0.566613 0.477526 0
M  V30 38236 H 3488.91 1.81396 0.613806 0
M  V30 38237 H 3487.21 2.29404 3.17618 0
M  V30 38238 H 3488.91 2.64869 3.01074 0
M  V30 38239 H 3485.5 3.74417 2.08591 0
M  V30 38240 H 3489.68 4.65477 1.72176 0
M  V30 38241 H 3484.94 5.98563 1.24631 0
M  V30 38242 H 3489.11 6.90678 0.89092 0
M  V30 38243 H 3486.74 7.57437 0.647542 0
M  V30 38244 N 3488.32 -0.79567 1.3604 0
M  V30 38245 C 3489.56 -1.5502 1.29665 0
M  V30 38246 C 3489.88 -1.94595 -0.125554 0
M  V30 38247 O 3489.15 -1.64458 -1.06444 0
M  V30 38248 H 3487.73 -0.574897 0.476972 0
M  V30 38249 H 3490.4 -0.948441 1.70266 0
M  V30 38250 H 3489.49 -2.46064 1.91987 0
M  V30 38251 N 3489.79 -1.20217 -1.0191 0
M  V30 38252 C 3490.74 -0.948745 -2.10398 0
M  V30 38253 C 3491.71 0.12011 -1.65665 0
M  V30 38254 O 3492.9 -0.0240882 -1.90785 0
M  V30 38255 C 3490.04 -0.504192 -3.41397 0
M  V30 38256 C 3489.15 -1.64092 -3.99622 0
M  V30 38257 C 3488.28 -1.14692 -5.18671 0
M  V30 38258 C 3487.32 -2.2569 -5.68973 0
M  V30 38259 N 3486.46 -1.77526 -6.79286 0
M  V30 38260 H 3491.3 -1.87757 -2.31412 0
M  V30 38261 H 3488.84 -0.935921 -1.13485 0
M  V30 38262 H 3490.8 -0.227783 -4.16578 0
M  V30 38263 H 3489.43 0.387632 -3.20464 0
M  V30 38264 H 3488.48 -2.0323 -3.21561 0
M  V30 38265 H 3489.79 -2.47682 -4.32961 0
M  V30 38266 H 3488.94 -0.826329 -6.01046 0
M  V30 38267 H 3487.68 -0.280883 -4.8689 0
M  V30 38268 H 3486.69 -2.58568 -4.85204 0
M  V30 38269 H 3487.91 -3.12766 -6.02789 0
M  V30 38270 H 3485.86 -0.932452 -6.49339 0
M  V30 38271 H 3485.78 -2.54698 -7.11804 0
M  V30 38272 H 3487.04 -1.48459 -7.65232 0
M  V30 38273 N 3491.27 1.21178 -1.00765 0
M  V30 38274 C 3492.22 2.23643 -0.570296 0
M  V30 38275 C 3493.19 1.61087 0.40501 0
M  V30 38276 O 3494.37 1.88323 0.306462 0
M  V30 38277 C 3491.51 3.44971 0.0942644 0
M  V30 38278 C 3490.63 4.21991 -0.924537 0
M  V30 38279 C 3489.76 5.30693 -0.231962 0
M  V30 38280 C 3488.8 5.99447 -1.23813 0
M  V30 38281 N 3487.94 6.99759 -0.572848 0
M  V30 38282 H 3492.78 2.60414 -1.44873 0
M  V30 38283 H 3490.32 1.27971 -0.725391 0
M  V30 38284 H 3492.27 4.14234 0.496616 0
M  V30 38285 H 3490.9 3.0892 0.936403 0
M  V30 38286 H 3489.96 3.51881 -1.44512 0
M  V30 38287 H 3491.27 4.69293 -1.69012 0
M  V30 38288 H 3490.42 6.06278 0.226359 0
M  V30 38289 H 3489.16 4.84404 0.566007 0
M  V30 38290 H 3488.17 5.22632 -1.70693 0
M  V30 38291 H 3489.39 6.47822 -2.03723 0
M  V30 38292 H 3487.34 6.55678 0.205416 0
M  V30 38293 H 3487.25 7.45143 -1.27665 0
M  V30 38294 H 3488.52 7.79378 -0.13782 0
M  V30 38295 N 3492.75 0.782725 1.36789 0
M  V30 38296 C 3493.7 0.174636 2.30138 0
M  V30 38297 C 3494.67 -0.677688 1.51646 0
M  V30 38298 O 3495.85 -0.627764 1.80177 0
M  V30 38299 C 3492.99 -0.689876 3.38134 0
M  V30 38300 C 3492.11 0.180255 4.31624 0
M  V30 38301 C 3491.24 -0.689997 5.267 0
M  V30 38302 C 3490.28 0.181998 6.11829 0
M  V30 38303 N 3489.42 -0.646854 6.99114 0
M  V30 38304 H 3494.26 0.976179 2.81558 0
M  V30 38305 H 3491.79 0.492969 1.38594 0
M  V30 38306 H 3493.75 -1.20603 3.99388 0
M  V30 38307 H 3492.38 -1.45691 2.88052 0
M  V30 38308 H 3491.43 0.814316 3.71582 0
M  V30 38309 H 3492.75 0.852424 4.91462 0
M  V30 38310 H 3491.9 -1.27221 5.93211 0
M  V30 38311 H 3490.64 -1.39581 4.67299 0
M  V30 38312 H 3489.64 0.776668 5.44287 0
M  V30 38313 H 3490.87 0.885314 6.73305 0
M  V30 38314 H 3488.81 -1.33708 6.42229 0
M  V30 38315 H 3488.73 -0.0322219 7.55993 0
M  V30 38316 H 3490 -1.21311 7.70002 0
M  V30 38317 O 3494.27 -1.46695 0.675498 0
M  V30 38318 H 3494.96 -1.92581 0.207892 0
M  V30 END ATOM
M  V30 BEGIN BOND
M  V30 END BOND
M  V30 END CTAB
M  END
$$$$
