drugbank_target|Q01581 Hydroxymethylglutaryl-CoA synthase, cytoplasmic (DB07740)
 OpenBabel12092120463D

  0  0  0     0  0            999 V3000
M  V30 BEGIN CTAB
M  V30 COUNTS 7959 8042 0 0 0
M  V30 BEGIN ATOM
M  V30 1 H -0.908 1.98254 -0.117106 0
M  V30 2 N 0 1.576 0 0
M  V30 3 C 0.933 2.03868 1.02534 0
M  V30 4 C 1.911 0.928543 1.3348 0
M  V30 5 O 3.095 1.19667 1.45644 0
M  V30 6 C 0.222 2.43627 2.35294 0
M  V30 7 C -0.732 3.65373 2.2001 0
M  V30 8 S 0.101 5.13292 1.52614 0
M  V30 9 C 1.257 5.56322 2.86805 0
M  V30 10 H 1.49 2.90518 0.631377 0
M  V30 11 H -0.977 1.52953 0.210867 0
M  V30 12 H 0.981 2.67203 3.11629 0
M  V30 13 H -0.358 1.57376 2.7183 0
M  V30 14 H -1.165 3.90944 3.18086 0
M  V30 15 H -1.563 3.418 1.51819 0
M  V30 16 H 0.729 5.58782 3.83104 0
M  V30 17 H 1.672 6.56266 2.65933 0
M  V30 18 H 2.08 4.83886 2.90714 0
M  V30 19 N 1.4781 -0.272755 1.55222 0
M  V30 20 C 2.8891 -0.84378 1.66545 0
M  V30 21 C 3.2401 -1.87035 0.592641 0
M  V30 22 O 2.3651 -2.14761 -0.265818 0
M  V30 23 C 2.9601 -1.53723 3.01918 0
M  V30 24 C 1.5191 -2.05628 3.15268 0
M  V30 25 C 0.6661 -0.898424 2.62343 0
M  V30 26 H 3.6171 -0.0490998 1.58624 0
M  V30 27 H 3.6381 -2.40421 2.94921 0
M  V30 28 H 3.1501 -0.78983 3.79978 0
M  V30 29 H 1.2511 -2.83329 2.41983 0
M  V30 30 H 1.3641 -2.27142 4.21833 0
M  V30 31 H -0.2719 -1.29186 2.19506 0
M  V30 32 H 0.5111 -0.164528 3.42906 0
M  V30 33 N 2.9562 -1.48159 -0.537278 0
M  V30 34 C 4.2042 -1.55497 -1.29094 0
M  V30 35 C 4.5252 -0.227454 -1.93669 0
M  V30 36 O 3.7952 0.750386 -1.80959 0
M  V30 37 H 2.3752 -0.572832 -0.47945 0
M  V30 38 H 5.0372 -1.84579 -0.625818 0
M  V30 39 H 4.1332 -2.33216 -2.07405 0
M  V30 40 N 4.4343 0.785586 -1.36625 0
M  V30 41 C 5.6593 1.57963 -1.34397 0
M  V30 42 C 6.0843 1.87964 0.071526 0
M  V30 43 O 5.4423 1.48182 1.0446 0
M  V30 44 C 5.4903 2.87511 -2.17646 0
M  V30 45 O 4.5943 3.81281 -1.57158 0
M  V30 46 H 3.9353 0.479014 -0.459828 0
M  V30 47 H 6.4653 0.973411 -1.79961 0
M  V30 48 H 6.4753 3.36745 -2.30362 0
M  V30 49 H 5.1503 2.65002 -3.20541 0
M  V30 50 H 3.7273 3.39885 -1.53403 0
M  V30 51 N 5.9124 1.20967 1.01018 0
M  V30 52 C 6.8424 0.988272 2.11555 0
M  V30 53 C 7.8234 -0.0849778 1.69888 0
M  V30 54 O 9.0084 0.0738202 1.9406 0
M  V30 55 C 6.1384 0.546528 3.42973 0
M  V30 56 C 5.0924 1.56375 3.9841 0
M  V30 57 C 4.4184 0.97842 5.25672 0
M  V30 58 C 5.7184 2.94922 4.31066 0
M  V30 59 H 7.4124 1.91276 2.30334 0
M  V30 60 H 4.9584 0.921073 1.1069 0
M  V30 61 H 6.9114 0.378839 4.19694 0
M  V30 62 H 5.6354 -0.413598 3.23971 0
M  V30 63 H 4.2944 1.71891 3.23804 0
M  V30 64 H 3.9424 0.0101688 5.02999 0
M  V30 65 H 3.6424 1.65784 5.63728 0
M  V30 66 H 5.1664 0.821939 6.05043 0
M  V30 67 H 6.5804 2.8288 4.9865 0
M  V30 68 H 4.9774 3.5983 4.80253 0
M  V30 69 H 6.0474 3.4616 3.39561 0
M  V30 70 N 7.3905 -1.2043 1.01659 0
M  V30 71 C 8.8015 -1.71517 0.737482 0
M  V30 72 C 9.1525 -1.81547 -0.743973 0
M  V30 73 O 8.2775 -1.47803 -1.58061 0
M  V30 74 C 8.8725 -3.11515 1.33206 0
M  V30 75 C 7.4315 -3.59912 1.10183 0
M  V30 76 C 6.5785 -2.37116 1.43776 0
M  V30 77 H 9.5295 -1.05444 1.18606 0
M  V30 78 H 9.5505 -3.73575 0.722636 0
M  V30 79 H 9.0625 -3.04182 2.41028 0
M  V30 80 H 7.1635 -3.72577 0.0412756 0
M  V30 81 H 7.2765 -4.44731 1.78188 0
M  V30 82 H 5.6405 -2.39857 0.856778 0
M  V30 83 H 6.4235 -2.32424 2.52654 0
M  V30 84 N 8.8686 -0.792821 -1.36206 0
M  V30 85 C 9.7986 -0.207853 -2.32573 0
M  V30 86 C 10.7796 0.659055 -1.56813 0
M  V30 87 O 11.9646 0.592176 -1.84951 0
M  V30 88 C 9.0946 0.655449 -3.41059 0
M  V30 89 C 8.0486 -0.111842 -4.27854 0
M  V30 90 C 7.3746 0.872274 -5.27537 0
M  V30 91 C 8.6746 -1.30299 -5.05786 0
M  V30 92 H 10.3686 -1.01294 -2.81744 0
M  V30 93 H 7.9146 -0.48854 -1.3546 0
M  V30 94 H 9.8676 1.07464 -4.07467 0
M  V30 95 H 8.5916 1.49328 -2.90463 0
M  V30 96 H 7.2506 -0.512053 -3.63006 0
M  V30 97 H 6.8986 1.70523 -4.73214 0
M  V30 98 H 6.5986 0.363291 -5.86476 0
M  V30 99 H 8.1226 1.28996 -5.96818 0
M  V30 100 H 9.5366 -0.959379 -5.65216 0
M  V30 101 H 7.9336 -1.7455 -5.74154 0
M  V30 102 H 9.0036 -2.09663 -4.37229 0
M  V30 103 N 10.3467 1.47872 -0.545128 0
M  V30 104 C 11.2947 2.31533 0.222512 0
M  V30 105 C 12.2887 1.42177 0.920985 0
M  V30 106 O 13.4947 1.59005 0.843645 0
M  V30 107 H 9.8697 0.746519 0.0906278 0
M  V30 108 H 11.8407 2.94139 -0.50246 0
M  V30 109 C 10.5897 3.2457 1.24699 0
M  V30 110 H 9.9127 3.93283 0.718944 0
M  V30 111 H 11.3527 3.85963 1.75523 0
M  V30 112 C 9.8117 2.47237 2.28856 0
M  V30 113 O 10.3417 2.20808 3.35569 0
M  V30 114 N 8.5477 2.08461 2.02466 0
M  V30 115 H 8.0947 2.30155 1.157 0
M  V30 116 H 8.0527 1.57033 2.72375 0
M  V30 117 N 11.8248 0.280983 1.55075 0
M  V30 118 C 12.7878 -0.590896 2.21452 0
M  V30 119 C 13.7878 -1.07682 1.19421 0
M  V30 120 O 14.9778 -0.97605 1.44288 0
M  V30 121 C 12.1098 -1.81587 2.88511 0
M  V30 122 H 13.3028 -0.0112554 2.99898 0
M  V30 123 H 10.8558 0.0316438 1.56268 0
M  V30 124 H 11.5908 -2.43587 2.14093 0
M  V30 125 H 11.3758 -1.4753 3.63287 0
M  V30 126 H 12.8658 -2.43575 3.39206 0
M  V30 127 N 13.3029 -1.57598 0.00835791 0
M  V30 128 C 14.2129 -2.12385 -0.996487 0
M  V30 129 C 15.2289 -1.07108 -1.37127 0
M  V30 130 O 16.4049 -1.39055 -1.4569 0
M  V30 131 C 13.4699 -2.62314 -2.26699 0
M  V30 132 C 12.5309 -3.82225 -1.95456 0
M  V30 133 C 11.7639 -4.29763 -3.16449 0
M  V30 134 O 11.9869 -3.76584 -4.28416 0
M  V30 135 O 10.9209 -5.21832 -2.99958 0
M  V30 136 H 14.7469 -2.98479 -0.560725 0
M  V30 137 H 12.3319 -1.47903 -0.210987 0
M  V30 138 H 14.2139 -2.94589 -3.01322 0
M  V30 139 H 12.8889 -1.79313 -2.69497 0
M  V30 140 H 11.7959 -3.54909 -1.18282 0
M  V30 141 H 13.1289 -4.66324 -1.57489 0
M  V30 142 N 14.781 0.264519 -1.55364 0
M  V30 143 C 15.744 1.31046 -1.88042 0
M  V30 144 C 16.744 1.41943 -0.755569 0
M  V30 145 O 17.934 1.40947 -1.02369 0
M  V30 146 C 15.066 2.69067 -2.09323 0
M  V30 147 H 16.259 1.03297 -2.81549 0
M  V30 148 H 13.812 0.502989 -1.47986 0
M  V30 149 H 14.547 3.01982 -1.18226 0
M  V30 150 H 14.332 2.62542 -2.91229 0
M  V30 151 H 15.822 3.44623 -2.35848 0
M  V30 152 N 16.2591 1.48442 0.529413 0
M  V30 153 C 17.4991 1.58086 1.29569 0
M  V30 154 C 17.8631 0.249302 1.90375 0
M  V30 155 O 19.0641 0.220738 2.67892 0
M  V30 156 C 17.3351 2.68793 2.35552 0
M  V30 157 S 18.8941 2.98207 3.21898 0
M  V30 158 H 15.7121 0.557922 0.440732 0
M  V30 159 H 18.3141 1.85966 0.603059 0
M  V30 160 H 17.0181 3.64102 1.89363 0
M  V30 161 H 16.5491 2.42817 3.09522 0
M  V30 162 H 18.5641 2.37548 4.35644 0
M  V30 163 N 17.7372 -0.778329 1.37039 0
M  V30 164 C 18.9832 -1.53817 1.33086 0
M  V30 165 C 19.3382 -1.92208 -0.0860346 0
M  V30 166 O 18.6312 -1.60713 -1.04316 0
M  V30 167 C 18.8252 -2.81845 2.19768 0
M  V30 168 C 18.6542 -2.55967 3.69744 0
M  V30 169 C 17.4242 -2.50428 4.38878 0
M  V30 170 C 19.6222 -2.2441 4.62758 0
M  V30 171 N 17.6042 -2.16564 5.74433 0
M  V30 172 C 18.9752 -2.0063 5.86641 0
M  V30 173 C 21.0302 -2.1051 4.5121 0
M  V30 174 C 19.7332 -1.64354 7.00272 0
M  V30 175 C 21.7592 -1.75634 5.64718 0
M  V30 176 C 21.1212 -1.52709 6.87648 0
M  V30 177 H 17.2202 -0.563434 0.542279 0
M  V30 178 H 19.8042 -0.908617 1.72198 0
M  V30 179 H 17.9752 -3.42649 1.82883 0
M  V30 180 H 19.7072 -3.47682 2.07122 0
M  V30 181 H 16.4622 -2.66056 3.91805 0
M  V30 182 H 16.8862 -2.02348 6.46053 0
M  V30 183 H 21.5282 -2.26919 3.56746 0
M  V30 184 H 19.2462 -1.46683 7.94676 0
M  V30 185 H 22.8322 -1.65546 5.57751 0
M  V30 186 H 21.7122 -1.2612 7.73992 0
M  V30 187 N 19.2153 -1.21501 -1.00376 0
M  V30 188 C 20.6263 -1.03146 -1.55621 0
M  V30 189 C 20.9773 0.408375 -1.91903 0
M  V30 190 O 20.1023 1.29177 -1.73616 0
M  V30 191 C 20.6973 -1.86612 -2.82775 0
M  V30 192 C 19.2563 -1.72586 -3.34501 0
M  V30 193 C 18.4033 -1.83747 -2.07683 0
M  V30 194 H 21.3543 -1.35505 -0.826081 0
M  V30 195 H 21.3753 -1.3771 -3.54706 0
M  V30 196 H 20.8873 -2.91399 -2.56336 0
M  V30 197 H 18.9883 -0.704877 -3.65872 0
M  V30 198 H 19.1013 -2.54623 -4.05837 0
M  V30 199 H 17.4653 -1.27069 -2.20739 0
M  V30 200 H 18.2483 -2.90044 -1.83655 0
M  V30 201 N 20.6934 1.19889 -1.02296 0
M  V30 202 C 21.6404 2.22901 -0.598651 0
M  V30 203 C 22.6104 1.61588 0.384521 0
M  V30 204 O 23.7954 1.88697 0.282522 0
M  V30 205 C 20.9354 3.45063 0.0504476 0
M  V30 206 C 20.0484 4.20783 -0.978053 0
M  V30 207 C 19.1834 5.30356 -0.299338 0
M  V30 208 C 18.2224 5.97826 -1.31416 0
M  V30 209 N 17.3594 6.98975 -0.661667 0
M  V30 210 H 22.1994 2.58554 -1.48169 0
M  V30 211 H 19.7364 1.27039 -0.741584 0
M  V30 212 H 21.6944 4.14831 0.443971 0
M  V30 213 H 20.3244 3.10084 0.897097 0
M  V30 214 H 19.3764 3.50018 -1.48969 0
M  V30 215 H 20.6884 4.67109 -1.74958 0
M  V30 216 H 19.8424 6.06516 0.149347 0
M  V30 217 H 18.5814 4.85084 0.504445 0
M  V30 218 H 17.5864 5.20422 -1.77317 0
M  V30 219 H 18.8114 6.45183 -2.11933 0
M  V30 220 H 16.7574 6.55886 0.122132 0
M  V30 221 H 16.6744 7.43461 -1.37117 0
M  V30 222 H 17.9424 7.7914 -0.236785 0
M  V30 223 N 22.1715 0.800033 1.35784 0
M  V30 224 C 23.4485 0.30088 1.93272 0
M  V30 225 C 23.8285 -1.20857 1.73081 0
M  V30 226 O 23.1765 -2.00502 1.09596 0
M  V30 227 C 23.3865 0.70511 3.41803 0
M  V30 228 C 24.7345 0.690871 4.18942 0
M  V30 229 O 25.7585 0.646244 3.50289 0
M  V30 230 O 24.6175 0.74332 5.41421 0
M  V30 231 H 21.7115 0.0771605 0.823393 0
M  V30 232 H 24.2575 0.88329 1.449 0
M  V30 233 H 23.0295 1.74571 3.50201 0
M  V30 234 H 22.6525 0.0971541 3.97481 0
M  V30 235 N 23.6496 -1.47581 0.552962 0
M  V30 236 C 24.8956 -2.02782 0.0273648 0
M  V30 237 C 25.2286 -1.42687 -1.31734 0
M  V30 238 O 24.5036 -0.580897 -1.85623 0
M  V30 239 C 24.7866 -3.60031 -0.0702371 0
M  V30 240 C 24.6396 -4.30566 1.30126 0
M  V30 241 C 25.9586 -4.33028 -0.785771 0
M  V30 242 H 23.0776 -0.736912 0.0114185 0
M  V30 243 H 25.7196 -1.76056 0.714432 0
M  V30 244 H 23.8696 -3.82932 -0.655382 0
M  V30 245 H 25.5416 -4.19018 1.92929 0
M  V30 246 H 23.7846 -3.91086 1.87709 0
M  V30 247 H 24.4556 -5.39114 1.18573 0
M  V30 248 H 26.9316 -4.15095 -0.288982 0
M  V30 249 H 25.8076 -5.42695 -0.823013 0
M  V30 250 H 26.0686 -4.01945 -1.841 0
M  V30 251 N 25.1277 -0.289203 -1.54924 0
M  V30 252 C 26.3757 0.322879 -1.99504 0
M  V30 253 C 26.6967 1.55313 -1.1791 0
M  V30 254 O 25.9667 1.94001 -0.272097 0
M  V30 255 H 24.5467 0.122291 -0.736922 0
M  V30 256 H 27.2087 -0.397802 -1.90797 0
M  V30 257 H 26.3047 0.603061 -3.06218 0
M  V30 258 N 26.6058 1.57591 -0.0167156 0
M  V30 259 C 27.8548 1.90461 0.663877 0
M  V30 260 C 28.1678 0.893515 1.73999 0
M  V30 261 O 29.3738 1.11302 2.47637 0
M  V30 262 C 27.8298 3.38155 1.23204 0
M  V30 263 C 27.4378 4.47597 0.189866 0
M  V30 264 C 29.1818 3.80111 1.88986 0
M  V30 265 C 27.0888 5.86379 0.768964 0
M  V30 266 H 26.0188 0.710738 0.251729 0
M  V30 267 H 28.6698 1.83326 -0.0799926 0
M  V30 268 H 27.0518 3.40182 2.02712 0
M  V30 269 H 28.2258 4.57112 -0.581846 0
M  V30 270 H 26.5408 4.14766 -0.368475 0
M  V30 271 H 29.1378 4.81145 2.33247 0
M  V30 272 H 29.4808 3.14511 2.72743 0
M  V30 273 H 30.0138 3.80454 1.16187 0
M  V30 274 H 26.7528 6.55493 -0.0301957 0
M  V30 275 H 26.2728 5.80496 1.50945 0
M  V30 276 H 27.9518 6.34563 1.26251 0
M  V30 277 N 28.0839 -0.256276 1.55502 0
M  V30 278 C 29.3299 -0.987079 1.77157 0
M  V30 279 C 29.6629 -1.85327 0.580315 0
M  V30 280 O 28.9379 -1.89874 -0.421686 0
M  V30 281 C 29.2209 -1.85553 3.08613 0
M  V30 282 C 29.0739 -1.01816 4.38125 0
M  V30 283 C 30.3929 -2.8397 3.36228 0
M  V30 284 H 27.5119 -0.357428 0.644526 0
M  V30 285 H 30.1539 -0.258239 1.88237 0
M  V30 286 H 28.3039 -2.47695 2.99298 0
M  V30 287 H 29.9759 -0.416159 4.59419 0
M  V30 288 H 28.2189 -0.322178 4.32602 0
M  V30 289 H 28.8899 -1.65939 5.26468 0
M  V30 290 H 31.3659 -2.31964 3.45445 0
M  V30 291 H 30.2419 -3.41864 4.29442 0
M  V30 292 H 30.5029 -3.59955 2.56681 0
M  V30 293 N 29.562 -1.4872 -0.521534 0
M  V30 294 C 30.525 -1.63379 -1.60748 0
M  V30 295 C 31.525 -0.50661 -1.52611 0
M  V30 296 O 32.715 -0.772601 -1.5613 0
M  V30 297 C 29.847 -1.61192 -3.00383 0
M  V30 298 H 31.04 -2.60217 -1.49087 0
M  V30 299 H 28.593 -1.37444 -0.744235 0
M  V30 300 H 29.328 -0.65863 -3.17541 0
M  V30 301 H 29.113 -2.43032 -3.07698 0
M  V30 302 H 30.603 -1.7466 -3.7932 0
M  V30 303 N 31.0401 0.771051 -1.3745 0
M  V30 304 C 31.9701 1.89827 -1.3597 0
M  V30 305 C 32.9511 1.68562 -0.228216 0
M  V30 306 O 34.1361 1.8941 -0.428675 0
M  V30 307 C 31.2661 3.2712 -1.16662 0
M  V30 308 C 30.2201 3.6295 -2.2683 0
M  V30 309 C 29.5461 4.98791 -1.92644 0
M  V30 310 C 30.8461 3.69627 -3.69017 0
M  V30 311 H 32.5401 1.91323 -2.30295 0
M  V30 312 H 30.0861 0.919082 -1.10855 0
M  V30 313 H 32.0391 4.05615 -1.14256 0
M  V30 314 H 30.7631 3.26059 -0.187926 0
M  V30 315 H 29.4221 2.86763 -2.28392 0
M  V30 316 H 29.0701 4.94271 -0.933021 0
M  V30 317 H 28.7701 5.23733 -2.66416 0
M  V30 318 H 30.2941 5.79685 -1.91826 0
M  V30 319 H 31.7081 4.38273 -3.69581 0
M  V30 320 H 30.1051 4.06067 -4.41848 0
M  V30 321 H 31.1751 2.70273 -4.02592 0
M  V30 322 N 32.5182 1.22032 0.997298 0
M  V30 323 C 33.4282 1.00271 2.12092 0
M  V30 324 C 34.4442 -0.047621 1.73935 0
M  V30 325 O 35.6202 0.144136 2.00884 0
M  V30 326 C 32.6852 0.578449 3.4184 0
M  V30 327 C 31.7462 1.70189 3.94125 0
M  V30 328 C 30.9792 1.29778 5.17681 0
M  V30 329 O 31.2022 0.174676 5.70132 0
M  V30 330 O 30.1362 2.11261 5.63607 0
M  V30 331 H 33.9622 1.94398 2.3333 0
M  V30 332 H 31.5472 1.00587 1.10465 0
M  V30 333 H 33.4292 0.351998 4.19927 0
M  V30 334 H 32.1042 -0.334019 3.21972 0
M  V30 335 H 31.0112 1.98282 3.1723 0
M  V30 336 H 32.3442 2.59206 4.18417 0
M  V30 337 N 33.9963 -1.19345 1.0293 0
M  V30 338 C 35.2453 -1.88363 0.721256 0
M  V30 339 C 35.5583 -1.80514 -0.753254 0
M  V30 340 O 36.7643 -2.44788 -1.17436 0
M  V30 341 C 35.2203 -3.37872 1.23978 0
M  V30 342 C 34.8283 -3.54278 2.74211 0
M  V30 343 C 36.5723 -4.12365 1.00775 0
M  V30 344 C 34.4793 -4.97682 3.19479 0
M  V30 345 H 33.4093 -0.705484 0.266098 0
M  V30 346 H 36.0603 -1.34928 1.24365 0
M  V30 347 H 34.4423 -3.90707 0.6453 0
M  V30 348 H 35.6163 -3.11769 3.39318 0
M  V30 349 H 33.9313 -2.93174 2.95699 0
M  V30 350 H 36.5283 -5.18119 1.32123 0
M  V30 351 H 36.8713 -4.16263 -0.0554308 0
M  V30 352 H 37.4043 -3.65668 1.56625 0
M  V30 353 H 34.1433 -4.98945 4.25128 0
M  V30 354 H 33.6633 -5.4095 2.591 0
M  V30 355 H 35.3423 -5.66337 3.12845 0
M  V30 356 N 35.4744 -0.807222 -1.35358 0
M  V30 357 C 36.7044 -0.399796 -2.02695 0
M  V30 358 C 37.1124 0.994176 -1.60974 0
M  V30 359 O 36.4554 1.65209 -0.803226 0
M  V30 360 C 36.5174 -0.404445 -3.57218 0
M  V30 361 C 36.1814 -1.74904 -4.22206 0
M  V30 362 C 37.1784 -2.70743 -4.4384 0
M  V30 363 C 34.8634 -2.03322 -4.5931 0
M  V30 364 C 36.8574 -3.93183 -5.01683 0
M  V30 365 C 34.5444 -3.26026 -5.16866 0
M  V30 366 C 35.5424 -4.20774 -5.37994 0
M  V30 367 O 35.2304 -5.41312 -5.94337 0
M  V30 368 H 34.9624 -0.160517 -0.656666 0
M  V30 369 H 37.5164 -1.09235 -1.73945 0
M  V30 370 H 35.7464 0.344707 -3.85161 0
M  V30 371 H 37.4354 -0.0192429 -4.05895 0
M  V30 372 H 38.2014 -2.5008 -4.15554 0
M  V30 373 H 34.0804 -1.30384 -4.42178 0
M  V30 374 H 37.6244 -4.6715 -5.1809 0
M  V30 375 H 33.5214 -3.46559 -5.44579 0
M  V30 376 H 34.2894 -5.42618 -6.12787 0
M  V30 377 N 36.9525 1.47285 -0.560781 0
M  V30 378 C 38.1995 2.02464 -0.038062 0
M  V30 379 C 38.5275 1.43474 1.31322 0
M  V30 380 O 37.7825 0.581311 1.86867 0
M  V30 381 C 38.0815 3.57258 0.100784 0
M  V30 382 C 37.7475 4.35184 -1.18007 0
M  V30 383 C 36.4095 4.56194 -1.53103 0
M  V30 384 C 38.7615 4.80098 -2.02867 0
M  V30 385 C 36.0895 5.19367 -2.729 0
M  V30 386 C 38.4415 5.44593 -3.21871 0
M  V30 387 C 37.1055 5.63835 -3.57276 0
M  V30 388 H 36.3755 0.740869 -0.0139279 0
M  V30 389 H 39.0225 1.76916 -0.733012 0
M  V30 390 H 37.3275 3.81819 0.878724 0
M  V30 391 H 39.0245 3.97606 0.520639 0
M  V30 392 H 35.6145 4.19113 -0.8968 0
M  V30 393 H 39.7985 4.63642 -1.7706 0
M  V30 394 H 35.0545 5.32459 -3.00496 0
M  V30 395 H 39.2285 5.78358 -3.87911 0
M  V30 396 H 36.8555 6.12557 -4.50197 0
M  V30 397 N 38.4306 0.297415 1.54768 0
M  V30 398 C 39.8416 -0.195947 1.85669 0
M  V30 399 C 40.1926 -1.53707 1.21937 0
M  V30 400 O 39.3176 -2.10164 0.515754 0
M  V30 401 C 39.9126 -0.362318 3.36857 0
M  V30 402 C 38.4716 -0.799901 3.67802 0
M  V30 403 C 37.6186 0.0938578 2.77141 0
M  V30 404 H 40.5696 0.518538 1.4999 0
M  V30 405 H 40.5906 -1.19745 3.61167 0
M  V30 406 H 40.1026 0.613921 3.83214 0
M  V30 407 H 38.2036 -1.78682 3.26961 0
M  V30 408 H 38.3166 -0.621773 4.75048 0
M  V30 409 H 36.6806 -0.426254 2.51108 0
M  V30 410 H 37.4636 1.06639 3.26318 0
M  V30 411 N 39.9087 -1.5758 0.0250728 0
M  V30 412 C 41.1337 -1.96337 -0.668317 0
M  V30 413 C 41.5587 -0.901314 -1.651 0
M  V30 414 O 40.9167 0.138187 -1.80773 0
M  V30 415 C 40.9647 -3.34191 -1.35457 0
M  V30 416 O 40.0687 -3.30269 -2.46974 0
M  V30 417 H 39.4097 -0.640281 -0.175887 0
M  V30 418 H 41.9397 -2.0442 0.0857224 0
M  V30 419 H 41.9497 -3.70331 -1.71228 0
M  V30 420 H 40.6247 -4.11036 -0.634218 0
M  V30 421 H 39.2017 -3.05841 -2.13344 0
M  V30 422 N 41.3868 0.248026 -1.55636 0
M  V30 423 C 42.3188 1.32993 -1.8667 0
M  V30 424 C 43.3318 1.44345 -0.752877 0
M  V30 425 O 44.5208 1.45715 -1.03098 0
M  V30 426 C 41.6208 2.70863 -2.03682 0
M  V30 427 C 40.7938 2.81792 -3.34532 0
M  V30 428 C 39.8528 4.005 -3.41301 0
M  V30 429 O 38.8788 3.9008 -4.14519 0
M  V30 430 N 40.0808 5.13618 -2.70512 0
M  V30 431 H 42.8458 1.06707 -2.8006 0
M  V30 432 H 40.4068 0.438129 -1.55859 0
M  V30 433 H 42.3988 3.48612 -2.05553 0
M  V30 434 H 40.9688 2.89862 -1.17041 0
M  V30 435 H 40.1888 1.90729 -3.44987 0
M  V30 436 H 41.4768 2.86043 -4.20781 0
M  V30 437 H 40.8748 5.24975 -2.10755 0
M  V30 438 H 39.4318 5.89505 -2.78077 0
M  V30 439 N 42.8649 1.48995 0.513639 0
M  V30 440 C 44.0949 1.61297 1.291 0
M  V30 441 C 44.5029 0.278656 1.87137 0
M  V30 442 O 43.8459 -0.744325 1.67945 0
M  V30 443 C 43.9079 2.61326 2.46879 0
M  V30 444 C 43.5719 4.05993 2.09807 0
M  V30 445 C 44.5689 4.93183 1.64519 0
M  V30 446 C 42.2539 4.51642 2.19829 0
M  V30 447 C 44.2479 6.24056 1.2974 0
M  V30 448 C 41.9349 5.82532 1.84662 0
M  V30 449 C 42.9329 6.68562 1.3969 0
M  V30 450 O 42.6209 7.97014 1.04992 0
M  V30 451 H 42.3529 0.546236 0.39825 0
M  V30 452 H 44.9069 1.95673 0.62459 0
M  V30 453 H 43.1369 2.22104 3.16554 0
M  V30 454 H 44.8259 2.6329 3.08923 0
M  V30 455 H 45.5919 4.59147 1.56233 0
M  V30 456 H 41.4709 3.84855 2.53786 0
M  V30 457 H 45.0149 6.91161 0.945659 0
M  V30 458 H 40.9119 6.16099 1.92594 0
M  V30 459 H 41.6799 8.09913 1.18249 0
M  V30 460 N 44.343 -0.763751 1.37857 0
M  V30 461 C 45.589 -1.52483 1.33704 0
M  V30 462 C 45.922 -1.94051 -0.0759612 0
M  V30 463 O 45.197 -1.64675 -1.03501 0
M  V30 464 C 45.48 -2.78441 2.28348 0
M  V30 465 C 45.333 -2.43075 3.78463 0
M  V30 466 C 46.652 -3.80415 2.21298 0
M  V30 467 H 43.771 -0.553169 0.487005 0
M  V30 468 H 46.413 -0.875562 1.68624 0
M  V30 469 H 44.563 -3.33842 1.987 0
M  V30 470 H 46.235 -1.93527 4.18742 0
M  V30 471 H 44.478 -1.75666 3.96641 0
M  V30 472 H 45.149 -3.33149 4.40132 0
M  V30 473 H 47.625 -3.34527 2.47449 0
M  V30 474 H 46.501 -4.66257 2.89647 0
M  V30 475 H 46.762 -4.25262 1.20849 0
M  V30 476 N 45.8211 -1.22559 -0.990812 0
M  V30 477 C 47.0981 -0.959875 -1.70428 0
M  V30 478 C 47.4781 0.524455 -2.04481 0
M  V30 479 O 46.8261 1.49302 -1.72977 0
M  V30 480 C 47.0361 -1.85955 -2.95333 0
M  V30 481 C 48.3841 -2.11687 -3.68068 0
M  V30 482 O 49.4081 -1.8342 -3.05345 0
M  V30 483 O 48.2671 -2.59572 -4.80921 0
M  V30 484 H 45.3611 -0.361154 -0.743974 0
M  V30 485 H 47.9071 -1.33554 -1.04697 0
M  V30 486 H 46.6791 -2.86346 -2.66687 0
M  V30 487 H 46.3021 -1.4856 -3.68803 0
M  V30 488 N 47.2992 1.18797 -1.03562 0
M  V30 489 C 48.2312 2.21731 -0.580337 0
M  V30 490 C 49.2442 1.59051 0.347349 0
M  V30 491 O 50.4332 1.77929 0.142669 0
M  V30 492 C 47.5332 3.38459 0.172805 0
M  V30 493 C 46.7062 4.3072 -0.761496 0
M  V30 494 C 45.7652 5.26174 -0.0525547 0
M  V30 495 O 44.7912 5.65108 -0.681333 0
M  V30 496 N 45.9932 5.67624 1.21586 0
M  V30 497 H 48.7582 2.61417 -1.46565 0
M  V30 498 H 46.3192 1.33531 -0.915476 0
M  V30 499 H 48.3112 3.99335 0.656793 0
M  V30 500 H 46.8812 2.97507 0.959602 0
M  V30 501 H 46.1012 3.67525 -1.42544 0
M  V30 502 H 47.3892 4.89267 -1.39626 0
M  V30 503 H 46.7872 5.38038 1.74732 0
M  V30 504 H 45.3442 6.30721 1.64421 0
M  V30 505 N 48.7773 0.814389 1.34928 0
M  V30 506 C 49.7403 0.235759 2.27984 0
M  V30 507 C 50.7403 -0.581412 1.49921 0
M  V30 508 O 51.9303 -0.398758 1.69575 0
M  V30 509 C 49.0623 -0.670433 3.34242 0
M  V30 510 H 50.2553 1.05659 2.80671 0
M  V30 511 H 47.8083 0.585614 1.44915 0
M  V30 512 H 48.5433 -1.51466 2.86755 0
M  V30 513 H 48.3283 -0.0860822 3.92005 0
M  V30 514 H 49.8183 -1.06935 4.03676 0
M  V30 515 N 50.2554 -1.46986 0.568584 0
M  V30 516 C 51.1654 -2.33942 -0.17555 0
M  V30 517 C 52.1814 -1.48891 -0.90041 0
M  V30 518 O 53.3574 -1.81794 -0.86676 0
M  V30 519 C 50.4224 -3.25811 -1.18524 0
M  V30 520 C 49.4834 -4.26757 -0.466582 0
M  V30 521 C 48.7164 -5.14236 -1.42817 0
M  V30 522 O 48.9394 -5.04379 -2.66379 0
M  V30 523 O 47.8734 -5.94412 -0.946453 0
M  V30 524 H 51.6994 -2.98896 0.538036 0
M  V30 525 H 49.2844 -1.4573 0.329097 0
M  V30 526 H 51.1664 -3.82527 -1.76779 0
M  V30 527 H 49.8414 -2.63471 -1.88055 0
M  V30 528 H 48.7484 -3.73769 0.157451 0
M  V30 529 H 50.0814 -4.91843 0.187485 0
M  V30 530 N 51.7335 -0.305618 -1.54608 0
M  V30 531 C 52.6635 0.561482 -2.26649 0
M  V30 532 C 53.6445 1.13415 -1.26772 0
M  V30 533 O 54.8295 1.16262 -1.55553 0
M  V30 534 C 51.9595 1.73122 -3.01075 0
M  V30 535 C 50.9135 1.2887 -4.08138 0
M  V30 536 C 50.2395 2.54396 -4.70305 0
M  V30 537 C 51.5395 0.416578 -5.20636 0
M  V30 538 H 53.2335 -0.0393902 -2.99374 0
M  V30 539 H 50.7795 -0.020385 -1.43986 0
M  V30 540 H 52.7325 2.34396 -3.50195 0
M  V30 541 H 51.4565 2.3584 -2.25936 0
M  V30 542 H 50.1155 0.698991 -3.59875 0
M  V30 543 H 49.7635 3.15439 -3.918 0
M  V30 544 H 49.4635 2.25486 -5.42614 0
M  V30 545 H 50.9875 3.16464 -5.2219 0
M  V30 546 H 52.4015 0.935116 -5.65622 0
M  V30 547 H 50.7985 0.221046 -5.99693 0
M  V30 548 H 51.8685 -0.557162 -4.81688 0
M  V30 549 N 53.2116 1.57565 -0.0334293 0
M  V30 550 C 54.1216 2.13943 0.962572 0
M  V30 551 C 55.1376 1.09276 1.35406 0
M  V30 552 O 56.3136 1.41355 1.4346 0
M  V30 553 C 53.3786 2.65887 2.22497 0
M  V30 554 C 52.4396 3.85286 1.8935 0
M  V30 555 C 51.6726 4.34743 3.09571 0
M  V30 556 O 51.8956 3.83352 4.22371 0
M  V30 557 O 50.8296 5.26538 2.91618 0
M  V30 558 H 54.6556 2.99333 0.513169 0
M  V30 559 H 52.2406 1.4822 0.18743 0
M  V30 560 H 54.1226 2.99346 2.96598 0
M  V30 561 H 52.7976 1.83578 2.6661 0
M  V30 562 H 51.7046 3.56746 1.1262 0
M  V30 563 H 53.0376 4.68771 1.5005 0
M  V30 564 N 54.6897 -0.239769 1.55765 0
M  V30 565 C 55.6367 -1.29696 1.90913 0
M  V30 566 C 56.6067 -1.47478 0.764164 0
M  V30 567 O 57.7917 -1.61345 1.01845 0
M  V30 568 C 54.9317 -2.64598 2.21544 0
M  V30 569 C 54.0447 -2.54765 3.48882 0
M  V30 570 C 53.1797 -3.82069 3.69049 0
M  V30 571 C 52.2187 -3.66883 4.89963 0
M  V30 572 N 51.3557 -4.86094 5.06614 0
M  V30 573 H 56.1957 -0.990224 2.81067 0
M  V30 574 H 53.7327 -0.477684 1.39128 0
M  V30 575 H 55.6907 -3.43132 2.3731 0
M  V30 576 H 54.3207 -2.93405 1.34585 0
M  V30 577 H 53.3727 -1.67763 3.41409 0
M  V30 578 H 54.6847 -2.39457 4.37563 0
M  V30 579 H 53.8387 -4.69046 3.84812 0
M  V30 580 H 52.5777 -4.00282 2.78614 0
M  V30 581 H 51.5827 -2.78289 4.74168 0
M  V30 582 H 52.8077 -3.50157 5.81865 0
M  V30 583 H 50.7537 -5.04655 4.19117 0
M  V30 584 H 50.6707 -4.73443 5.89396 0
M  V30 585 H 51.9387 -5.74549 5.26795 0
M  V30 586 N 56.1678 -1.49265 -0.50573 0
M  V30 587 C 57.3978 -1.61979 -1.28243 0
M  V30 588 C 57.8058 -0.288576 -1.86986 0
M  V30 589 O 57.1488 0.735408 -1.68337 0
M  V30 590 C 57.2108 -2.62632 -2.45489 0
M  V30 591 C 56.8748 -4.071 -2.07651 0
M  V30 592 C 57.8718 -4.94049 -1.61901 0
M  V30 593 C 55.5568 -4.52801 -2.17431 0
M  V30 594 C 57.5508 -6.24736 -1.26428 0
M  V30 595 C 55.2378 -5.83503 -1.8157 0
M  V30 596 C 56.2358 -6.69294 -1.36142 0
M  V30 597 O 55.9238 -7.9756 -1.00764 0
M  V30 598 H 55.6558 -0.54834 -0.395347 0
M  V30 599 H 58.2098 -1.96002 -0.614204 0
M  V30 600 H 56.4398 -2.2378 -3.15372 0
M  V30 601 H 58.1288 -2.64925 -3.07522 0
M  V30 602 H 58.8948 -4.5997 -1.53795 0
M  V30 603 H 54.7738 -3.86196 -2.51742 0
M  V30 604 H 58.3178 -6.91652 -0.908992 0
M  V30 605 H 54.2148 -6.17112 -1.89324 0
M  V30 606 H 54.9828 -8.10529 -1.13952 0
M  V30 607 N 57.6459 0.756429 -1.3826 0
M  V30 608 C 58.9229 1.50584 -1.24835 0
M  V30 609 C 59.3029 2.10556 0.151485 0
M  V30 610 O 58.6509 1.96825 1.1607 0
M  V30 611 C 58.8609 2.57448 -2.3563 0
M  V30 612 C 60.2089 3.24429 -2.73917 0
M  V30 613 O 61.2329 2.67751 -2.34921 0
M  V30 614 O 60.0919 4.26937 -3.41156 0
M  V30 615 H 57.1859 0.667664 -0.48801 0
M  V30 616 H 59.7319 0.792083 -1.5008 0
M  V30 617 H 58.5039 2.11362 -3.29305 0
M  V30 618 H 58.1269 3.36408 -2.11933 0
M  V30 619 N 59.124 1.23083 0.984299 0
M  V30 620 C 60.372 1.05848 1.72165 0
M  V30 621 C 60.693 -0.406049 1.90726 0
M  V30 622 O 59.963 -1.29139 1.47309 0
M  V30 623 H 58.543 0.388685 0.637913 0
M  V30 624 H 61.205 1.54736 1.18503 0
M  V30 625 H 60.301 1.54327 2.71274 0
M  V30 626 N 60.6021 -1.18246 1.0419 0
M  V30 627 C 61.8481 -1.88536 0.747122 0
M  V30 628 C 62.1811 -1.80223 -0.723409 0
M  V30 629 O 61.4561 -1.20337 -1.52804 0
M  V30 630 C 61.7391 -3.38968 1.21544 0
M  V30 631 C 61.5921 -3.56084 2.74816 0
M  V30 632 C 62.9111 -4.32648 0.806482 0
M  V30 633 H 60.0301 -0.684619 0.272883 0
M  V30 634 H 62.6721 -1.39113 1.29413 0
M  V30 635 H 60.8221 -3.8119 0.750081 0
M  V30 636 H 62.4941 -3.22946 3.29399 0
M  V30 637 H 60.7371 -2.98699 3.14582 0
M  V30 638 H 61.4081 -4.61639 3.02644 0
M  V30 639 H 63.8841 -3.98211 1.20695 0
M  V30 640 H 62.7601 -5.36462 1.1619 0
M  V30 641 H 63.0211 -4.41146 -0.29029 0
M  V30 642 N 62.0802 -0.821533 -1.34494 0
M  V30 643 C 63.3572 -0.33159 -1.92769 0
M  V30 644 C 63.7372 1.18088 -1.74981 0
M  V30 645 O 63.0852 1.98733 -1.12772 0
M  V30 646 C 63.2952 -0.759398 -3.40638 0
M  V30 647 C 64.6432 -0.757433 -4.1779 0
M  V30 648 O 65.6672 -0.70189 -3.49216 0
M  V30 649 O 64.5262 -0.829361 -5.4017 0
M  V30 650 H 61.6202 -0.0902502 -0.822061 0
M  V30 651 H 64.1662 -0.906231 -1.43477 0
M  V30 652 H 62.9382 -1.8012 -3.47379 0
M  V30 653 H 62.5612 -0.160378 -3.97276 0
M  V30 654 N 63.5583 1.46682 -0.576371 0
M  V30 655 C 64.5213 2.28707 0.150239 0
M  V30 656 C 65.5213 1.38035 0.824794 0
M  V30 657 O 66.7113 1.60476 0.677719 0
M  V30 658 C 63.8433 3.18248 1.22192 0
M  V30 659 H 65.0363 2.94423 -0.570521 0
M  V30 660 H 62.5893 1.52688 -0.334078 0
M  V30 661 H 63.3243 2.57265 1.97447 0
M  V30 662 H 63.1093 3.85 0.742812 0
M  V30 663 H 64.5993 3.80001 1.73172 0
M  V30 664 N 65.0364 0.313813 1.54444 0
M  V30 665 C 66.2844 -0.291099 1.99993 0
M  V30 666 C 66.6054 -1.53418 1.20366 0
M  V30 667 O 65.8754 -1.93544 0.302927 0
M  V30 668 H 64.4554 -0.110552 0.738774 0
M  V30 669 H 67.1174 0.428106 1.9014 0
M  V30 670 H 66.2134 -0.554268 3.07139 0
M  V30 671 N 66.5145 -1.57545 0.0417849 0
M  V30 672 C 67.4615 -2.10977 -0.935805 0
M  V30 673 C 68.4315 -1.01486 -1.31491 0
M  V30 674 O 69.6165 -1.2898 -1.40602 0
M  V30 675 C 66.7565 -2.65169 -2.2086 0
M  V30 676 C 65.8695 -3.88714 -1.88482 0
M  V30 677 C 65.0045 -4.31254 -3.1015 0
M  V30 678 C 64.0435 -5.47524 -2.7365 0
M  V30 679 N 63.1805 -5.85162 -3.87982 0
M  V30 680 H 68.0205 -2.94218 -0.473249 0
M  V30 681 H 65.5575 -1.45415 -0.221981 0
M  V30 682 H 67.5155 -2.94685 -2.95325 0
M  V30 683 H 66.1455 -1.8474 -2.64709 0
M  V30 684 H 65.1975 -3.65849 -1.04205 0
M  V30 685 H 66.5095 -4.73245 -1.57608 0
M  V30 686 H 65.6635 -4.62273 -3.92923 0
M  V30 687 H 64.4025 -3.45516 -3.44195 0
M  V30 688 H 63.4075 -5.16187 -1.89291 0
M  V30 689 H 64.6325 -6.34971 -2.40807 0
M  V30 690 H 62.5785 -5.02377 -4.21846 0
M  V30 691 H 62.4955 -6.64362 -3.60775 0
M  V30 692 H 63.7635 -6.20791 -4.71422 0
M  V30 693 N 67.9926 0.231505 -1.5589 0
M  V30 694 C 69.2226 0.973092 -1.82248 0
M  V30 695 C 69.6306 1.78845 -0.617328 0
M  V30 696 O 68.9736 1.78752 0.423499 0
M  V30 697 C 69.0356 1.94732 -3.02192 0
M  V30 698 C 68.6996 1.31743 -4.37599 0
M  V30 699 C 69.6966 0.712238 -5.14998 0
M  V30 700 C 67.3816 1.33218 -4.84312 0
M  V30 701 C 69.3756 0.130195 -6.37267 0
M  V30 702 C 67.0626 0.746286 -6.06526 0
M  V30 703 C 68.0606 0.146337 -6.82843 0
M  V30 704 O 67.7486 -0.430465 -8.02747 0
M  V30 705 H 67.4806 0.29125 -0.61004 0
M  V30 706 H 70.0346 0.254915 -2.03812 0
M  V30 707 H 68.2646 2.70422 -2.76422 0
M  V30 708 H 69.9536 2.55362 -3.15508 0
M  V30 709 H 70.7196 0.69324 -4.8002 0
M  V30 710 H 66.5986 1.78854 -4.24891 0
M  V30 711 H 70.1426 -0.33871 -6.96777 0
M  V30 712 H 66.0396 0.762663 -6.40979 0
M  V30 713 H 66.8076 -0.323818 -8.17859 0
M  V30 714 N 69.4707 1.49531 0.497807 0
M  V30 715 C 70.6987 1.62893 1.27567 0
M  V30 716 C 71.1137 0.301585 1.86376 0
M  V30 717 O 70.4707 -0.713335 1.67982 0
M  V30 718 C 70.5217 2.70013 2.40364 0
M  V30 719 O 70.2427 3.976 1.83972 0
M  V30 720 C 71.7437 2.94109 3.31685 0
M  V30 721 H 68.9637 0.548298 0.386794 0
M  V30 722 H 71.5077 1.95584 0.597245 0
M  V30 723 H 69.6627 2.40092 3.04031 0
M  V30 724 H 70.0767 4.56631 2.58047 0
M  V30 725 H 71.5507 3.72788 4.07104 0
M  V30 726 H 72.0277 2.04147 3.88871 0
M  V30 727 H 72.6337 3.2546 2.73781 0
M  V30 728 N 70.9488 -0.749086 1.3866 0
M  V30 729 C 72.1978 -1.50371 1.3443 0
M  V30 730 C 72.5108 -1.95503 -0.0616397 0
M  V30 731 O 73.7168 -2.70554 -0.226489 0
M  V30 732 C 72.1728 -2.71644 2.36088 0
M  V30 733 C 71.7808 -2.3352 3.82325 0
M  V30 734 C 73.5248 -3.49518 2.40909 0
M  V30 735 C 71.4318 -3.51431 4.75658 0
M  V30 736 H 70.3618 -0.564628 0.499712 0
M  V30 737 H 73.0128 -0.818449 1.64237 0
M  V30 738 H 71.3948 -3.42175 1.9933 0
M  V30 739 H 72.5688 -1.70627 4.28046 0
M  V30 740 H 70.8838 -1.6877 3.80665 0
M  V30 741 H 73.4808 -4.37197 3.07836 0
M  V30 742 H 73.8238 -3.90992 1.42937 0
M  V30 743 H 74.3568 -2.86005 2.76489 0
M  V30 744 H 71.0958 -3.15019 5.74842 0
M  V30 745 H 70.6158 -4.13352 4.34627 0
M  V30 746 H 72.2948 -4.17953 4.93887 0
M  V30 747 N 72.4269 -1.23603 -0.977757 0
M  V30 748 C 73.6749 -1.06759 -1.71601 0
M  V30 749 C 73.9959 0.395929 -1.90938 0
M  V30 750 O 73.2659 1.28356 -1.47992 0
M  V30 751 H 71.8459 -0.392062 -0.635843 0
M  V30 752 H 74.5079 -1.55362 -1.1768 0
M  V30 753 H 73.6039 -1.55763 -2.70452 0
M  V30 754 N 73.905 1.17692 -1.04816 0
M  V30 755 C 74.835 2.23777 -0.666791 0
M  V30 756 C 75.816 1.66796 0.33361 0
M  V30 757 O 77.001 1.93039 0.212042 0
M  V30 758 C 74.131 3.47281 -0.0367933 0
M  V30 759 C 73.085 4.17059 -0.961546 0
M  V30 760 C 72.411 5.34342 -0.195626 0
M  V30 761 C 73.711 4.69713 -2.28402 0
M  V30 762 H 75.405 2.55933 -1.55367 0
M  V30 763 H 72.951 1.23019 -0.748484 0
M  V30 764 H 74.904 4.20706 0.241775 0
M  V30 765 H 73.628 3.14381 0.885004 0
M  V30 766 H 72.287 3.45541 -1.22462 0
M  V30 767 H 71.935 4.97692 0.728816 0
M  V30 768 H 71.635 5.81966 -0.811775 0
M  V30 769 H 73.159 6.10553 0.0757473 0
M  V30 770 H 74.573 5.34794 -2.06563 0
M  V30 771 H 72.97 5.279 -2.8538 0
M  V30 772 H 74.04 3.86726 -2.92525 0
M  V30 773 N 75.3831 0.828654 1.34056 0
M  V30 774 C 76.6311 0.41863 1.97717 0
M  V30 775 C 76.9521 -1.02314 1.66002 0
M  V30 776 O 76.2221 -1.71119 0.953683 0
M  V30 777 H 74.8021 0.151809 0.731412 0
M  V30 778 H 77.4641 1.05936 1.63596 0
M  V30 779 H 76.5601 0.542318 3.07352 0
M  V30 780 N 76.8612 -1.46375 0.584142 0
M  V30 781 C 77.7932 -2.28443 -0.186119 0
M  V30 782 C 78.8062 -1.38596 -0.854115 0
M  V30 783 O 79.9952 -1.63183 -0.723438 0
M  V30 784 C 77.0952 -3.13671 -1.28311 0
M  V30 785 C 76.2682 -4.31652 -0.706758 0
M  V30 786 C 75.3272 -4.98267 -1.69163 0
M  V30 787 O 74.3532 -5.55815 -1.22712 0
M  V30 788 N 75.5552 -4.95408 -3.02575 0
M  V30 789 H 78.3202 -2.9519 0.517986 0
M  V30 790 H 75.8812 -1.56303 0.42201 0
M  V30 791 H 77.8732 -3.55101 -1.94128 0
M  V30 792 H 76.4432 -2.48989 -1.89005 0
M  V30 793 H 75.6632 -3.93989 0.128908 0
M  V30 794 H 76.9512 -5.07906 -0.301506 0
M  V30 795 H 76.3492 -4.49902 -3.42936 0
M  V30 796 H 74.9062 -5.40774 -3.63877 0
M  V30 797 N 78.3393 -0.321999 -1.54275 0
M  V30 798 C 79.3023 0.531975 -2.22941 0
M  V30 799 C 80.3023 1.04478 -1.22234 0
M  V30 800 O 81.4923 0.937452 -1.46825 0
M  V30 801 C 78.6243 1.73874 -2.93224 0
M  V30 802 H 79.8173 -0.0682612 -2.99822 0
M  V30 803 H 77.3703 -0.0730644 -1.56129 0
M  V30 804 H 78.1053 2.37825 -2.20476 0
M  V30 805 H 77.8903 1.37847 -3.6707 0
M  V30 806 H 79.3803 2.34496 -3.45545 0
M  V30 807 N 79.8174 1.5752 -0.0501392 0
M  V30 808 C 80.7644 2.1147 0.924603 0
M  V30 809 C 81.7344 1.02182 1.30951 0
M  V30 810 O 82.9194 1.29723 1.39916 0
M  V30 811 C 80.0594 2.66337 2.19451 0
M  V30 812 C 79.1724 3.89708 1.86418 0
M  V30 813 C 78.3074 4.32893 3.07859 0
M  V30 814 C 77.3464 5.48967 2.70742 0
M  V30 815 N 76.4834 5.87211 3.84874 0
M  V30 816 H 81.3234 2.94465 0.457639 0
M  V30 817 H 78.8604 1.45531 0.214266 0
M  V30 818 H 80.8184 2.96247 2.93758 0
M  V30 819 H 79.4484 1.86141 2.63726 0
M  V30 820 H 78.5004 3.66396 1.02264 0
M  V30 821 H 79.8124 4.74074 1.55096 0
M  V30 822 H 78.9664 4.6435 3.90466 0
M  V30 823 H 77.7054 3.47336 3.42358 0
M  V30 824 H 76.7104 5.17183 1.86551 0
M  V30 825 H 77.9354 6.3624 2.37436 0
M  V30 826 H 75.8814 5.04607 4.19175 0
M  V30 827 H 75.7984 6.66266 3.57247 0
M  V30 828 H 77.0664 6.23282 4.68123 0
M  V30 829 N 81.2955 -0.223234 1.56011 0
M  V30 830 C 82.2285 -1.30377 1.87289 0
M  V30 831 C 83.2065 -1.45286 0.730112 0
M  V30 832 O 84.3905 -1.61126 0.978302 0
M  V30 833 C 81.5175 -2.67431 2.07843 0
M  V30 834 C 80.5635 -2.69546 3.30526 0
M  V30 835 S 81.3965 -2.23781 4.865 0
M  V30 836 C 82.5525 -3.62714 5.10088 0
M  V30 837 H 82.7855 -1.03652 2.78646 0
M  V30 838 H 80.3185 -0.425393 1.48424 0
M  V30 839 H 82.2765 -3.46336 2.20368 0
M  V30 840 H 80.9375 -2.91381 1.17285 0
M  V30 841 H 80.1305 -3.70255 3.41947 0
M  V30 842 H 79.7325 -1.98703 3.16849 0
M  V30 843 H 82.0245 -4.58391 4.98883 0
M  V30 844 H 82.9675 -3.5621 6.11981 0
M  V30 845 H 83.3755 -3.56323 4.37829 0
M  V30 846 N 82.7736 -1.49793 -0.48987 0
M  V30 847 C 84.0216 -1.59525 -1.24081 0
M  V30 848 C 84.3426 -0.288953 -1.92847 0
M  V30 849 O 83.6126 0.692436 -1.83254 0
M  V30 850 H 82.1926 -0.587796 -0.460983 0
M  V30 851 H 84.8546 -1.86477 -0.566778 0
M  V30 852 H 83.9506 -2.39696 -1.99881 0
M  V30 853 N 84.2517 0.741722 -1.39055 0
M  V30 854 C 85.4987 1.50114 -1.35912 0
M  V30 855 C 85.8267 1.94443 0.0470937 0
M  V30 856 O 85.0817 1.66612 1.02659 0
M  V30 857 C 85.3807 2.7592 -2.27163 0
M  V30 858 C 85.0467 2.50493 -3.74919 0
M  V30 859 C 83.7087 2.43267 -4.1518 0
M  V30 860 C 86.0607 2.28585 -4.684 0
M  V30 861 C 83.3887 2.12166 -5.46994 0
M  V30 862 C 85.7407 1.99002 -6.00484 0
M  V30 863 C 84.4047 1.90241 -6.39816 0
M  V30 864 H 83.6747 0.549306 -0.497336 0
M  V30 865 H 86.3217 0.851896 -1.71508 0
M  V30 866 H 84.6267 3.45553 -1.84663 0
M  V30 867 H 86.3237 3.33923 -2.22028 0
M  V30 868 H 82.9137 2.56992 -3.43006 0
M  V30 869 H 87.0977 2.33139 -4.38132 0
M  V30 870 H 82.3537 2.03901 -5.76398 0
M  V30 871 H 86.5277 1.81057 -6.72452 0
M  V30 872 H 84.1547 1.65907 -7.41875 0
M  V30 873 N 85.7298 1.2412 0.971189 0
M  V30 874 C 86.9698 1.09066 1.7287 0
M  V30 875 C 87.3338 -0.364794 1.88503 0
M  V30 876 O 88.5348 -0.636748 2.61149 0
M  V30 877 C 86.8058 1.80629 3.08396 0
M  V30 878 S 88.3648 1.81263 3.99611 0
M  V30 879 H 85.1828 0.390145 0.594397 0
M  V30 880 H 87.7848 1.57397 1.15959 0
M  V30 881 H 86.4888 2.85647 2.94676 0
M  V30 882 H 86.0198 1.32617 3.70373 0
M  V30 883 H 88.0348 0.877804 4.88374 0
M  V30 884 N 87.2079 -1.17134 1.05439 0
M  V30 885 C 88.4359 -1.91372 0.786414 0
M  V30 886 C 88.8509 -1.76955 -0.658202 0
M  V30 887 O 88.2079 -1.10838 -1.44987 0
M  V30 888 C 88.2589 -3.42356 1.1608 0
M  V30 889 O 87.9799 -3.56332 2.54871 0
M  V30 890 C 89.4809 -4.33663 0.919322 0
M  V30 891 H 86.7009 -0.607118 0.285743 0
M  V30 892 H 89.2449 -1.48525 1.40572 0
M  V30 893 H 87.3999 -3.82939 0.586191 0
M  V30 894 H 87.8139 -4.49896 2.69618 0
M  V30 895 H 89.2879 -5.38099 1.231 0
M  V30 896 H 89.7649 -4.38959 -0.145359 0
M  V30 897 H 90.3709 -3.98796 1.47789 0
M  V30 898 N 88.686 -0.835752 -1.33615 0
M  V30 899 C 89.963 -0.352017 -1.92406 0
M  V30 900 C 90.343 1.16225 -1.76224 0
M  V30 901 O 89.691 1.97526 -1.14873 0
M  V30 902 C 89.901 -0.795485 -3.39813 0
M  V30 903 C 91.249 -0.801703 -4.16963 0
M  V30 904 O 92.273 -0.738889 -3.48452 0
M  V30 905 O 91.132 -0.886607 -5.3926 0
M  V30 906 H 88.226 -0.0989641 -0.821057 0
M  V30 907 H 90.772 -0.921397 -1.42507 0
M  V30 908 H 89.544 -1.83795 -3.45449 0
M  V30 909 H 89.167 -0.202505 -3.97084 0
M  V30 910 N 90.1641 1.46063 -0.591896 0
M  V30 911 C 91.5801 1.57561 -0.254288 0
M  V30 912 C 91.7801 1.58565 1.24336 0
M  V30 913 O 90.8361 1.50753 2.02558 0
M  V30 914 C 92.1491 2.86549 -0.911611 0
M  V30 915 C 93.6971 3.00197 -0.886059 0
M  V30 916 C 94.1721 4.31933 -1.5231 0
M  V30 917 N 95.6631 4.38654 -1.48786 0
M  V30 918 C 96.3981 5.39222 -1.95006 0
M  V30 919 N 95.8941 6.46414 -2.49241 0
M  V30 920 N 97.6871 5.3048 -1.85868 0
M  V30 921 H 89.8381 1.43655 -1.56451 0
M  V30 922 H 92.1011 0.68583 -0.654478 0
M  V30 923 H 91.8071 2.91651 -1.96551 0
M  V30 924 H 91.6811 3.74794 -0.425368 0
M  V30 925 H 94.0681 2.9467 0.159246 0
M  V30 926 H 94.1491 2.13403 -1.41041 0
M  V30 927 H 93.7931 4.38217 -2.56765 0
M  V30 928 H 93.7231 5.17516 -0.973891 0
M  V30 929 H 96.2141 3.61793 -1.09151 0
M  V30 930 H 96.5271 7.19376 -2.82344 0
M  V30 931 H 94.8721 6.47208 -2.53272 0
M  V30 932 H 98.0631 4.45643 -1.43248 0
M  V30 933 H 98.2361 6.08711 -2.22204 0
M  V30 934 N 91.6422 0.330177 1.54103 0
M  V30 935 C 92.5522 -0.541534 2.28264 0
M  V30 936 C 93.5682 -1.12351 1.32866 0
M  V30 937 O 94.7442 -1.14206 1.65888 0
M  V30 938 C 91.8092 -1.68322 3.03098 0
M  V30 939 C 90.8702 -1.13238 4.14096 0
M  V30 940 C 90.1032 -2.21966 4.85352 0
M  V30 941 O 90.3262 -3.42437 4.56172 0
M  V30 942 O 89.2602 -1.87013 5.7211 0
M  V30 943 H 93.0862 0.060938 3.03639 0
M  V30 944 H 90.6712 0.09565 1.49093 0
M  V30 945 H 92.5532 -2.34777 3.49939 0
M  V30 946 H 91.2282 -2.27176 2.30593 0
M  V30 947 H 90.1352 -0.432736 3.71589 0
M  V30 948 H 91.4682 -0.588898 4.88664 0
M  V30 949 N 93.1203 -1.57491 0.0584922 0
M  V30 950 C 94.3973 -1.84346 -0.653918 0
M  V30 951 C 94.7773 -0.948355 -1.88599 0
M  V30 952 O 94.1253 -0.0112403 -2.28497 0
M  V30 953 C 94.3353 -3.34239 -1.00425 0
M  V30 954 C 95.6833 -4.01431 -1.38342 0
M  V30 955 O 96.7073 -3.38907 -1.09637 0
M  V30 956 O 95.5663 -5.11683 -1.91943 0
M  V30 957 H 92.6603 -0.761112 -0.323478 0
M  V30 958 H 95.2063 -1.6947 0.0884125 0
M  V30 959 H 93.9783 -3.91089 -0.128625 0
M  V30 960 H 93.6013 -3.54329 -1.80378 0
M  V30 961 N 94.5984 0.214957 -1.56127 0
M  V30 962 C 95.8474 0.936451 -1.78643 0
M  V30 963 C 96.1604 1.85237 -0.628229 0
M  V30 964 O 97.3664 2.613 -0.737186 0
M  V30 965 C 95.8224 1.7154 -3.16389 0
M  V30 966 C 95.4304 0.845299 -4.39953 0
M  V30 967 C 97.1744 2.42772 -3.48227 0
M  V30 968 C 95.0814 1.62198 -5.68723 0
M  V30 969 H 94.0114 0.353401 -0.666051 0
M  V30 970 H 96.6624 0.190169 -1.82512 0
M  V30 971 H 95.0444 2.50484 -3.06715 0
M  V30 972 H 96.2184 0.0959353 -4.607 0
M  V30 973 H 94.5334 0.244789 -4.1568 0
M  V30 974 H 97.1304 3.01394 -4.41663 0
M  V30 975 H 97.4734 3.15984 -2.71035 0
M  V30 976 H 98.0064 1.70813 -3.5926 0
M  V30 977 H 94.7454 0.933011 -6.48826 0
M  V30 978 H 94.2654 2.34579 -5.52026 0
M  V30 979 H 95.9444 2.18095 -6.09133 0
M  V30 980 N 96.0765 1.50051 0.48192 0
M  V30 981 C 97.0245 1.68635 1.60203 0
M  V30 982 C 98.0185 0.552184 1.60148 0
M  V30 983 O 99.2245 0.732377 1.64427 0
M  V30 984 H 95.5995 0.532081 0.531407 0
M  V30 985 H 97.5705 2.62616 1.41688 0
M  V30 986 C 96.3195 1.78775 2.9822 0
M  V30 987 H 95.6425 2.6543 2.98976 0
M  V30 988 H 97.0825 1.95806 3.7608 0
M  V30 989 C 95.5415 0.536849 3.32595 0
M  V30 990 O 96.0715 -0.328897 4.00351 0
M  V30 991 N 94.2775 0.394091 2.87915 0
M  V30 992 H 93.8245 1.09962 2.32951 0
M  V30 993 H 93.7825 -0.441737 3.11281 0
M  V30 994 N 97.5546 -0.734337 1.39446 0
M  V30 995 C 98.7796 -1.52866 1.40167 0
M  V30 996 C 99.2046 -1.881 -0.00171513 0
M  V30 997 O 98.5626 -1.51957 -0.988879 0
M  V30 998 C 98.6106 -2.79235 2.28167 0
M  V30 999 O 97.7146 -3.75185 1.71201 0
M  V30 1000 H 97.0556 -0.461618 0.477289 0
M  V30 1001 H 99.5856 -0.905949 1.8345 0
M  V30 1002 H 99.5956 -3.27963 2.42702 0
M  V30 1003 H 98.2706 -2.52923 3.30156 0
M  V30 1004 H 96.8476 -3.33958 1.65912 0
M  V30 1005 N 99.0327 -1.24633 -0.964593 0
M  V30 1006 C 99.9627 -1.06611 -2.07741 0
M  V30 1007 C 100.944 0.0218666 -1.70086 0
M  V30 1008 O 102.129 -0.145793 -1.93652 0
M  V30 1009 C 99.2587 -0.673444 -3.40708 0
M  V30 1010 C 98.2127 -1.71054 -3.92332 0
M  V30 1011 C 97.5387 -1.17285 -5.21678 0
M  V30 1012 C 98.8387 -3.10718 -4.19824 0
M  V30 1013 H 100.533 -1.99693 -2.23076 0
M  V30 1014 H 98.0787 -0.96152 -1.07195 0
M  V30 1015 H 100.032 -0.534345 -4.17998 0
M  V30 1016 H 98.7557 0.293073 -3.25282 0
M  V30 1017 H 97.4147 -1.83791 -3.17201 0
M  V30 1018 H 97.0627 -0.196847 -5.02615 0
M  V30 1019 H 96.7627 -1.86592 -5.57187 0
M  V30 1020 H 98.2867 -1.04593 -6.01575 0
M  V30 1021 H 99.7007 -3.01192 -4.87808 0
M  V30 1022 H 98.0977 -3.77406 -4.66567 0
M  V30 1023 H 99.1677 -3.58524 -3.26479 0
M  V30 1024 N 100.511 1.16574 -1.06058 0
M  V30 1025 C 101.751 1.88723 -0.78504 0
M  V30 1026 C 102.115 1.79706 0.676006 0
M  V30 1027 O 103.316 2.46757 1.06603 0
M  V30 1028 C 101.587 3.34338 -1.26304 0
M  V30 1029 S 103.146 4.24366 -1.1162 0
M  V30 1030 H 99.9638 0.651448 -0.284846 0
M  V30 1031 H 102.566 1.40732 -1.35701 0
M  V30 1032 H 101.27 3.38439 -2.32136 0
M  V30 1033 H 100.801 3.87378 -0.685719 0
M  V30 1034 H 102.816 4.96179 -0.0456539 0
M  V30 1035 N 101.989 0.842826 1.3317 0
M  V30 1036 C 102.922 0.223862 2.27099 0
M  V30 1037 C 103.9 -0.631311 1.49844 0
M  V30 1038 O 105.084 -0.590708 1.79005 0
M  V30 1039 C 102.211 -0.685313 3.31694 0
M  V30 1040 C 101.257 0.094919 4.26394 0
M  V30 1041 S 102.09 1.45546 5.15341 0
M  V30 1042 C 103.246 0.551685 6.23464 0
M  V30 1043 H 103.479 1.02015 2.79249 0
M  V30 1044 H 101.012 0.639797 1.4052 0
M  V30 1045 H 102.97 -1.20426 3.92438 0
M  V30 1046 H 101.631 -1.4553 2.78352 0
M  V30 1047 H 100.824 -0.597059 5.00451 0
M  V30 1048 H 100.426 0.545054 3.70007 0
M  V30 1049 H 102.718 -0.248877 6.77043 0
M  V30 1050 H 103.661 1.26253 6.96754 0
M  V30 1051 H 104.069 0.131275 5.64347 0
M  V30 1052 N 103.467 -1.45747 0.599634 0
M  V30 1053 C 104.695 -2.06668 0.0978551 0
M  V30 1054 C 105.11 -1.44562 -1.21439 0
M  V30 1055 O 104.467 -0.556923 -1.73795 0
M  V30 1056 C 104.518 -3.61456 -0.0567044 0
M  V30 1057 O 104.239 -4.21242 1.20361 0
M  V30 1058 C 105.74 -4.39345 -0.590869 0
M  V30 1059 H 102.96 -0.667825 0.0651943 0
M  V30 1060 H 105.504 -1.87115 0.82511 0
M  V30 1061 H 103.659 -3.80378 -0.734251 0
M  V30 1062 H 104.073 -5.14323 1.02821 0
M  V30 1063 H 105.547 -5.48182 -0.648131 0
M  V30 1064 H 106.024 -4.08568 -1.61147 0
M  V30 1065 H 106.63 -4.25268 0.0523679 0
M  V30 1066 N 104.945 -0.338344 -1.53925 0
M  V30 1067 C 106.191 0.260143 -2.01125 0
M  V30 1068 C 106.524 1.50617 -1.22589 0
M  V30 1069 O 105.799 1.91979 -0.312113 0
M  V30 1070 C 106.082 0.579499 -3.55407 0
M  V30 1071 C 105.935 -0.678264 -4.44657 0
M  V30 1072 C 107.254 1.39122 -4.17532 0
M  V30 1073 H 104.373 0.0930772 -0.731099 0
M  V30 1074 H 107.015 -0.457852 -1.84401 0
M  V30 1075 H 105.165 1.19118 -3.69788 0
M  V30 1076 H 106.837 -1.31631 -4.42121 0
M  V30 1077 H 105.08 -1.3042 -4.13731 0
M  V30 1078 H 105.751 -0.410143 -5.50474 0
M  V30 1079 H 108.227 0.874035 -4.06817 0
M  V30 1080 H 107.103 1.58342 -5.25565 0
M  V30 1081 H 107.364 2.39178 -3.71815 0
M  V30 1082 N 106.423 1.57458 -0.0668435 0
M  V30 1083 C 107.669 1.93587 0.6043 0
M  V30 1084 C 108.002 0.946722 1.69561 0
M  V30 1085 O 107.277 -0.0248516 1.94484 0
M  V30 1086 C 107.56 3.40014 1.18585 0
M  V30 1087 C 107.413 4.49685 0.101529 0
M  V30 1088 C 108.732 3.87154 2.09284 0
M  V30 1089 H 105.851 0.703958 0.218202 0
M  V30 1090 H 108.493 1.89542 -0.131804 0
M  V30 1091 H 106.643 3.43592 1.81319 0
M  V30 1092 H 108.315 4.5823 -0.531279 0
M  V30 1093 H 106.558 4.30059 -0.568487 0
M  V30 1094 H 107.229 5.49266 0.54874 0
M  V30 1095 H 109.705 3.85551 1.56491 0
M  V30 1096 H 108.581 4.90231 2.46911 0
M  V30 1097 H 108.842 3.2481 2.99918 0
M  V30 1098 N 107.901 -0.206675 1.56239 0
M  V30 1099 C 108.833 -1.27997 1.9013 0
M  V30 1100 C 109.846 -1.42299 0.790883 0
M  V30 1101 O 111.035 -1.42931 1.06925 0
M  V30 1102 C 108.135 -2.65368 2.10792 0
M  V30 1103 C 107.308 -2.72824 3.41886 0
M  V30 1104 C 106.367 -3.9131 3.51799 0
M  V30 1105 O 105.393 -3.78953 4.24716 0
M  V30 1106 N 106.595 -5.06265 2.84035 0
M  V30 1107 H 109.36 -0.992444 2.82791 0
M  V30 1108 H 106.921 -0.396652 1.56966 0
M  V30 1109 H 108.913 -3.43039 2.14724 0
M  V30 1110 H 107.483 -2.86657 1.24685 0
M  V30 1111 H 106.703 -1.81515 3.49923 0
M  V30 1112 H 107.991 -2.74786 4.28217 0
M  V30 1113 H 107.389 -5.19203 2.246 0
M  V30 1114 H 105.946 -5.81925 2.93609 0
M  V30 1115 N 109.379 -1.50304 -0.473955 0
M  V30 1116 C 110.327 -1.69482 -1.59307 0
M  V30 1117 C 111.321 -0.560669 -1.59853 0
M  V30 1118 O 112.527 -0.741087 -1.64036 0
M  V30 1119 H 108.902 -0.534892 -0.528578 0
M  V30 1120 H 110.873 -2.63364 -1.40293 0
M  V30 1121 C 109.622 -1.80354 -2.97267 0
M  V30 1122 H 108.945 -2.67012 -2.97564 0
M  V30 1123 H 110.385 -1.97798 -3.75036 0
M  V30 1124 C 108.844 -0.55448 -3.32306 0
M  V30 1125 O 109.374 0.307661 -4.0052 0
M  V30 1126 N 107.58 -0.409354 -2.87702 0
M  V30 1127 H 107.127 -1.11196 -2.32364 0
M  V30 1128 H 107.085 0.425223 -3.11511 0
M  V30 1129 N 110.857 0.726932 -1.39834 0
M  V30 1130 C 111.787 1.85405 -1.41941 0
M  V30 1131 C 112.768 1.67751 -0.281728 0
M  V30 1132 O 113.953 1.8795 -0.488717 0
M  V30 1133 C 111.083 3.23243 -1.2701 0
M  V30 1134 C 110.037 3.55549 -2.38262 0
M  V30 1135 C 109.363 4.9241 -2.08415 0
M  V30 1136 C 110.663 3.577 -3.80589 0
M  V30 1137 H 112.357 1.83899 -2.36266 0
M  V30 1138 H 109.903 0.883349 -1.13723 0
M  V30 1139 H 111.856 4.01775 -1.27103 0
M  V30 1140 H 110.58 3.25296 -0.291564 0
M  V30 1141 H 109.239 2.79351 -2.37399 0
M  V30 1142 H 108.887 4.91052 -1.0898 0
M  V30 1143 H 108.587 5.14992 -2.82943 0
M  V30 1144 H 110.111 5.73289 -2.10171 0
M  V30 1145 H 111.525 4.26293 -3.83337 0
M  V30 1146 H 109.922 3.91804 -4.54543 0
M  V30 1147 H 110.992 2.57328 -4.10987 0
M  V30 1148 N 112.336 1.25143 0.95797 0
M  V30 1149 C 113.269 0.995565 2.05338 0
M  V30 1150 C 114.247 -0.0740423 1.62431 0
M  V30 1151 O 115.431 0.0649212 1.88388 0
M  V30 1152 C 112.558 0.504298 3.34925 0
M  V30 1153 C 111.604 1.56393 3.96792 0
M  V30 1154 S 112.437 3.14815 4.33188 0
M  V30 1155 C 113.593 2.67415 5.65898 0
M  V30 1156 H 113.826 1.92309 2.26726 0
M  V30 1157 H 111.359 1.08635 1.09716 0
M  V30 1158 H 113.317 0.227497 4.09869 0
M  V30 1159 H 111.978 -0.402671 3.11508 0
M  V30 1160 H 111.171 1.17082 4.90212 0
M  V30 1161 H 110.773 1.79124 3.28315 0
M  V30 1162 H 113.065 2.10833 6.4386 0
M  V30 1163 H 114.008 3.59463 6.10076 0
M  V30 1164 H 114.416 2.07521 5.24972 0
M  V30 1165 N 113.814 -1.1601 1.06675 0
M  V30 1166 C 114.724 -2.24156 0.692179 0
M  V30 1167 C 115.74 -1.71507 -0.293513 0
M  V30 1168 O 116.916 -2.009 -0.141861 0
M  V30 1169 C 113.981 -3.46587 0.0884131 0
M  V30 1170 C 113.042 -4.14257 1.12646 0
M  V30 1171 C 112.275 -5.30844 0.551416 0
M  V30 1172 O 112.498 -5.66858 -0.634656 0
M  V30 1173 O 111.432 -5.87848 1.29298 0
M  V30 1174 H 115.258 -2.58513 1.59388 0
M  V30 1175 H 112.843 -1.23599 0.83926 0
M  V30 1176 H 114.725 -4.20679 -0.246361 0
M  V30 1177 H 113.4 -3.13994 -0.786712 0
M  V30 1178 H 112.307 -3.42118 1.51348 0
M  V30 1179 H 113.64 -4.50914 1.97325 0
M  V30 1180 N 115.292 -0.849877 -1.32721 0
M  V30 1181 C 116.708 -0.539102 -1.50219 0
M  V30 1182 C 116.908 0.931271 -1.78689 0
M  V30 1183 O 115.964 1.71455 -1.85363 0
M  V30 1184 C 117.277 -1.42196 -2.64954 0
M  V30 1185 C 118.825 -1.42189 -2.78839 0
M  V30 1186 C 119.3 -2.28985 -3.96648 0
M  V30 1187 N 120.791 -2.26754 -4.03902 0
M  V30 1188 C 121.526 -2.90644 -4.94281 0
M  V30 1189 N 121.022 -3.63629 -5.897 0
M  V30 1190 N 122.815 -2.80057 -4.87365 0
M  V30 1191 H 114.966 -1.80156 -1.12506 0
M  V30 1192 H 117.229 -0.769217 -0.554085 0
M  V30 1193 H 116.935 -2.46733 -2.50631 0
M  V30 1194 H 116.809 -1.10591 -3.60624 0
M  V30 1195 H 119.196 -0.38419 -2.92588 0
M  V30 1196 H 119.277 -1.77807 -1.83898 0
M  V30 1197 H 118.921 -3.32819 -3.83658 0
M  V30 1198 H 118.851 -1.90702 -4.90857 0
M  V30 1199 H 121.342 -1.73688 -3.3562 0
M  V30 1200 H 121.655 -4.09558 -6.55349 0
M  V30 1201 H 120 -3.67737 -5.89741 0
M  V30 1202 H 123.191 -2.22593 -4.11789 0
M  V30 1203 H 123.364 -3.30132 -5.57599 0
M  V30 1204 N 116.77 1.45427 -0.607355 0
M  V30 1205 C 117.718 2.32269 0.12411 0
M  V30 1206 C 118.712 1.45955 0.859854 0
M  V30 1207 O 119.918 1.6244 0.775447 0
M  V30 1208 H 116.293 0.749691 0.0588839 0
M  V30 1209 H 118.264 2.91743 -0.626762 0
M  V30 1210 C 117.013 3.29567 1.1082 0
M  V30 1211 H 116.336 3.95978 0.551492 0
M  V30 1212 H 117.776 3.93061 1.58995 0
M  V30 1213 C 116.235 2.56722 2.18164 0
M  V30 1214 O 116.765 2.34842 3.25902 0
M  V30 1215 N 114.971 2.16861 1.93442 0
M  V30 1216 H 114.518 2.34855 1.05834 0
M  V30 1217 H 114.476 1.68444 2.65469 0
M  V30 1218 N 118.248 0.346503 1.53744 0
M  V30 1219 C 119.196 -0.52422 2.26616 0
M  V30 1220 C 120.19 -1.09948 1.28871 0
M  V30 1221 O 121.396 -1.04488 1.46568 0
M  V30 1222 H 117.771 -0.187743 0.728187 0
M  V30 1223 H 119.742 0.11239 2.98188 0
M  V30 1224 C 118.491 -1.66186 3.05414 0
M  V30 1225 H 117.814 -1.22848 3.80458 0
M  V30 1226 H 119.254 -2.24622 3.59612 0
M  V30 1227 C 117.713 -2.59302 2.1509 0
M  V30 1228 O 118.243 -3.61628 1.74895 0
M  V30 1229 N 116.449 -2.28055 1.8011 0
M  V30 1230 H 115.996 -1.44883 2.12994 0
M  V30 1231 H 115.954 -2.90615 1.19958 0
M  V30 1232 N 119.726 -1.57421 0.075193 0
M  V30 1233 C 120.656 -2.15942 -0.888324 0
M  V30 1234 C 121.637 -1.08737 -1.30806 0
M  V30 1235 O 122.822 -1.36787 -1.37851 0
M  V30 1236 C 119.952 -2.72379 -2.1547 0
M  V30 1237 C 118.906 -3.8478 -1.87425 0
M  V30 1238 C 118.232 -4.27834 -3.20721 0
M  V30 1239 C 119.532 -5.08869 -1.17684 0
M  V30 1240 H 121.226 -2.96705 -0.400799 0
M  V30 1241 H 118.772 -1.42723 -0.191342 0
M  V30 1242 H 120.725 -3.11965 -2.83295 0
M  V30 1243 H 119.449 -1.88841 -2.6647 0
M  V30 1244 H 118.108 -3.45703 -1.22004 0
M  V30 1245 H 117.756 -3.41214 -3.6957 0
M  V30 1246 H 117.456 -5.03605 -3.02746 0
M  V30 1247 H 118.98 -4.70039 -3.89738 0
M  V30 1248 H 120.394 -5.4575 -1.75584 0
M  V30 1249 H 118.791 -5.8994 -1.09956 0
M  V30 1250 H 119.861 -4.84648 -0.156453 0
M  V30 1251 N 121.204 0.198386 -1.56346 0
M  V30 1252 C 122.429 0.939682 -1.84891 0
M  V30 1253 C 122.854 1.76202 -0.658369 0
M  V30 1254 O 122.212 1.76993 0.392851 0
M  V30 1255 C 122.26 1.81428 -3.11635 0
M  V30 1256 O 121.364 2.91265 -2.91956 0
M  V30 1257 H 120.705 0.264807 -0.608912 0
M  V30 1258 H 123.235 0.204695 -2.03573 0
M  V30 1259 H 123.245 2.21958 -3.42343 0
M  V30 1260 H 121.92 1.21004 -3.97908 0
M  V30 1261 H 120.497 2.54514 -2.72538 0
M  V30 1262 N 122.682 1.50554 0.465978 0
M  V30 1263 C 123.912 1.65323 1.23903 0
M  V30 1264 C 124.32 0.338051 1.86155 0
M  V30 1265 O 123.663 -0.690518 1.70228 0
M  V30 1266 C 123.725 2.69048 2.3844 0
M  V30 1267 C 123.389 4.12462 1.96784 0
M  V30 1268 C 124.386 4.98168 1.48745 0
M  V30 1269 C 122.071 4.58407 2.05349 0
M  V30 1270 C 124.065 6.27868 1.0982 0
M  V30 1271 C 121.752 5.88112 1.66035 0
M  V30 1272 C 122.75 6.72668 1.18349 0
M  V30 1273 O 122.438 7.99951 0.795825 0
M  V30 1274 H 122.17 0.558629 0.38067 0
M  V30 1275 H 124.724 1.97561 0.562022 0
M  V30 1276 H 122.954 2.32062 3.09328 0
M  V30 1277 H 124.643 2.72985 3.0039 0
M  V30 1278 H 125.409 4.63885 1.41546 0
M  V30 1279 H 121.288 3.92735 2.41414 0
M  V30 1280 H 124.832 6.93819 0.725293 0
M  V30 1281 H 120.729 6.21914 1.72895 0
M  V30 1282 H 121.497 8.13265 0.924222 0
M  V30 1283 N 124.16 -0.719506 1.40217 0
M  V30 1284 C 125.437 -1.47221 1.28784 0
M  V30 1285 C 125.817 -2.10883 -0.0956067 0
M  V30 1286 O 125.165 -1.99833 -1.10811 0
M  V30 1287 C 125.375 -2.5111 2.42373 0
M  V30 1288 C 126.723 -3.17053 2.82423 0
M  V30 1289 O 127.747 -2.61429 2.41937 0
M  V30 1290 O 126.606 -4.17742 3.52355 0
M  V30 1291 H 123.7 -0.654491 0.50554 0
M  V30 1292 H 126.246 -0.752014 1.52128 0
M  V30 1293 H 125.018 -2.02556 3.34793 0
M  V30 1294 H 124.641 -3.3067 2.20778 0
M  V30 1295 N 125.638 -1.25649 -0.95132 0
M  V30 1296 C 126.878 -1.11802 -1.71113 0
M  V30 1297 C 127.242 0.334758 -1.89059 0
M  V30 1298 O 128.443 0.595121 -2.62129 0
M  V30 1299 C 126.714 -1.85512 -3.05483 0
M  V30 1300 S 128.273 -1.87597 -3.96677 0
M  V30 1301 H 125.091 -0.399552 -0.588115 0
M  V30 1302 H 127.693 -1.59222 -1.1344 0
M  V30 1303 H 126.397 -2.90299 -2.90094 0
M  V30 1304 H 125.928 -1.38493 -3.68216 0
M  V30 1305 H 127.943 -0.955389 -4.86916 0
M  V30 1306 N 127.117 1.15442 -1.07289 0
M  V30 1307 C 128.366 1.85557 -0.790669 0
M  V30 1308 C 128.679 1.83186 0.685739 0
M  V30 1309 O 129.885 2.48977 1.0827 0
M  V30 1310 C 128.341 3.33038 -1.36433 0
M  V30 1311 C 127.949 3.43856 -2.8717 0
M  V30 1312 C 129.693 4.0834 -1.1601 0
M  V30 1313 C 127.6 4.85482 -3.3773 0
M  V30 1314 H 126.53 0.695122 -0.292098 0
M  V30 1315 H 129.181 1.30219 -1.29287 0
M  V30 1316 H 127.563 3.88043 -0.789864 0
M  V30 1317 H 128.737 2.98961 -3.50655 0
M  V30 1318 H 127.052 2.81998 -3.06376 0
M  V30 1319 H 129.649 5.12859 -1.51262 0
M  V30 1320 H 129.992 4.16182 -0.0991007 0
M  V30 1321 H 130.525 3.59603 -1.70089 0
M  V30 1322 H 127.264 4.82823 -4.43353 0
M  V30 1323 H 126.784 5.30961 -2.78999 0
M  V30 1324 H 128.463 5.54335 -3.33648 0
M  V30 1325 N 128.595 0.856903 1.32268 0
M  V30 1326 C 129.843 0.460474 1.96784 0
M  V30 1327 C 130.164 -0.987701 1.68135 0
M  V30 1328 O 129.434 -1.69058 0.989765 0
M  V30 1329 H 128.014 0.167289 0.728027 0
M  V30 1330 H 130.676 1.09383 1.61312 0
M  V30 1331 H 129.772 0.60739 3.06133 0
M  V30 1332 N 130.073 -1.45103 0.615059 0
M  V30 1333 C 131.489 -1.57137 0.279322 0
M  V30 1334 C 131.689 -1.60523 -1.21797 0
M  V30 1335 O 130.745 -1.53956 -2.00134 0
M  V30 1336 C 132.058 -2.85062 0.957083 0
M  V30 1337 C 133.606 -2.98749 0.933706 0
M  V30 1338 C 134.081 -4.29455 1.59162 0
M  V30 1339 N 135.572 -4.36231 1.55746 0
M  V30 1340 C 136.307 -5.36051 2.0356 0
M  V30 1341 N 135.803 -6.42367 2.59494 0
M  V30 1342 N 137.596 -5.27456 1.94284 0
M  V30 1343 H 129.747 -1.41148 1.58717 0
M  V30 1344 H 132.01 -0.675331 0.665306 0
M  V30 1345 H 131.716 -2.88488 2.01166 0
M  V30 1346 H 131.59 -3.7407 0.48494 0
M  V30 1347 H 133.977 -2.94886 -0.112347 0
M  V30 1348 H 134.058 -2.11132 1.44419 0
M  V30 1349 H 133.702 -4.34077 2.63704 0
M  V30 1350 H 133.632 -5.15901 1.0561 0
M  V30 1351 H 136.123 -3.60011 1.14893 0
M  V30 1352 H 136.436 -7.14793 2.93752 0
M  V30 1353 H 134.781 -6.43097 2.63537 0
M  V30 1354 H 137.972 -4.43308 1.5032 0
M  V30 1355 H 138.145 -6.05099 2.3186 0
M  V30 1356 N 131.551 -0.354651 -1.53558 0
M  V30 1357 C 132.481 0.489091 -2.2832 0
M  V30 1358 C 133.462 1.09324 -1.30316 0
M  V30 1359 O 134.647 1.11255 -1.59173 0
M  V30 1360 C 131.777 1.63456 -3.0643 0
M  V30 1361 C 130.731 1.1582 -4.12031 0
M  V30 1362 C 130.057 2.39305 -4.7816 0
M  V30 1363 C 131.357 0.250731 -5.21698 0
M  V30 1364 H 133.051 -0.134614 -2.99097 0
M  V30 1365 H 130.597 -0.0661826 -1.43848 0
M  V30 1366 H 132.55 2.23136 -3.57475 0
M  V30 1367 H 131.274 2.28533 -2.33325 0
M  V30 1368 H 129.933 0.584146 -3.61916 0
M  V30 1369 H 129.581 3.02814 -4.01637 0
M  V30 1370 H 129.281 2.08109 -5.49513 0
M  V30 1371 H 130.805 2.99691 -5.31994 0
M  V30 1372 H 132.219 0.754695 -5.68311 0
M  V30 1373 H 130.616 0.0301468 -6.00092 0
M  V30 1374 H 131.686 -0.710125 -4.79672 0
M  V30 1375 N 133.029 1.57378 -0.0835403 0
M  V30 1376 C 133.939 2.16897 0.894021 0
M  V30 1377 C 134.955 1.13528 1.31861 0
M  V30 1378 O 136.131 1.45848 1.3889 0
M  V30 1379 C 133.196 2.72831 2.13925 0
M  V30 1380 C 132.257 3.91115 1.76997 0
M  V30 1381 C 131.49 4.44371 2.95584 0
M  V30 1382 O 131.713 3.96596 4.09961 0
M  V30 1383 O 130.647 5.35549 2.74719 0
M  V30 1384 H 134.473 3.00814 0.417679 0
M  V30 1385 H 132.058 1.48741 0.140181 0
M  V30 1386 H 133.94 3.0863 2.86924 0
M  V30 1387 H 132.615 1.91967 2.60635 0
M  V30 1388 H 131.522 3.60148 1.01214 0
M  V30 1389 H 132.855 4.73307 1.3506 0
M  V30 1390 N 134.507 -0.190092 1.56449 0
M  V30 1391 C 135.753 -0.911052 1.81184 0
M  V30 1392 C 136.086 -1.82699 0.658396 0
M  V30 1393 O 135.361 -1.91491 -0.340775 0
M  V30 1394 C 135.644 -1.72297 3.16205 0
M  V30 1395 C 135.497 -0.831419 4.42049 0
M  V30 1396 C 136.816 -2.69454 3.47969 0
M  V30 1397 H 133.935 -0.32977 0.659106 0
M  V30 1398 H 136.577 -0.178169 1.89163 0
M  V30 1399 H 134.727 -2.34778 3.09534 0
M  V30 1400 H 136.399 -0.220929 4.60771 0
M  V30 1401 H 134.642 -0.138406 4.33579 0
M  V30 1402 H 135.313 -1.43461 5.33032 0
M  V30 1403 H 137.789 -2.17104 3.54972 0
M  V30 1404 H 136.665 -3.23342 4.43555 0
M  V30 1405 H 136.926 -3.48744 2.71717 0
M  V30 1406 N 135.985 -1.50799 -0.457987 0
M  V30 1407 C 137.233 -1.62121 -1.2067 0
M  V30 1408 C 137.554 -0.329793 -1.92191 0
M  V30 1409 O 136.824 0.653409 -1.84682 0
M  V30 1410 H 135.404 -0.597441 -0.448411 0
M  V30 1411 H 138.066 -1.87637 -0.527096 0
M  V30 1412 H 137.162 -2.43882 -1.94751 0
M  V30 1413 N 137.463 0.71206 -1.40597 0
M  V30 1414 C 138.691 1.50111 -1.42388 0
M  V30 1415 C 139.106 1.88784 -0.0245395 0
M  V30 1416 O 138.463 1.55681 0.952351 0
M  V30 1417 C 138.514 2.7742 -2.31776 0
M  V30 1418 O 138.235 2.40382 -3.66262 0
M  V30 1419 C 139.736 3.7129 -2.42196 0
M  V30 1420 H 136.956 0.46314 -0.485533 0
M  V30 1421 H 139.5 0.878068 -1.8469 0
M  V30 1422 H 137.655 3.36001 -1.92827 0
M  V30 1423 H 138.069 3.22324 -4.13772 0
M  V30 1424 H 139.543 4.57448 -3.08943 0
M  V30 1425 H 140.02 4.14641 -1.44809 0
M  V30 1426 H 140.626 3.18619 -2.81712 0
M  V30 1427 N 138.941 1.26152 0.944643 0
M  V30 1428 C 139.851 1.09176 2.07648 0
M  V30 1429 C 140.867 0.0261935 1.7398 0
M  V30 1430 O 142.043 0.229208 2.00091 0
M  V30 1431 C 139.108 0.722915 3.39079 0
M  V30 1432 C 138.169 1.86752 3.86552 0
M  V30 1433 C 137.402 1.51617 5.11711 0
M  V30 1434 O 137.625 0.416331 5.68879 0
M  V30 1435 O 136.559 2.34975 5.54139 0
M  V30 1436 H 140.385 2.0412 2.24875 0
M  V30 1437 H 137.97 1.05182 1.061 0
M  V30 1438 H 139.852 0.529787 4.18056 0
M  V30 1439 H 138.527 -0.197159 3.23099 0
M  V30 1440 H 137.434 2.11558 3.08535 0
M  V30 1441 H 138.767 2.76719 4.07047 0
M  V30 1442 N 140.419 -1.14872 1.07899 0
M  V30 1443 C 141.647 -1.89661 0.82683 0
M  V30 1444 C 142.062 -1.78312 -0.620519 0
M  V30 1445 O 141.419 -1.13888 -1.42604 0
M  V30 1446 C 141.47 -3.39817 1.23316 0
M  V30 1447 O 141.191 -3.50845 2.62372 0
M  V30 1448 C 142.692 -4.31615 1.0111 0
M  V30 1449 H 139.912 -0.60092 0.298557 0
M  V30 1450 H 142.456 -1.4551 1.43691 0
M  V30 1451 H 140.611 -3.8161 0.667286 0
M  V30 1452 H 141.025 -4.44076 2.79101 0
M  V30 1453 H 142.499 -5.35367 1.34486 0
M  V30 1454 H 142.976 -4.39169 -0.0522168 0
M  V30 1455 H 143.582 -3.95572 1.56215 0
M  V30 1456 N 141.898 -0.863906 -1.31812 0
M  V30 1457 C 143.147 -0.46801 -1.96195 0
M  V30 1458 C 143.46 0.983474 -1.69077 0
M  V30 1459 O 144.666 1.48523 -2.27273 0
M  V30 1460 C 143.122 -0.785995 -3.51212 0
M  V30 1461 C 142.73 -2.25383 -3.87178 0
M  V30 1462 C 144.474 -0.458274 -4.22019 0
M  V30 1463 C 142.381 -2.51455 -5.3528 0
M  V30 1464 H 141.311 -0.171283 -0.734287 0
M  V30 1465 H 143.962 -1.05597 -1.50072 0
M  V30 1466 H 142.344 -0.127359 -3.95795 0
M  V30 1467 H 143.518 -2.95502 -3.53575 0
M  V30 1468 H 141.833 -2.54698 -3.2942 0
M  V30 1469 H 144.43 -0.630369 -5.30971 0
M  V30 1470 H 144.773 0.600834 -4.11941 0
M  V30 1471 H 145.306 -1.07319 -3.8305 0
M  V30 1472 H 142.045 -3.56025 -5.50387 0
M  V30 1473 H 141.565 -1.85923 -5.70257 0
M  V30 1474 H 143.244 -2.35874 -6.02472 0
M  V30 1475 N 143.376 1.44774 -0.622745 0
M  V30 1476 C 144.625 2.01334 -0.121397 0
M  V30 1477 C 144.938 1.49505 1.26125 0
M  V30 1478 O 146.144 1.98139 1.85616 0
M  V30 1479 C 144.6 3.59516 -0.166298 0
M  V30 1480 C 144.208 4.20342 -1.54974 0
M  V30 1481 C 145.952 4.23582 0.279021 0
M  V30 1482 C 143.859 5.70721 -1.55021 0
M  V30 1483 H 142.789 0.752851 -0.0416172 0
M  V30 1484 H 145.44 1.66083 -0.780309 0
M  V30 1485 H 143.822 3.92027 0.559557 0
M  V30 1486 H 144.996 3.99381 -2.29851 0
M  V30 1487 H 143.311 3.68529 -1.93843 0
M  V30 1488 H 145.908 5.33868 0.298083 0
M  V30 1489 H 146.251 3.95327 1.30471 0
M  V30 1490 H 146.784 3.95843 -0.394063 0
M  V30 1491 H 143.523 6.03698 -2.55399 0
M  V30 1492 H 143.043 5.93829 -0.844245 0
M  V30 1493 H 144.722 6.34203 -1.28047 0
M  V30 1494 N 144.854 0.36279 1.53368 0
M  V30 1495 C 146.131 -0.284021 1.93527 0
M  V30 1496 C 146.511 -1.66628 1.29608 0
M  V30 1497 O 145.859 -2.23942 0.45413 0
M  V30 1498 C 146.069 -0.337028 3.47369 0
M  V30 1499 C 147.417 -0.578708 4.20638 0
M  V30 1500 O 148.441 -0.418352 3.53735 0
M  V30 1501 O 147.3 -0.89074 5.39192 0
M  V30 1502 H 144.394 -0.169743 0.809393 0
M  V30 1503 H 146.94 0.41537 1.64538 0
M  V30 1504 H 145.712 0.632217 3.86159 0
M  V30 1505 H 145.335 -1.08243 3.82582 0
M  V30 1506 N 146.332 -1.57332 0.0918853 0
M  V30 1507 C 147.279 -2.13847 -0.868211 0
M  V30 1508 C 148.249 -1.05618 -1.28196 0
M  V30 1509 O 149.434 -1.33387 -1.36427 0
M  V30 1510 C 146.574 -2.72062 -2.12312 0
M  V30 1511 C 145.687 -3.94514 -1.7602 0
M  V30 1512 C 144.822 -4.40903 -2.96273 0
M  V30 1513 C 143.861 -5.55953 -2.56092 0
M  V30 1514 N 142.998 -5.97209 -3.69169 0
M  V30 1515 H 147.838 -2.95575 -0.379406 0
M  V30 1516 H 145.375 -1.46048 -0.175606 0
M  V30 1517 H 147.333 -3.03931 -2.858 0
M  V30 1518 H 145.963 -1.93068 -2.58698 0
M  V30 1519 H 145.015 -3.68979 -0.925135 0
M  V30 1520 H 146.327 -4.7802 -1.42472 0
M  V30 1521 H 145.481 -4.74539 -3.78018 0
M  V30 1522 H 144.22 -3.56291 -3.33029 0
M  V30 1523 H 143.225 -5.21948 -1.72773 0
M  V30 1524 H 144.45 -6.42311 -2.20484 0
M  V30 1525 H 142.396 -5.15543 -4.05649 0
M  V30 1526 H 142.313 -6.75504 -3.39456 0
M  V30 1527 H 143.581 -6.35475 -4.51434 0
M  V30 1528 N 147.81 0.181792 -1.56548 0
M  V30 1529 C 149.035 0.920019 -1.85877 0
M  V30 1530 C 149.46 1.75494 -0.677021 0
M  V30 1531 O 148.818 1.77399 0.374056 0
M  V30 1532 C 148.866 1.78112 -3.13542 0
M  V30 1533 O 147.97 2.88152 -2.95029 0
M  V30 1534 H 147.311 0.258334 -0.611686 0
M  V30 1535 H 149.841 0.183092 -2.03779 0
M  V30 1536 H 149.851 2.18314 -3.44678 0
M  V30 1537 H 148.526 1.16777 -3.99169 0
M  V30 1538 H 147.103 2.51609 -2.75222 0
M  V30 1539 N 149.288 1.51039 0.449983 0
M  V30 1540 C 150.235 1.71439 1.54523 0
M  V30 1541 C 151.205 0.555871 1.56522 0
M  V30 1542 O 152.39 0.788871 1.73728 0
M  V30 1543 C 149.53 1.83384 2.92343 0
M  V30 1544 C 148.643 3.10873 2.9997 0
M  V30 1545 C 147.778 3.13488 4.28834 0
M  V30 1546 C 146.817 4.35343 4.30282 0
M  V30 1547 N 145.954 4.35579 5.5065 0
M  V30 1548 H 150.794 2.64934 1.36433 0
M  V30 1549 H 148.331 1.31312 0.662982 0
M  V30 1550 H 150.289 1.88291 3.72293 0
M  V30 1551 H 148.919 0.933086 3.0902 0
M  V30 1552 H 147.971 3.15336 2.12761 0
M  V30 1553 H 149.283 4.00814 2.96901 0
M  V30 1554 H 148.437 3.17241 5.17149 0
M  V30 1555 H 147.176 2.21414 4.34543 0
M  V30 1556 H 146.181 4.3178 3.40362 0
M  V30 1557 H 147.406 5.28668 4.26248 0
M  V30 1558 H 145.352 3.46369 5.57104 0
M  V30 1559 H 145.269 5.19313 5.49409 0
M  V30 1560 H 146.537 4.43507 6.41032 0
M  V30 1561 N 150.766 -0.704594 1.40972 0
M  V30 1562 C 151.991 -1.49858 1.43378 0
M  V30 1563 C 152.416 -1.88061 0.038184 0
M  V30 1564 O 151.774 -1.5402 -0.956425 0
M  V30 1565 C 151.822 -2.74333 2.34038 0
M  V30 1566 O 150.926 -3.7147 1.7912 0
M  V30 1567 H 150.267 -0.45139 0.486974 0
M  V30 1568 H 152.797 -0.866832 1.8533 0
M  V30 1569 H 152.807 -3.22741 2.49604 0
M  V30 1570 H 151.482 -2.45863 3.35446 0
M  V30 1571 H 150.059 -3.30363 1.72958 0
M  V30 1572 N 152.244 -1.26651 -0.937939 0
M  V30 1573 C 153.49 -1.12553 -1.687 0
M  V30 1574 C 153.823 0.329782 -1.91379 0
M  V30 1575 O 153.098 1.24202 -1.4968 0
M  V30 1576 C 153.381 -1.89862 -3.05981 0
M  V30 1577 C 153.234 -3.43318 -2.90607 0
M  V30 1578 C 154.553 -1.69499 -4.0615 0
M  V30 1579 H 151.672 -0.410257 -0.612257 0
M  V30 1580 H 154.314 -1.55685 -1.08913 0
M  V30 1581 H 152.464 -1.53204 -3.57017 0
M  V30 1582 H 154.136 -3.89747 -2.46769 0
M  V30 1583 H 152.379 -3.70179 -2.26164 0
M  V30 1584 H 153.05 -3.92642 -3.8799 0
M  V30 1585 H 155.526 -2.01442 -3.64088 0
M  V30 1586 H 154.402 -2.26002 -5.00214 0
M  V30 1587 H 154.663 -0.640365 -4.37438 0
M  V30 1588 N 153.722 1.14298 -1.08507 0
M  V30 1589 C 154.669 2.19414 -0.715965 0
M  V30 1590 C 155.639 1.63399 0.298326 0
M  V30 1591 O 156.824 1.89929 0.182101 0
M  V30 1592 C 153.964 3.44845 -0.132534 0
M  V30 1593 C 153.077 4.15007 -1.19973 0
M  V30 1594 C 152.212 5.28024 -0.580048 0
M  V30 1595 C 151.251 5.9002 -1.62921 0
M  V30 1596 N 150.388 6.94485 -1.03125 0
M  V30 1597 H 155.228 2.50336 -1.61666 0
M  V30 1598 H 152.765 1.2293 -0.807882 0
M  V30 1599 H 154.723 4.16601 0.223454 0
M  V30 1600 H 153.353 3.14403 0.731467 0
M  V30 1601 H 152.405 3.41629 -1.67313 0
M  V30 1602 H 153.717 4.57178 -1.99473 0
M  V30 1603 H 152.871 6.06455 -0.172364 0
M  V30 1604 H 151.61 4.87076 0.246603 0
M  V30 1605 H 150.615 5.10291 -2.04654 0
M  V30 1606 H 151.84 6.33042 -2.45835 0
M  V30 1607 H 149.786 6.55612 -0.225711 0
M  V30 1608 H 149.703 7.35148 -1.76334 0
M  V30 1609 H 150.971 7.7679 -0.649458 0
M  V30 1610 N 155.201 0.870884 1.31352 0
M  V30 1611 C 156.429 0.49677 2.00848 0
M  V30 1612 C 156.844 -0.910998 1.65367 0
M  V30 1613 O 156.201 -1.59696 0.883374 0
M  V30 1614 C 156.252 0.645308 3.55694 0
M  V30 1615 O 155.973 1.99764 3.89905 0
M  V30 1616 C 157.474 0.272326 4.42463 0
M  V30 1617 H 154.694 0.193462 0.642506 0
M  V30 1618 H 157.238 1.1723 1.67563 0
M  V30 1619 H 155.393 0.0173176 3.87396 0
M  V30 1620 H 155.807 2.00607 4.84621 0
M  V30 1621 H 157.281 0.427208 5.50344 0
M  V30 1622 H 157.758 -0.788587 4.32062 0
M  V30 1623 H 158.364 0.876054 4.1618 0
M  V30 1624 N 156.679 -1.44442 0.630414 0
M  V30 1625 C 157.627 -2.32437 -0.0871428 0
M  V30 1626 C 158.621 -1.47304 -0.836525 0
M  V30 1627 O 159.827 -1.63653 -0.749506 0
M  V30 1628 H 156.202 -0.750533 -0.0469495 0
M  V30 1629 H 158.173 -2.90709 0.673096 0
M  V30 1630 C 156.922 -3.31288 -1.05563 0
M  V30 1631 H 156.245 -3.96805 -0.488426 0
M  V30 1632 H 157.685 -3.9554 -1.52721 0
M  V30 1633 C 156.144 -2.6016 -2.14052 0
M  V30 1634 O 156.674 -2.39997 -3.22124 0
M  V30 1635 N 154.88 -2.19911 -1.89967 0
M  V30 1636 H 154.427 -2.36509 -1.02085 0
M  V30 1637 H 154.385 -1.72646 -2.62756 0
M  V30 1638 N 158.157 -0.370918 -1.53173 0
M  V30 1639 C 159.087 0.464847 -2.28826 0
M  V30 1640 C 160.068 1.07936 -1.31468 0
M  V30 1641 O 161.253 1.0956 -1.60344 0
M  V30 1642 C 158.383 1.60196 -3.08147 0
M  V30 1643 C 157.337 1.11443 -4.13237 0
M  V30 1644 C 156.663 2.3422 -4.80672 0
M  V30 1645 C 157.963 0.195384 -5.21934 0
M  V30 1646 H 159.657 -0.166329 -2.98938 0
M  V30 1647 H 157.203 -0.0814359 -1.4377 0
M  V30 1648 H 159.156 2.19332 -3.59822 0
M  V30 1649 H 157.88 2.26045 -2.35735 0
M  V30 1650 H 156.539 0.545727 -3.62515 0
M  V30 1651 H 156.187 2.98537 -4.04827 0
M  V30 1652 H 155.887 2.02269 -5.51689 0
M  V30 1653 H 157.411 2.94032 -5.35143 0
M  V30 1654 H 158.825 0.694375 -5.69079 0
M  V30 1655 H 157.222 -0.0335027 -6.00091 0
M  V30 1656 H 158.292 -0.760961 -4.78892 0
M  V30 1657 N 159.635 1.57281 -0.100228 0
M  V30 1658 C 160.568 2.09976 0.893612 0
M  V30 1659 C 161.546 1.01155 1.27304 0
M  V30 1660 O 162.73 1.28687 1.37739 0
M  V30 1661 C 159.857 2.58098 2.19324 0
M  V30 1662 C 158.903 3.78626 1.96328 0
M  V30 1663 S 159.736 5.21959 1.19662 0
M  V30 1664 C 160.892 5.73435 2.50844 0
M  V30 1665 H 161.125 2.93946 0.44534 0
M  V30 1666 H 158.658 1.53985 0.113167 0
M  V30 1667 H 160.616 2.8648 2.94005 0
M  V30 1668 H 159.277 1.74344 2.61272 0
M  V30 1669 H 158.47 4.10382 2.92579 0
M  V30 1670 H 158.072 3.50763 1.29775 0
M  V30 1671 H 160.364 5.82015 3.46792 0
M  V30 1672 H 161.307 6.7185 2.23659 0
M  V30 1673 H 161.715 5.01395 2.59352 0
M  V30 1674 N 161.113 -0.173488 1.56642 0
M  V30 1675 C 162.045 -1.23935 1.92802 0
M  V30 1676 C 163.058 -1.40589 0.820889 0
M  V30 1677 O 164.247 -1.40631 1.09933 0
M  V30 1678 C 161.347 -2.60837 2.16373 0
M  V30 1679 C 160.52 -2.6551 3.47596 0
M  V30 1680 C 159.579 -3.8376 3.60021 0
M  V30 1681 O 158.605 -3.69859 4.32658 0
M  V30 1682 N 159.807 -5.00127 2.94709 0
M  V30 1683 H 162.572 -0.932236 2.84832 0
M  V30 1684 H 160.133 -0.363268 1.57772 0
M  V30 1685 H 162.125 -3.38407 2.21952 0
M  V30 1686 H 160.695 -2.83948 1.30738 0
M  V30 1687 H 159.915 -1.74052 3.53694 0
M  V30 1688 H 161.203 -2.65641 4.33949 0
M  V30 1689 H 160.601 -5.14322 2.35563 0
M  V30 1690 H 159.158 -5.75567 3.05886 0
M  V30 1691 N 162.591 -1.51276 -0.441967 0
M  V30 1692 C 163.521 -1.752 -1.54361 0
M  V30 1693 C 164.502 -0.601682 -1.59103 0
M  V30 1694 O 165.687 -0.843913 -1.74905 0
M  V30 1695 C 162.817 -1.87282 -2.92477 0
M  V30 1696 C 161.771 -3.02687 -3.02596 0
M  V30 1697 C 161.097 -2.99947 -4.42647 0
M  V30 1698 C 162.397 -4.4273 -2.77106 0
M  V30 1699 H 164.091 -2.67442 -1.34592 0
M  V30 1700 H 161.637 -1.28694 -0.646048 0
M  V30 1701 H 163.59 -2.02602 -3.695 0
M  V30 1702 H 162.314 -0.916844 -3.13467 0
M  V30 1703 H 160.973 -2.87065 -2.28012 0
M  V30 1704 H 160.621 -2.02136 -4.60597 0
M  V30 1705 H 160.321 -3.77439 -4.50348 0
M  V30 1706 H 161.845 -3.17354 -5.2165 0
M  V30 1707 H 163.259 -4.58727 -3.43864 0
M  V30 1708 H 161.656 -5.21893 -2.96222 0
M  V30 1709 H 162.726 -4.53087 -1.72744 0
M  V30 1710 N 164.069 0.697108 -1.41344 0
M  V30 1711 C 165.316 1.45714 -1.40619 0
M  V30 1712 C 165.644 1.94494 -0.0147907 0
M  V30 1713 O 164.899 1.69794 0.973066 0
M  V30 1714 C 165.198 2.68553 -2.35826 0
M  V30 1715 C 164.864 2.38438 -3.82698 0
M  V30 1716 C 163.526 2.29936 -4.22709 0
M  V30 1717 C 165.878 2.13567 -4.75435 0
M  V30 1718 C 163.206 1.94656 -5.53467 0
M  V30 1719 C 165.558 1.79797 -6.06511 0
M  V30 1720 C 164.222 1.69789 -6.45545 0
M  V30 1721 H 163.492 0.533206 -0.51456 0
M  V30 1722 H 166.139 0.796901 -1.74131 0
M  V30 1723 H 164.444 3.39503 -1.95563 0
M  V30 1724 H 166.141 3.2669 -2.32539 0
M  V30 1725 H 162.731 2.4595 -3.51008 0
M  V30 1726 H 166.915 2.19082 -4.45328 0
M  V30 1727 H 162.171 1.8546 -5.82593 0
M  V30 1728 H 166.345 1.59572 -6.77872 0
M  V30 1729 H 163.972 1.4222 -7.46778 0
M  V30 1730 N 165.547 1.27147 0.931209 0
M  V30 1731 C 166.457 1.11372 2.06478 0
M  V30 1732 C 167.473 0.044645 1.73943 0
M  V30 1733 O 168.649 0.250417 1.99837 0
M  V30 1734 C 165.714 0.758838 3.38294 0
M  V30 1735 C 164.775 1.90841 3.84549 0
M  V30 1736 C 164.008 1.57036 5.10074 0
M  V30 1737 O 164.231 0.476645 5.68405 0
M  V30 1738 O 163.165 2.40839 5.51616 0
M  V30 1739 H 166.991 2.06493 2.22698 0
M  V30 1740 H 164.576 1.06301 1.04978 0
M  V30 1741 H 166.458 0.574098 4.17471 0
M  V30 1742 H 165.133 -0.162879 3.2329 0
M  V30 1743 H 164.04 2.14819 3.06274 0
M  V30 1744 H 165.373 2.81021 4.04089 0
M  V30 1745 N 167.025 -1.13721 1.09112 0
M  V30 1746 C 167.935 -2.22638 0.73957 0
M  V30 1747 C 168.951 -1.72091 -0.257068 0
M  V30 1748 O 170.127 -2.01155 -0.0992154 0
M  V30 1749 C 167.192 -3.46322 0.16191 0
M  V30 1750 C 166.253 -4.11775 1.21408 0
M  V30 1751 C 165.486 -5.29555 0.663891 0
M  V30 1752 O 165.709 -5.68077 -0.514274 0
M  V30 1753 O 164.643 -5.84973 1.41738 0
M  V30 1754 H 168.469 -2.55074 1.64836 0
M  V30 1755 H 166.054 -1.21791 0.865289 0
M  V30 1756 H 167.936 -4.21107 -0.157073 0
M  V30 1757 H 166.611 -3.15593 -0.719932 0
M  V30 1758 H 165.518 -3.3883 1.58571 0
M  V30 1759 H 166.851 -4.46627 2.06845 0
M  V30 1760 N 168.503 -0.877838 -1.30888 0
M  V30 1761 C 169.728 -0.506629 -2.01117 0
M  V30 1762 C 170.153 0.895564 -1.65412 0
M  V30 1763 O 169.511 1.5923 -0.866922 0
M  V30 1764 C 169.559 -0.680223 -3.54126 0
M  V30 1765 O 168.663 0.277033 -4.11468 0
M  V30 1766 H 168.004 -0.200518 -0.633 0
M  V30 1767 H 170.534 -1.18342 -1.66902 0
M  V30 1768 H 170.544 -0.5765 -4.03907 0
M  V30 1769 H 169.219 -1.70261 -3.79452 0
M  V30 1770 H 167.796 0.127606 -3.72682 0
M  V30 1771 N 169.982 1.44106 -0.638065 0
M  V30 1772 C 171.23 2.01579 -0.145043 0
M  V30 1773 C 171.551 1.50496 1.24 0
M  V30 1774 O 170.821 0.711374 1.82527 0
M  V30 1775 H 169.401 0.745282 -0.05063 0
M  V30 1776 H 172.063 1.76516 -0.826327 0
M  V30 1777 H 171.159 3.11877 -0.118039 0
M  V30 1778 N 171.46 0.379036 1.52974 0
M  V30 1779 C 172.408 -0.476033 2.27677 0
M  V30 1780 C 173.402 -1.0719 1.31174 0
M  V30 1781 O 174.608 -1.01355 1.48752 0
M  V30 1782 H 170.983 -0.172255 0.732006 0
M  V30 1783 H 172.954 0.175615 2.97883 0
M  V30 1784 C 171.703 -1.5967 3.0887 0
M  V30 1785 H 171.026 -1.1475 3.82978 0
M  V30 1786 H 172.466 -2.16943 3.64296 0
M  V30 1787 C 170.925 -2.54682 2.20542 0
M  V30 1788 O 171.455 -3.57836 1.82527 0
M  V30 1789 N 169.661 -2.24183 1.84907 0
M  V30 1790 H 169.208 -1.40333 2.1602 0
M  V30 1791 H 169.166 -2.88006 1.26096 0
M  V30 1792 N 172.938 -1.57226 0.108567 0
M  V30 1793 C 174.166 -1.99179 -0.559954 0
M  V30 1794 C 174.581 -0.988022 -1.60884 0
M  V30 1795 O 173.938 0.0205512 -1.82488 0
M  V30 1796 C 173.989 -3.41159 -1.19552 0
M  V30 1797 O 173.71 -4.37694 -0.188577 0
M  V30 1798 C 175.211 -3.98188 -1.94837 0
M  V30 1799 H 172.431 -0.654228 -0.149088 0
M  V30 1800 H 174.975 -2.03598 0.19183 0
M  V30 1801 H 173.13 -3.37711 -1.89815 0
M  V30 1802 H 173.544 -5.20469 -0.649014 0
M  V30 1803 H 175.018 -4.99644 -2.34648 0
M  V30 1804 H 175.495 -3.3675 -2.81951 0
M  V30 1805 H 176.101 -4.0515 -1.2936 0
M  V30 1806 N 174.416 0.165178 -1.56732 0
M  V30 1807 C 175.693 0.908443 -1.73224 0
M  V30 1808 C 176.073 2.0013 -0.67165 0
M  V30 1809 O 175.421 2.26353 0.31253 0
M  V30 1810 C 175.631 1.46756 -3.16644 0
M  V30 1811 C 176.979 1.93809 -3.77787 0
M  V30 1812 O 178.003 1.56537 -3.1996 0
M  V30 1813 O 176.862 2.62486 -4.79336 0
M  V30 1814 H 173.956 0.428025 -0.707618 0
M  V30 1815 H 176.502 0.152526 -1.69013 0
M  V30 1816 H 175.274 0.68129 -3.85323 0
M  V30 1817 H 174.897 2.28749 -3.25207 0
M  V30 1818 N 175.894 1.51508 0.433938 0
M  V30 1819 C 177.143 1.63578 1.18005 0
M  V30 1820 C 177.456 0.359514 1.92268 0
M  V30 1821 O 178.662 0.359632 2.69108 0
M  V30 1822 C 177.118 2.88901 2.14626 0
M  V30 1823 C 176.726 4.23544 1.45995 0
M  V30 1824 C 178.47 3.10328 2.89649 0
M  V30 1825 C 176.377 5.40014 2.4112 0
M  V30 1826 H 175.307 0.609277 0.444182 0
M  V30 1827 H 177.958 1.77978 0.446773 0
M  V30 1828 H 176.34 2.68142 2.91403 0
M  V30 1829 H 177.514 4.54696 0.747532 0
M  V30 1830 H 175.829 4.08021 0.831115 0
M  V30 1831 H 178.426 3.94518 3.60915 0
M  V30 1832 H 178.769 2.23544 3.51189 0
M  V30 1833 H 179.302 3.31443 2.19978 0
M  V30 1834 H 176.041 6.29068 1.84264 0
M  V30 1835 H 175.561 5.13233 3.10406 0
M  V30 1836 H 177.24 5.72099 3.02177 0
M  V30 1837 N 177.372 -0.689602 1.41712 0
M  V30 1838 C 178.282 -1.83314 1.46401 0
M  V30 1839 C 179.298 -1.7036 0.35405 0
M  V30 1840 O 180.474 -1.92171 0.602692 0
M  V30 1841 C 177.539 -3.19344 1.34982 0
M  V30 1842 C 176.6 -3.44363 2.56344 0
M  V30 1843 C 175.833 -4.73904 2.45461 0
M  V30 1844 O 176.056 -5.508 1.48241 0
M  V30 1845 O 174.99 -4.99839 3.35328 0
M  V30 1846 H 178.816 -1.82314 2.42889 0
M  V30 1847 H 176.401 -0.843438 1.23315 0
M  V30 1848 H 178.283 -4.00547 1.3092 0
M  V30 1849 H 176.958 -3.21014 0.41612 0
M  V30 1850 H 175.865 -2.63067 2.65982 0
M  V30 1851 H 177.198 -3.47512 3.48563 0
M  V30 1852 N 178.85 -1.27639 -0.924453 0
M  V30 1853 C 180.098 -1.13941 -1.66918 0
M  V30 1854 C 180.419 0.314589 -1.92446 0
M  V30 1855 O 179.689 1.21964 -1.53303 0
M  V30 1856 H 178.269 -0.418678 -0.618642 0
M  V30 1857 H 180.931 -1.60213 -1.10985 0
M  V30 1858 H 180.027 -1.67094 -2.63602 0
M  V30 1859 N 180.328 1.1314 -1.09713 0
M  V30 1860 C 181.577 1.83838 -0.829851 0
M  V30 1861 C 181.89 1.84599 0.646728 0
M  V30 1862 O 183.096 2.51218 1.02965 0
M  V30 1863 C 181.552 3.30069 -1.43466 0
M  V30 1864 C 181.16 3.37688 -2.94399 0
M  V30 1865 C 182.904 4.05788 -1.24645 0
M  V30 1866 C 180.811 4.78209 -3.47952 0
M  V30 1867 H 179.741 0.68877 -0.306777 0
M  V30 1868 H 182.392 1.27448 -1.3202 0
M  V30 1869 H 180.774 3.8628 -0.871996 0
M  V30 1870 H 181.948 2.91456 -3.56918 0
M  V30 1871 H 180.263 2.75436 -3.12289 0
M  V30 1872 H 182.86 5.09535 -1.62107 0
M  V30 1873 H 183.203 4.15878 -0.187357 0
M  V30 1874 H 183.736 3.55915 -1.77678 0
M  V30 1875 H 180.475 4.73311 -4.53495 0
M  V30 1876 H 179.995 5.24924 -2.90198 0
M  V30 1877 H 181.674 5.47133 -3.45332 0
M  V30 1878 N 181.806 0.884767 1.30421 0
M  V30 1879 C 183.083 0.423185 1.90967 0
M  V30 1880 C 183.463 -1.09605 1.80416 0
M  V30 1881 O 182.811 -1.93126 1.22125 0
M  V30 1882 C 183.021 0.921056 3.36627 0
M  V30 1883 C 184.369 0.955903 4.137 0
M  V30 1884 O 185.393 0.867706 3.4547 0
M  V30 1885 O 184.252 1.08614 5.35598 0
M  V30 1886 H 181.346 0.129369 0.816819 0
M  V30 1887 H 183.892 0.973653 1.3899 0
M  V30 1888 H 182.664 1.96489 3.3839 0
M  V30 1889 H 182.287 0.349741 3.96059 0
M  V30 1890 N 183.284 -1.43765 0.645699 0
M  V30 1891 C 184.512 -2.06253 0.163556 0
M  V30 1892 C 184.927 -1.48352 -1.16778 0
M  V30 1893 O 184.284 -0.611932 -1.71935 0
M  V30 1894 C 184.335 -3.61453 0.0583186 0
M  V30 1895 O 184.056 -4.172 1.33702 0
M  V30 1896 C 185.557 -4.41002 -0.450795 0
M  V30 1897 H 182.777 -0.665413 0.0864077 0
M  V30 1898 H 185.321 -1.84396 0.884222 0
M  V30 1899 H 183.476 -3.82522 -0.612865 0
M  V30 1900 H 183.89 -5.10791 1.19131 0
M  V30 1901 H 185.364 -5.49966 -0.473403 0
M  V30 1902 H 185.841 -4.13488 -1.48068 0
M  V30 1903 H 186.447 -4.24886 0.187637 0
M  V30 1904 N 184.763 -0.387143 -1.52771 0
M  V30 1905 C 185.991 0.195869 -2.05971 0
M  V30 1906 C 186.406 1.40691 -1.25903 0
M  V30 1907 O 185.763 1.79931 -0.305134 0
M  V30 1908 C 185.814 0.56812 -3.57008 0
M  V30 1909 O 185.535 -0.594803 -4.34043 0
M  V30 1910 C 187.036 1.20723 -4.26545 0
M  V30 1911 H 184.256 0.0300578 -0.670326 0
M  V30 1912 H 186.8 -0.551749 -1.96916 0
M  V30 1913 H 184.955 1.26564 -3.66143 0
M  V30 1914 H 185.369 -0.289322 -5.23701 0
M  V30 1915 H 186.843 1.41807 -5.33474 0
M  V30 1916 H 187.32 2.17395 -3.81623 0
M  V30 1917 H 187.926 0.550535 -4.21722 0
M  V30 1918 N 186.241 1.57166 -0.116904 0
M  V30 1919 C 187.189 2.16457 0.851418 0
M  V30 1920 C 188.183 1.11323 1.27686 0
M  V30 1921 O 189.389 1.2963 1.24884 0
M  V30 1922 H 185.764 0.69271 0.292672 0
M  V30 1923 H 187.735 2.96605 0.32685 0
M  V30 1924 C 186.484 2.77689 2.09246 0
M  V30 1925 H 185.807 3.58285 1.77402 0
M  V30 1926 H 187.247 3.22716 2.7501 0
M  V30 1927 C 185.706 1.74667 2.88085 0
M  V30 1928 O 186.236 1.19877 3.83396 0
M  V30 1929 N 184.442 1.44656 2.52038 0
M  V30 1930 H 183.989 1.89402 1.74599 0
M  V30 1931 H 183.947 0.759675 3.05084 0
M  V30 1932 N 187.719 -0.156864 1.56817 0
M  V30 1933 C 188.682 -1.17781 1.96622 0
M  V30 1934 C 189.682 -1.36401 0.851555 0
M  V30 1935 O 190.872 -1.33561 1.11836 0
M  V30 1936 C 188.004 -2.54008 2.27361 0
M  V30 1937 H 189.197 -0.836564 2.87996 0
M  V30 1938 H 186.75 -0.39985 1.51099 0
M  V30 1939 H 187.485 -2.9312 1.38748 0
M  V30 1940 H 187.27 -2.41856 3.08623 0
M  V30 1941 H 188.76 -3.27558 2.59029 0
M  V30 1942 N 189.197 -1.51736 -0.425897 0
M  V30 1943 C 190.437 -1.66636 -1.18371 0
M  V30 1944 C 190.801 -0.379854 -1.88205 0
M  V30 1945 O 192.002 -0.404758 -2.65735 0
M  V30 1946 C 190.273 -2.84382 -2.16476 0
M  V30 1947 S 191.832 -3.19673 -3.0059 0
M  V30 1948 H 188.65 -0.586957 -0.40125 0
M  V30 1949 H 191.252 -1.89679 -0.473518 0
M  V30 1950 H 189.956 -3.76281 -1.63831 0
M  V30 1951 H 189.487 -2.63562 -2.92059 0
M  V30 1952 H 191.502 -2.66994 -4.18245 0
M  V30 1953 N 190.675 0.682077 -1.42076 0
M  V30 1954 C 191.905 1.46844 -1.45329 0
M  V30 1955 C 192.313 1.89102 -0.0609328 0
M  V30 1956 O 191.656 1.58238 0.933082 0
M  V30 1957 C 191.718 2.75375 -2.31104 0
M  V30 1958 C 191.382 2.55238 -3.79081 0
M  V30 1959 C 192.379 2.20309 -4.70914 0
M  V30 1960 C 190.064 2.70459 -4.2327 0
M  V30 1961 C 192.058 2.00859 -6.04925 0
M  V30 1962 C 189.745 2.50624 -5.57343 0
M  V30 1963 C 190.743 2.15876 -6.47986 0
M  V30 1964 O 190.431 1.96227 -7.79583 0
M  V30 1965 H 190.163 0.4586 -0.496651 0
M  V30 1966 H 192.717 0.846131 -1.87162 0
M  V30 1967 H 190.947 3.40061 -1.84107 0
M  V30 1968 H 192.636 3.37231 -2.25898 0
M  V30 1969 H 193.402 2.08153 -4.38061 0
M  V30 1970 H 189.281 2.96485 -3.53012 0
M  V30 1971 H 192.825 1.7366 -6.75639 0
M  V30 1972 H 188.722 2.62375 -5.89771 0
M  V30 1973 H 189.49 2.10883 -7.90867 0
M  V30 1974 N 192.153 1.28127 0.917671 0
M  V30 1975 C 193.401 1.14825 1.66312 0
M  V30 1976 C 193.722 -0.304379 1.9261 0
M  V30 1977 O 192.992 -1.21149 1.53947 0
M  V30 1978 H 191.572 0.421953 0.616413 0
M  V30 1979 H 194.234 1.608 1.10134 0
M  V30 1980 H 193.33 1.68489 2.62712 0
M  V30 1981 N 193.631 -1.12557 1.10312 0
M  V30 1982 C 194.879 -1.83675 0.843091 0
M  V30 1983 C 195.2 -1.84435 -0.633131 0
M  V30 1984 O 194.47 -1.30657 -1.45964 0
M  V30 1985 H 193.05 -0.680138 0.308904 0
M  V30 1986 H 195.712 -1.36301 1.39313 0
M  V30 1987 H 194.808 -2.87908 1.2048 0
M  V30 1988 N 195.109 -0.891671 -1.2995 0
M  V30 1989 C 196.337 -0.52866 -2.00032 0
M  V30 1990 C 196.752 0.884574 -1.66795 0
M  V30 1991 O 196.109 1.5827 -0.908669 0
M  V30 1992 C 196.16 -0.701814 -3.54622 0
M  V30 1993 O 195.881 -2.05942 -3.86678 0
M  V30 1994 C 197.382 -0.342683 -4.41973 0
M  V30 1995 H 194.602 -0.203659 -0.639347 0
M  V30 1996 H 197.146 -1.19881 -1.65677 0
M  V30 1997 H 195.301 -0.0789468 -3.8732 0
M  V30 1998 H 195.715 -2.08291 -4.81368 0
M  V30 1999 H 197.189 -0.514709 -5.49595 0
M  V30 2000 H 197.666 0.71975 -4.33262 0
M  V30 2001 H 198.272 -0.942154 -4.14733 0
M  V30 2002 N 196.587 1.43421 -0.653314 0
M  V30 2003 C 197.55 2.29182 0.0287951 0
M  V30 2004 C 198.55 1.42213 0.750465 0
M  V30 2005 O 199.74 1.63843 0.591701 0
M  V30 2006 C 196.872 3.24278 1.05151 0
M  V30 2007 H 198.065 2.90985 -0.725786 0
M  V30 2008 H 195.618 1.50702 -0.414545 0
M  V30 2009 H 196.353 2.6737 1.83532 0
M  V30 2010 H 196.138 3.88396 0.537687 0
M  V30 2011 H 197.628 3.88647 1.52786 0
M  V30 2012 N 198.065 0.39524 1.52563 0
M  V30 2013 C 199.028 -0.425001 2.25225 0
M  V30 2014 C 200.028 -0.985266 1.27079 0
M  V30 2015 O 201.218 -0.866332 1.5113 0
M  V30 2016 C 198.35 -1.59686 3.01186 0
M  V30 2017 H 199.543 0.211233 2.99155 0
M  V30 2018 H 197.096 0.147472 1.55603 0
M  V30 2019 H 197.831 -2.27035 2.31572 0
M  V30 2020 H 197.616 -1.20176 3.73229 0
M  V30 2021 H 199.106 -2.17743 3.5634 0
M  V30 2022 N 199.544 -1.57102 0.125237 0
M  V30 2023 C 200.79 -1.95697 -0.532035 0
M  V30 2024 C 201.123 -1.009 -1.6593 0
M  V30 2025 O 200.398 -0.047347 -1.94442 0
M  V30 2026 C 200.681 -3.44181 -1.05884 0
M  V30 2027 C 200.534 -4.49752 0.0654392 0
M  V30 2028 C 201.853 -3.94655 -1.9477 0
M  V30 2029 H 198.972 -0.711571 -0.191925 0
M  V30 2030 H 201.614 -1.88923 0.20206 0
M  V30 2031 H 199.764 -3.50085 -1.68442 0
M  V30 2032 H 201.436 -4.55943 0.700982 0
M  V30 2033 H 199.679 -4.27653 0.727709 0
M  V30 2034 H 200.35 -5.50924 -0.344505 0
M  V30 2035 H 202.826 -3.91094 -1.42074 0
M  V30 2036 H 201.702 -4.99057 -2.28546 0
M  V30 2037 H 201.963 -3.35718 -2.87656 0
M  V30 2038 N 201.022 0.148545 -1.56898 0
M  V30 2039 C 202.269 0.861418 -1.83264 0
M  V30 2040 C 202.597 1.81239 -0.705883 0
M  V30 2041 O 201.852 1.93305 0.305212 0
M  V30 2042 C 202.151 1.67064 -3.1595 0
M  V30 2043 C 201.817 0.866591 -4.42494 0
M  V30 2044 C 200.479 0.644762 -4.76861 0
M  V30 2045 C 202.831 0.30418 -5.20312 0
M  V30 2046 C 200.159 -0.15021 -5.86508 0
M  V30 2047 C 202.511 -0.477824 -6.30793 0
M  V30 2048 C 201.175 -0.710244 -6.63711 0
M  V30 2049 H 200.445 0.315215 -0.670612 0
M  V30 2050 H 203.092 0.125142 -1.91091 0
M  V30 2051 H 201.397 2.47698 -3.03567 0
M  V30 2052 H 203.094 2.22566 -3.33565 0
M  V30 2053 H 199.684 1.04955 -4.15551 0
M  V30 2054 H 203.868 0.462844 -4.94137 0
M  V30 2055 H 199.124 -0.339796 -6.10455 0
M  V30 2056 H 203.298 -0.92076 -6.90286 0
M  V30 2057 H 200.925 -1.3281 -7.48509 0
M  V30 2058 N 202.5 1.5196 0.417844 0
M  V30 2059 C 203.448 1.75278 1.52907 0
M  V30 2060 C 204.442 0.619611 1.57662 0
M  V30 2061 O 205.648 0.801457 1.61173 0
M  V30 2062 H 202.023 0.554141 0.508362 0
M  V30 2063 H 203.994 2.68389 1.30422 0
M  V30 2064 C 202.743 1.91262 2.90369 0
M  V30 2065 H 202.066 2.77872 2.8745 0
M  V30 2066 H 203.506 2.11581 3.67436 0
M  V30 2067 C 201.965 0.677431 3.30019 0
M  V30 2068 O 202.495 -0.158799 4.01386 0
M  V30 2069 N 200.701 0.515851 2.85985 0
M  V30 2070 H 200.248 1.19744 2.28077 0
M  V30 2071 H 200.206 -0.309315 3.12875 0
M  V30 2072 N 203.978 -0.674533 1.42435 0
M  V30 2073 C 204.941 -1.76986 1.45632 0
M  V30 2074 C 205.941 -1.5708 0.343871 0
M  V30 2075 O 207.131 -1.63367 0.604709 0
M  V30 2076 C 204.263 -3.15623 1.28822 0
M  V30 2077 H 205.456 -1.75539 2.43158 0
M  V30 2078 H 203.009 -0.884189 1.28887 0
M  V30 2079 H 203.744 -3.22696 0.322193 0
M  V30 2080 H 203.529 -3.31475 2.09444 0
M  V30 2081 H 205.019 -3.95537 1.33942 0
M  V30 2082 N 205.456 -1.28612 -0.910864 0
M  V30 2083 C 206.702 -1.16106 -1.66274 0
M  V30 2084 C 207.035 0.289113 -1.92036 0
M  V30 2085 O 206.31 1.21 -1.52281 0
M  V30 2086 C 206.593 -1.96309 -3.01885 0
M  V30 2087 C 206.446 -3.49405 -2.8326 0
M  V30 2088 C 207.765 -1.78076 -4.02463 0
M  V30 2089 H 204.884 -0.423152 -0.603417 0
M  V30 2090 H 207.526 -1.57961 -1.05586 0
M  V30 2091 H 205.676 -1.60742 -3.53687 0
M  V30 2092 H 207.348 -3.94894 -2.38446 0
M  V30 2093 H 205.591 -3.74893 -2.18261 0
M  V30 2094 H 206.262 -4.00784 -3.79574 0
M  V30 2095 H 208.738 -2.0912 -3.59733 0
M  V30 2096 H 207.614 -2.36561 -4.95308 0
M  V30 2097 H 207.875 -0.733008 -4.35981 0
M  V30 2098 N 206.934 1.1197 -1.10907 0
M  V30 2099 C 207.882 2.19927 -0.757303 0
M  V30 2100 C 208.876 1.67564 0.248747 0
M  V30 2101 O 210.082 1.79672 0.108605 0
M  V30 2102 H 206.457 0.716925 -0.226987 0
M  V30 2103 H 208.428 2.46847 -1.67658 0
M  V30 2104 C 207.177 3.47061 -0.210671 0
M  V30 2105 H 206.5 3.87703 -0.976049 0
M  V30 2106 H 207.94 4.24 -0.0026584 0
M  V30 2107 C 206.399 3.19864 1.05777 0
M  V30 2108 O 206.929 3.40049 2.13845 0
M  V30 2109 N 205.135 2.73636 0.978349 0
M  V30 2110 H 204.682 2.5741 0.0988246 0
M  V30 2111 H 204.64 2.55815 1.82773 0
M  V30 2112 N 208.412 0.89855 1.29475 0
M  V30 2113 C 209.658 0.534065 1.96263 0
M  V30 2114 C 210.013 -0.909415 1.69551 0
M  V30 2115 O 209.306 -1.63596 0.997349 0
M  V30 2116 C 209.5 0.761398 3.49195 0
M  V30 2117 C 209.329 2.22542 3.90775 0
M  V30 2118 C 208.099 2.87264 4.15701 0
M  V30 2119 C 210.297 3.20051 4.02581 0
M  V30 2120 N 208.279 4.24121 4.4384 0
M  V30 2121 C 209.65 4.42023 4.34759 0
M  V30 2122 C 211.705 3.15657 3.85052 0
M  V30 2123 C 210.408 5.60161 4.51235 0
M  V30 2124 C 212.434 4.33078 4.02737 0
M  V30 2125 C 211.796 5.5382 4.35273 0
M  V30 2126 H 207.895 0.245013 0.742625 0
M  V30 2127 H 210.479 1.15912 1.56437 0
M  V30 2128 H 208.65 0.165732 3.88046 0
M  V30 2129 H 210.382 0.362462 4.03074 0
M  V30 2130 H 207.137 2.38064 4.09417 0
M  V30 2131 H 207.561 4.94839 4.6202 0
M  V30 2132 H 212.203 2.23396 3.58962 0
M  V30 2133 H 209.921 6.52913 4.76162 0
M  V30 2134 H 213.507 4.31163 3.90628 0
M  V30 2135 H 212.387 6.43166 4.48672 0
M  V30 2136 N 209.89 -1.43072 0.660911 0
M  V30 2137 C 211.139 -2.00942 0.174735 0
M  V30 2138 C 211.452 -1.52797 -1.22117 0
M  V30 2139 O 212.658 -2.02991 -1.80297 0
M  V30 2140 C 211.114 -3.58948 0.261559 0
M  V30 2141 C 210.722 -4.16085 1.66064 0
M  V30 2142 C 212.466 -4.24173 -0.166617 0
M  V30 2143 C 210.373 -5.6641 1.70098 0
M  V30 2144 H 209.303 -0.751483 0.0615631 0
M  V30 2145 H 211.954 -1.63955 0.824069 0
M  V30 2146 H 210.336 -3.93372 -0.455421 0
M  V30 2147 H 211.51 -3.93147 2.40359 0
M  V30 2148 H 209.825 -3.6326 2.03546 0
M  V30 2149 H 212.422 -5.34471 -0.156433 0
M  V30 2150 H 212.765 -3.98647 -1.19943 0
M  V30 2151 H 213.298 -3.94659 0.498875 0
M  V30 2152 H 210.037 -5.96715 2.71315 0
M  V30 2153 H 209.557 -5.91382 1.00139 0
M  V30 2154 H 211.236 -6.30585 1.44816 0
M  V30 2155 N 211.368 -0.403325 -1.52352 0
M  V30 2156 C 212.278 0.432009 -2.30588 0
M  V30 2157 C 213.294 1.05884 -1.38075 0
M  V30 2158 O 214.47 1.06161 -1.71148 0
M  V30 2159 C 211.535 1.53669 -3.10784 0
M  V30 2160 C 210.596 0.933525 -4.19027 0
M  V30 2161 C 209.829 1.98557 -4.9539 0
M  V30 2162 O 210.052 3.20283 -4.71991 0
M  V30 2163 O 208.986 1.59504 -5.80381 0
M  V30 2164 H 212.812 -0.205739 -3.03002 0
M  V30 2165 H 210.397 -0.166675 -1.48467 0
M  V30 2166 H 212.279 2.17814 -3.60742 0
M  V30 2167 H 210.954 2.15915 -2.41169 0
M  V30 2168 H 209.861 0.254954 -3.7323 0
M  V30 2169 H 211.194 0.35508 -4.90918 0
M  V30 2170 N 212.846 1.57033 -0.133567 0
M  V30 2171 C 214.071 2.00475 0.531477 0
M  V30 2172 C 214.496 1.01291 1.58499 0
M  V30 2173 O 213.854 -0.0133279 1.81295 0
M  V30 2174 C 213.902 3.42729 1.12113 0
M  V30 2175 O 213.006 3.46498 2.23636 0
M  V30 2176 H 212.347 0.650876 0.131362 0
M  V30 2177 H 214.877 2.03344 -0.22634 0
M  V30 2178 H 214.887 3.81246 1.4531 0
M  V30 2179 H 213.562 4.14428 0.349557 0
M  V30 2180 H 212.139 3.19811 1.91769 0
M  V30 2181 N 214.325 -0.140222 1.56975 0
M  V30 2182 C 215.55 -0.870414 1.88251 0
M  V30 2183 C 215.975 -1.73637 0.723312 0
M  V30 2184 O 215.333 -1.78329 -0.32689 0
M  V30 2185 C 215.381 -1.69737 3.18154 0
M  V30 2186 O 214.485 -2.80229 3.02565 0
M  V30 2187 H 213.826 -0.242025 0.61832 0
M  V30 2188 H 216.356 -0.128999 2.04193 0
M  V30 2189 H 216.366 -2.09099 3.50345 0
M  V30 2190 H 215.041 -1.06152 4.02125 0
M  V30 2191 H 213.618 -2.44224 2.81796 0
M  V30 2192 N 215.803 -1.52179 -0.40978 0
M  V30 2193 C 217.028 -1.70347 -1.18308 0
M  V30 2194 C 217.453 -0.411887 -1.83535 0
M  V30 2195 O 216.811 0.630587 -1.6998 0
M  V30 2196 C 216.859 -2.83977 -2.22238 0
M  V30 2197 O 215.963 -2.495 -3.28365 0
M  V30 2198 H 215.304 -0.567103 -0.345384 0
M  V30 2199 H 217.834 -1.98879 -0.480445 0
M  V30 2200 H 217.844 -3.0887 -2.66577 0
M  V30 2201 H 216.519 -3.77685 -1.74146 0
M  V30 2202 H 215.096 -2.35277 -2.89308 0
M  V30 2203 N 217.281 0.66697 -1.42791 0
M  V30 2204 C 218.527 1.42754 -1.44889 0
M  V30 2205 C 218.882 1.92283 -0.0669755 0
M  V30 2206 O 218.175 1.68494 0.912154 0
M  V30 2207 C 218.369 2.6349 -2.4147 0
M  V30 2208 C 218.198 2.25776 -3.88915 0
M  V30 2209 C 216.968 2.1476 -4.57391 0
M  V30 2210 C 219.166 1.86927 -4.79127 0
M  V30 2211 N 217.148 1.70232 -5.89826 0
M  V30 2212 C 218.519 1.53378 -6.00729 0
M  V30 2213 C 220.574 1.73989 -4.66511 0
M  V30 2214 C 219.277 1.08187 -7.11117 0
M  V30 2215 C 221.303 1.30203 -5.76889 0
M  V30 2216 C 220.665 0.975818 -6.97608 0
M  V30 2217 H 216.764 0.518559 -0.585338 0
M  V30 2218 H 219.348 0.768906 -1.78874 0
M  V30 2219 H 217.519 3.27033 -2.09533 0
M  V30 2220 H 219.251 3.30123 -2.34096 0
M  V30 2221 H 216.006 2.3408 -4.11708 0
M  V30 2222 H 216.43 1.50369 -6.6009 0
M  V30 2223 H 221.072 1.97853 -3.7365 0
M  V30 2224 H 218.79 0.830701 -8.03819 0
M  V30 2225 H 222.376 1.20701 -5.69142 0
M  V30 2226 H 221.256 0.642157 -7.81566 0
M  V30 2227 N 218.759 1.29093 0.90403 0
M  V30 2228 C 220.036 1.075 1.63411 0
M  V30 2229 C 220.416 -0.382346 2.07609 0
M  V30 2230 O 219.764 -1.37031 1.82851 0
M  V30 2231 C 219.974 2.05858 2.81822 0
M  V30 2232 C 221.322 2.36539 3.52611 0
M  V30 2233 O 222.346 2.04019 2.91984 0
M  V30 2234 O 221.205 2.92085 4.61897 0
M  V30 2235 H 218.299 0.411547 0.717327 0
M  V30 2236 H 220.845 1.40449 0.952479 0
M  V30 2237 H 219.617 3.04037 2.46327 0
M  V30 2238 H 219.24 1.73613 3.57693 0
M  V30 2239 N 220.237 -1.11381 1.11499 0
M  V30 2240 C 221.485 -1.8277 0.862524 0
M  V30 2241 C 221.806 -1.85097 -0.613534 0
M  V30 2242 O 221.076 -1.32198 -1.4457 0
M  V30 2243 H 219.656 -0.676823 0.316101 0
M  V30 2244 H 222.318 -1.34816 1.4075 0
M  V30 2245 H 221.414 -2.86614 1.23527 0
M  V30 2246 N 221.715 -0.905404 -1.28997 0
M  V30 2247 C 223.131 -0.60233 -1.47798 0
M  V30 2248 C 223.331 0.854645 -1.82478 0
M  V30 2249 O 222.387 1.63439 -1.92468 0
M  V30 2250 C 223.7 -1.53306 -2.58685 0
M  V30 2251 C 225.248 -1.53887 -2.72558 0
M  V30 2252 C 225.723 -2.45602 -3.86579 0
M  V30 2253 N 227.214 -2.43681 -3.93921 0
M  V30 2254 C 227.949 -3.11347 -4.81509 0
M  V30 2255 N 227.445 -3.88313 -5.73746 0
M  V30 2256 N 229.238 -3.00476 -4.75048 0
M  V30 2257 H 221.389 -1.84765 -1.04764 0
M  V30 2258 H 223.652 -0.792025 -0.520961 0
M  V30 2259 H 223.358 -2.57141 -2.39941 0
M  V30 2260 H 223.232 -1.25787 -3.55609 0
M  V30 2261 H 225.619 -0.507941 -2.90696 0
M  V30 2262 H 225.7 -1.85447 -1.76191 0
M  V30 2263 H 225.344 -3.48792 -3.69197 0
M  V30 2264 H 225.274 -2.11349 -4.82327 0
M  V30 2265 H 227.765 -1.87767 -3.27951 0
M  V30 2266 H 228.078 -4.36985 -6.37389 0
M  V30 2267 H 226.423 -3.92419 -5.73614 0
M  V30 2268 H 229.614 -2.39858 -4.01977 0
M  V30 2269 H 229.787 -3.53485 -5.43095 0
M  V30 2270 N 223.193 1.4272 -0.668489 0
M  V30 2271 C 224.423 2.05668 -0.196063 0
M  V30 2272 C 224.831 1.5028 1.14946 0
M  V30 2273 O 224.174 0.6348 1.72383 0
M  V30 2274 C 224.236 3.59469 -0.0468879 0
M  V30 2275 C 223.9 4.37518 -1.32012 0
M  V30 2276 C 224.897 4.68584 -2.25222 0
M  V30 2277 C 222.582 4.77266 -1.56596 0
M  V30 2278 C 224.576 5.38326 -3.41297 0
M  V30 2279 C 222.263 5.4675 -2.72962 0
M  V30 2280 C 223.261 5.77204 -3.65137 0
M  V30 2281 O 222.949 6.45264 -4.79468 0
M  V30 2282 H 222.681 0.669382 -0.0943599 0
M  V30 2283 H 225.235 1.83954 -0.913788 0
M  V30 2284 H 223.465 3.79817 0.726357 0
M  V30 2285 H 225.154 4.04071 0.384852 0
M  V30 2286 H 225.92 4.38382 -2.07477 0
M  V30 2287 H 221.799 4.52959 -0.857249 0
M  V30 2288 H 225.343 5.62014 -4.13263 0
M  V30 2289 H 221.24 5.76369 -2.90635 0
M  V30 2290 H 222.008 6.63753 -4.78931 0
M  V30 2291 N 224.671 0.411399 1.52136 0
M  V30 2292 C 225.634 -0.401089 2.25663 0
M  V30 2293 C 226.634 -0.971732 1.28117 0
M  V30 2294 O 227.824 -0.850254 1.52041 0
M  V30 2295 C 224.956 -1.56483 3.02863 0
M  V30 2296 H 226.149 0.24295 2.98914 0
M  V30 2297 H 223.702 0.163968 1.55438 0
M  V30 2298 H 224.437 -2.24567 2.33967 0
M  V30 2299 H 224.222 -1.16211 3.74483 0
M  V30 2300 H 225.712 -2.13951 3.58629 0
M  V30 2301 N 226.149 -1.5696 0.141893 0
M  V30 2302 C 227.079 -2.19516 -0.795936 0
M  V30 2303 C 228.06 -1.14187 -1.26077 0
M  V30 2304 O 229.245 -1.42511 -1.31925 0
M  V30 2305 C 226.375 -2.81272 -2.03723 0
M  V30 2306 C 225.329 -3.92384 -1.70936 0
M  V30 2307 C 224.655 -4.41052 -3.02287 0
M  V30 2308 C 225.955 -5.13403 -0.959954 0
M  V30 2309 H 227.649 -2.98138 -0.274596 0
M  V30 2310 H 225.195 -1.43406 -0.130636 0
M  V30 2311 H 227.148 -3.237 -2.69808 0
M  V30 2312 H 225.872 -1.99973 -2.58221 0
M  V30 2313 H 224.531 -3.50566 -1.07232 0
M  V30 2314 H 224.179 -3.56582 -3.54765 0
M  V30 2315 H 223.879 -5.15993 -2.81114 0
M  V30 2316 H 225.403 -4.86146 -3.69451 0
M  V30 2317 H 226.817 -5.52706 -1.52279 0
M  V30 2318 H 225.214 -5.94073 -0.848357 0
M  V30 2319 H 226.284 -4.84875 0.0492434 0
M  V30 2320 N 227.627 0.131896 -1.57047 0
M  V30 2321 C 228.873 0.843179 -1.84441 0
M  V30 2322 C 229.206 1.80129 -0.725749 0
M  V30 2323 O 228.481 1.92624 0.269469 0
M  V30 2324 C 228.764 1.60442 -3.22382 0
M  V30 2325 C 228.617 0.666782 -4.4483 0
M  V30 2326 C 229.936 2.56354 -3.5773 0
M  V30 2327 H 227.055 0.305081 -0.670891 0
M  V30 2328 H 229.697 0.107839 -1.89694 0
M  V30 2329 H 227.847 2.23128 -3.18035 0
M  V30 2330 H 229.519 0.0497646 -4.61273 0
M  V30 2331 H 227.762 -0.022609 -4.33794 0
M  V30 2332 H 228.433 1.23579 -5.37989 0
M  V30 2333 H 230.909 2.0378 -3.62785 0
M  V30 2334 H 229.785 3.06657 -4.5525 0
M  V30 2335 H 230.046 3.38419 -2.84473 0
M  V30 2336 N 229.106 1.52395 0.401703 0
M  V30 2337 C 230.352 1.67065 1.14966 0
M  V30 2338 C 230.685 0.403052 1.89971 0
M  V30 2339 O 229.96 -0.598774 1.85054 0
M  V30 2340 C 230.243 2.8975 2.13815 0
M  V30 2341 C 230.096 4.26578 1.42658 0
M  V30 2342 C 231.415 3.07965 3.14397 0
M  V30 2343 H 228.534 0.607968 0.416587 0
M  V30 2344 H 231.176 1.84965 0.434511 0
M  V30 2345 H 229.326 2.74619 2.74803 0
M  V30 2346 H 230.998 4.53451 0.847329 0
M  V30 2347 H 229.241 4.27639 0.72849 0
M  V30 2348 H 229.912 5.08483 2.14823 0
M  V30 2349 H 232.388 3.22043 2.63491 0
M  V30 2350 H 231.264 3.95308 3.80819 0
M  V30 2351 H 231.525 2.21611 3.82545 0
M  V30 2352 N 230.584 -0.659388 1.43143 0
M  V30 2353 C 231.547 -1.75432 1.47501 0
M  V30 2354 C 232.547 -1.56707 0.360512 0
M  V30 2355 O 233.737 -1.62717 0.622002 0
M  V30 2356 C 230.869 -3.14239 1.32162 0
M  V30 2357 H 232.062 -1.7295 2.45006 0
M  V30 2358 H 229.615 -0.870469 1.29817 0
M  V30 2359 H 230.35 -3.22336 0.356401 0
M  V30 2360 H 230.135 -3.29235 2.12948 0
M  V30 2361 H 231.625 -3.94094 1.3813 0
M  V30 2362 N 232.062 -1.29571 -0.897171 0
M  V30 2363 C 233.31 -1.17456 -1.64464 0
M  V30 2364 C 233.631 0.273698 -1.9307 0
M  V30 2365 O 232.901 1.18684 -1.55855 0
M  V30 2366 H 231.481 -0.431706 -0.609622 0
M  V30 2367 H 234.143 -1.62531 -1.07562 0
M  V30 2368 H 233.239 -1.72648 -2.59998 0
M  V30 2369 N 233.54 1.10788 -1.12088 0
M  V30 2370 C 234.817 1.79136 -0.785476 0
M  V30 2371 C 235.197 1.98246 0.725377 0
M  V30 2372 O 234.545 1.57258 1.65778 0
M  V30 2373 C 234.755 3.12375 -1.55636 0
M  V30 2374 C 236.103 3.8731 -1.74001 0
M  V30 2375 O 237.127 3.22085 -1.52117 0
M  V30 2376 O 235.986 5.04369 -2.10415 0
M  V30 2377 H 233.08 0.776226 -0.285311 0
M  V30 2378 H 235.626 1.1747 -1.2247 0
M  V30 2379 H 234.398 2.93863 -2.5838 0
M  V30 2380 H 234.021 3.81758 -1.11114 0
M  V30 2381 N 235.018 0.912232 1.28515 0
M  V30 2382 C 236.267 0.540504 1.94323 0
M  V30 2383 C 236.58 -0.920044 1.72611 0
M  V30 2384 O 237.786 -1.39986 2.32629 0
M  V30 2385 C 236.242 0.915803 3.48053 0
M  V30 2386 C 235.85 2.39598 3.78546 0
M  V30 2387 C 237.594 0.614588 4.20027 0
M  V30 2388 C 235.501 2.71148 5.25578 0
M  V30 2389 H 234.431 0.198418 0.727424 0
M  V30 2390 H 237.082 1.11094 1.46049 0
M  V30 2391 H 235.464 0.274168 3.9505 0
M  V30 2392 H 236.638 3.08422 3.42364 0
M  V30 2393 H 234.953 2.66749 3.1974 0
M  V30 2394 H 237.55 0.827002 5.28266 0
M  V30 2395 H 237.893 -0.447531 4.13887 0
M  V30 2396 H 238.426 1.21462 3.78803 0
M  V30 2397 H 235.165 3.76207 5.36794 0
M  V30 2398 H 234.685 2.0696 5.62963 0
M  V30 2399 H 236.364 2.58072 5.93302 0
M  V30 2400 N 236.496 -1.42363 0.676048 0
M  V30 2401 C 237.459 -2.29199 0.00766941 0
M  V30 2402 C 238.459 -1.43389 -0.727745 0
M  V30 2403 O 239.649 -1.64764 -0.56556 0
M  V30 2404 C 236.781 -3.2591 -0.999785 0
M  V30 2405 H 237.974 -2.89794 0.771988 0
M  V30 2406 H 235.527 -1.50024 0.438468 0
M  V30 2407 H 236.262 -2.70256 -1.79255 0
M  V30 2408 H 236.047 -3.89202 -0.475829 0
M  V30 2409 H 237.537 -3.91028 -1.46583 0
M  V30 2410 N 237.974 -0.419461 -1.51915 0
M  V30 2411 C 239.22 0.153166 -2.02221 0
M  V30 2412 C 239.553 1.43907 -1.30401 0
M  V30 2413 O 238.828 1.90055 -0.413438 0
M  V30 2414 C 239.111 0.390291 -3.57979 0
M  V30 2415 C 238.964 -0.913014 -4.40436 0
M  V30 2416 C 240.283 1.16794 -4.2432 0
M  V30 2417 H 237.402 0.0541924 -0.735005 0
M  V30 2418 H 240.044 -0.554955 -1.81715 0
M  V30 2419 H 238.194 0.993491 -3.75582 0
M  V30 2420 H 239.866 -1.54882 -4.34522 0
M  V30 2421 H 238.109 -1.52168 -4.06236 0
M  V30 2422 H 238.78 -0.701361 -5.47526 0
M  V30 2423 H 241.256 0.657161 -4.10878 0
M  V30 2424 H 240.132 1.3026 -5.3322 0
M  V30 2425 H 240.393 2.19132 -3.83971 0
M  V30 2426 N 239.452 1.56882 -0.150215 0
M  V30 2427 C 240.682 2.00302 0.506213 0
M  V30 2428 C 241.09 1.02934 1.58749 0
M  V30 2429 O 240.433 0.0188384 1.8369 0
M  V30 2430 C 240.495 3.40156 1.16337 0
M  V30 2431 C 240.159 4.56439 0.226311 0
M  V30 2432 C 241.156 5.17012 -0.547265 0
M  V30 2433 C 238.841 5.02136 0.128279 0
M  V30 2434 C 240.835 6.21693 -1.40629 0
M  V30 2435 C 238.522 6.06672 -0.734345 0
M  V30 2436 C 239.52 6.6632 -1.50023 0
M  V30 2437 O 239.208 7.68831 -2.34848 0
M  V30 2438 H 238.94 0.662182 0.135984 0
M  V30 2439 H 241.494 2.03961 -0.242746 0
M  V30 2440 H 239.724 3.33346 1.96004 0
M  V30 2441 H 241.413 3.67663 1.71985 0
M  V30 2442 H 242.179 4.82603 -0.48158 0
M  V30 2443 H 238.058 4.55435 0.714157 0
M  V30 2444 H 241.602 6.68179 -2.00455 0
M  V30 2445 H 237.499 6.40507 -0.801309 0
M  V30 2446 H 238.267 7.86065 -2.28131 0
M  V30 2447 N 240.93 -0.123565 1.57115 0
M  V30 2448 C 241.893 -1.13583 1.99076 0
M  V30 2449 C 242.893 -1.34564 0.880296 0
M  V30 2450 O 244.083 -1.31158 1.14644 0
M  V30 2451 C 241.215 -2.49128 2.32698 0
M  V30 2452 H 242.408 -0.775287 2.89706 0
M  V30 2453 H 239.961 -0.36771 1.51913 0
M  V30 2454 H 240.696 -2.90111 1.44934 0
M  V30 2455 H 240.481 -2.35255 3.13684 0
M  V30 2456 H 241.971 -3.2199 2.65918 0
M  V30 2457 N 242.408 -1.52605 -0.393616 0
M  V30 2458 C 243.636 -1.71294 -1.16043 0
M  V30 2459 C 244.051 -0.429259 -1.83855 0
M  V30 2460 O 243.408 0.595921 -1.72496 0
M  V30 2461 C 243.459 -2.8593 -2.21193 0
M  V30 2462 O 243.18 -4.09329 -1.56146 0
M  V30 2463 C 244.681 -3.16259 -3.10636 0
M  V30 2464 H 241.901 -0.573641 -0.348104 0
M  V30 2465 H 244.445 -1.99234 -0.461092 0
M  V30 2466 H 242.6 -2.60465 -2.86769 0
M  V30 2467 H 243.014 -4.73323 -2.25978 0
M  V30 2468 H 244.488 -3.99946 -3.80456 0
M  V30 2469 H 244.965 -2.3045 -3.73884 0
M  V30 2470 H 245.571 -3.43547 -2.50711 0
M  V30 2471 N 243.887 0.651787 -1.4349 0
M  V30 2472 C 245.135 1.40888 -1.44897 0
M  V30 2473 C 245.456 1.94856 -0.0749086 0
M  V30 2474 O 244.726 1.74518 0.889956 0
M  V30 2475 H 243.306 0.522887 -0.533478 0
M  V30 2476 H 245.968 0.768609 -1.79104 0
M  V30 2477 H 245.064 2.25052 -2.16236 0
M  V30 2478 N 245.365 1.30045 0.890287 0
M  V30 2479 C 246.313 1.15873 2.01683 0
M  V30 2480 C 247.307 0.0719403 1.69247 0
M  V30 2481 O 248.513 0.232414 1.78493 0
M  V30 2482 H 244.888 0.358203 0.661207 0
M  V30 2483 H 246.859 2.11229 2.10772 0
M  V30 2484 C 245.608 0.861842 3.36849 0
M  V30 2485 H 244.931 1.69016 3.62317 0
M  V30 2486 H 246.371 0.802762 4.16331 0
M  V30 2487 C 244.83 -0.435132 3.34078 0
M  V30 2488 O 245.36 -1.4583 3.74295 0
M  V30 2489 N 243.566 -0.444377 2.87182 0
M  V30 2490 H 243.113 0.388723 2.5465 0
M  V30 2491 H 243.071 -1.31213 2.85711 0
M  V30 2492 N 246.843 -1.10192 1.12674 0
M  V30 2493 C 247.806 -2.14786 0.799979 0
M  V30 2494 C 248.806 -1.59711 -0.18685 0
M  V30 2495 O 249.996 -1.74156 0.0392558 0
M  V30 2496 C 247.128 -3.40374 0.189228 0
M  V30 2497 H 248.321 -2.45203 1.72671 0
M  V30 2498 H 245.874 -1.25597 0.930326 0
M  V30 2499 H 246.609 -3.15577 -0.747107 0
M  V30 2500 H 246.394 -3.81637 0.899766 0
M  V30 2501 H 247.884 -4.17594 -0.0228143 0
M  V30 2502 N 248.321 -0.919034 -1.28029 0
M  V30 2503 C 249.737 -0.617972 -1.4715 0
M  V30 2504 C 249.937 0.835242 -1.83374 0
M  V30 2505 O 248.993 1.61388 -1.94191 0
M  V30 2506 C 250.306 -1.56041 -2.57044 0
M  V30 2507 C 251.854 -1.56769 -2.7091 0
M  V30 2508 C 252.329 -2.49688 -3.83953 0
M  V30 2509 N 253.82 -2.47845 -3.91314 0
M  V30 2510 C 254.555 -3.16437 -4.78179 0
M  V30 2511 N 254.051 -3.94376 -5.69596 0
M  V30 2512 N 255.844 -3.05498 -4.71834 0
M  V30 2513 H 247.995 -1.85866 -1.02798 0
M  V30 2514 H 250.258 -0.797506 -0.512531 0
M  V30 2515 H 249.964 -2.59671 -2.372 0
M  V30 2516 H 249.838 -1.29551 -3.54255 0
M  V30 2517 H 252.225 -0.538745 -2.90141 0
M  V30 2518 H 252.306 -1.87305 -1.74214 0
M  V30 2519 H 251.95 -3.52688 -3.65477 0
M  V30 2520 H 251.88 -2.16453 -4.80058 0
M  V30 2521 H 254.371 -1.91234 -3.25941 0
M  V30 2522 H 254.684 -4.43721 -6.32718 0
M  V30 2523 H 253.029 -3.98481 -5.69419 0
M  V30 2524 H 256.22 -2.44108 -3.99411 0
M  V30 2525 H 256.393 -3.59225 -5.39316 0
M  V30 2526 N 249.799 1.42003 -0.683588 0
M  V30 2527 C 251.21 1.84501 -0.285736 0
M  V30 2528 C 251.561 1.57213 1.17382 0
M  V30 2529 O 250.686 1.03642 1.89966 0
M  V30 2530 C 251.281 3.34912 -0.511821 0
M  V30 2531 C 249.84 3.76025 -0.168005 0
M  V30 2532 C 248.987 2.6551 -0.799983 0
M  V30 2533 H 251.938 1.31724 -0.885119 0
M  V30 2534 H 251.959 3.79784 0.233292 0
M  V30 2535 H 251.471 3.54741 -1.57418 0
M  V30 2536 H 249.572 3.61801 0.890567 0
M  V30 2537 H 249.685 4.75141 -0.614661 0
M  V30 2538 H 248.049 2.53654 -0.230568 0
M  V30 2539 H 248.832 2.8816 -1.86597 0
M  V30 2540 N 251.277 0.427512 1.51691 0
M  V30 2541 C 252.505 -0.141191 2.06418 0
M  V30 2542 C 252.92 -1.37303 1.29589 0
M  V30 2543 O 252.277 -1.79059 0.352732 0
M  V30 2544 C 252.328 -0.473266 3.58389 0
M  V30 2545 O 252.049 0.709673 4.32314 0
M  V30 2546 C 253.55 -1.09371 4.29596 0
M  V30 2547 H 250.77 -0.0122747 0.670888 0
M  V30 2548 H 253.314 0.603764 1.95384 0
M  V30 2549 H 251.469 -1.16812 3.69369 0
M  V30 2550 H 251.883 0.42807 5.2275 0
M  V30 2551 H 253.357 -1.27613 5.37046 0
M  V30 2552 H 253.834 -2.072 3.87253 0
M  V30 2553 H 254.44 -0.43853 4.23033 0
M  V30 2554 N 252.755 -1.56801 0.158532 0
M  V30 2555 C 254.003 -1.96102 -0.488712 0
M  V30 2556 C 254.324 -1.04498 -1.64636 0
M  V30 2557 O 253.594 -0.108783 -1.95598 0
M  V30 2558 H 252.174 -0.724102 -0.183535 0
M  V30 2559 H 254.836 -1.93457 0.236728 0
M  V30 2560 H 253.932 -3.00097 -0.857219 0
M  V30 2561 N 254.233 0.115231 -1.57178 0
M  V30 2562 C 255.481 0.820727 -1.84685 0
M  V30 2563 C 255.802 1.80237 -0.744279 0
M  V30 2564 O 255.072 1.94529 0.231375 0
M  V30 2565 H 253.652 0.306084 -0.681411 0
M  V30 2566 H 256.314 0.101656 -1.94635 0
M  V30 2567 H 255.41 1.36366 -2.80733 0
M  V30 2568 N 255.711 1.52812 0.385517 0
M  V30 2569 C 256.957 1.68275 1.13188 0
M  V30 2570 C 257.29 0.423179 1.89533 0
M  V30 2571 O 256.565 -0.579113 1.85679 0
M  V30 2572 C 256.848 2.92001 2.1073 0
M  V30 2573 C 256.701 4.28067 1.38125 0
M  V30 2574 C 258.02 3.11283 3.11113 0
M  V30 2575 H 255.139 0.612352 0.410115 0
M  V30 2576 H 257.781 1.85415 0.414869 0
M  V30 2577 H 255.931 2.77519 2.71874 0
M  V30 2578 H 257.603 4.54324 0.799187 0
M  V30 2579 H 255.846 4.28388 0.683092 0
M  V30 2580 H 256.517 5.10733 2.09417 0
M  V30 2581 H 258.993 3.2482 2.6006 0
M  V30 2582 H 257.869 3.99325 3.76605 0
M  V30 2583 H 258.13 2.25656 3.80173 0
M  V30 2584 N 257.189 -0.644168 1.43834 0
M  V30 2585 C 258.437 -1.40117 1.45642 0
M  V30 2586 C 258.758 -1.94814 0.0852413 0
M  V30 2587 O 258.028 -1.74988 -0.880688 0
M  V30 2588 H 256.608 -0.52005 0.536243 0
M  V30 2589 H 259.27 -0.7591 1.7951 0
M  V30 2590 H 258.366 -2.23902 2.17427 0
M  V30 2591 N 258.668 -1.30515 -0.883378 0
M  V30 2592 C 259.631 -1.1701 -1.97082 0
M  V30 2593 C 260.631 -0.10089 -1.60483 0
M  V30 2594 O 261.821 -0.349127 -1.70666 0
M  V30 2595 C 258.953 -0.793045 -3.31547 0
M  V30 2596 H 260.146 -2.13622 -2.10489 0
M  V30 2597 H 257.699 -1.13935 -1.06998 0
M  V30 2598 H 258.434 0.172499 -3.23841 0
M  V30 2599 H 258.219 -1.56576 -3.5948 0
M  V30 2600 H 259.709 -0.722073 -4.1131 0
M  V30 2601 N 260.146 1.09593 -1.13257 0
M  V30 2602 C 261.392 1.82003 -0.89458 0
M  V30 2603 C 261.725 1.85402 0.577906 0
M  V30 2604 O 261 1.32099 1.42759 0
M  V30 2605 C 261.283 3.28237 -1.48096 0
M  V30 2606 C 261.136 3.3312 -3.02244 0
M  V30 2607 C 262.455 4.24871 -1.14774 0
M  V30 2608 H 259.574 0.66077 -0.326424 0
M  V30 2609 H 262.216 1.28389 -1.40058 0
M  V30 2610 H 260.366 3.74024 -1.05062 0
M  V30 2611 H 262.038 2.95748 -3.54021 0
M  V30 2612 H 260.281 2.72756 -3.37323 0
M  V30 2613 H 260.952 4.3613 -3.38371 0
M  V30 2614 H 263.428 3.87361 -1.51957 0
M  V30 2615 H 262.304 5.25532 -1.58452 0
M  V30 2616 H 262.565 4.42058 -0.0611849 0
M  V30 2617 N 261.624 0.925811 1.2754 0
M  V30 2618 C 262.587 0.428129 2.25166 0
M  V30 2619 C 263.587 -0.452261 1.54309 0
M  V30 2620 O 264.777 -0.253608 1.72344 0
M  V30 2621 C 261.909 -0.384749 3.38722 0
M  V30 2622 H 263.102 1.29066 2.70706 0
M  V30 2623 H 260.655 0.706323 1.3943 0
M  V30 2624 H 261.39 -1.26618 2.98561 0
M  V30 2625 H 261.175 0.246454 3.91325 0
M  V30 2626 H 262.665 -0.723389 4.11287 0
M  V30 2627 N 263.102 -1.41638 0.69111 0
M  V30 2628 C 264.032 -2.3347 0.037248 0
M  V30 2629 C 265.013 -1.51575 -0.771947 0
M  V30 2630 O 266.198 -1.80126 -0.72582 0
M  V30 2631 C 263.328 -3.35354 -0.903064 0
M  V30 2632 C 262.282 -4.27526 -0.201288 0
M  V30 2633 C 261.608 -5.19747 -1.25565 0
M  V30 2634 C 262.908 -5.13959 0.929689 0
M  V30 2635 H 264.602 -2.88397 0.804227 0
M  V30 2636 H 262.148 -1.38669 0.388189 0
M  V30 2637 H 264.101 -3.98519 -1.36969 0
M  V30 2638 H 262.825 -2.78767 -1.70166 0
M  V30 2639 H 261.484 -3.65779 0.245265 0
M  V30 2640 H 261.132 -4.59479 -2.04666 0
M  V30 2641 H 260.832 -5.8225 -0.791128 0
M  V30 2642 H 262.356 -5.85789 -1.72288 0
M  V30 2643 H 263.77 -5.70718 0.543546 0
M  V30 2644 H 262.167 -5.85379 1.32103 0
M  V30 2645 H 263.237 -4.51389 1.77133 0
M  V30 2646 N 264.58 -0.43555 -1.51462 0
M  V30 2647 C 265.51 0.367376 -2.30592 0
M  V30 2648 C 266.491 1.02263 -1.35928 0
M  V30 2649 O 267.676 1.02661 -1.64847 0
M  V30 2650 C 264.806 1.46983 -3.14664 0
M  V30 2651 C 263.76 0.938161 -4.17591 0
M  V30 2652 C 263.086 2.13622 -4.90173 0
M  V30 2653 C 264.386 -0.0261621 -5.22293 0
M  V30 2654 H 266.08 -0.292969 -2.97963 0
M  V30 2655 H 263.626 -0.14234 -1.43295 0
M  V30 2656 H 265.579 2.03873 -3.688 0
M  V30 2657 H 264.303 2.15843 -2.4511 0
M  V30 2658 H 262.962 0.391481 -3.64504 0
M  V30 2659 H 262.61 2.81098 -4.17124 0
M  V30 2660 H 262.31 1.78688 -5.59772 0
M  V30 2661 H 263.834 2.7107 -5.47132 0
M  V30 2662 H 265.248 0.452384 -5.71512 0
M  V30 2663 H 263.645 -0.287992 -5.99409 0
M  V30 2664 H 264.715 -0.963391 -4.75233 0
M  V30 2665 N 266.058 1.56714 -0.166846 0
M  V30 2666 C 267.307 1.95922 0.479318 0
M  V30 2667 C 267.62 1.05529 1.6469 0
M  V30 2668 O 268.826 1.34399 2.35901 0
M  V30 2669 C 267.282 3.48359 0.90412 0
M  V30 2670 C 266.89 4.47369 -0.237621 0
M  V30 2671 C 268.634 3.96394 1.51896 0
M  V30 2672 C 266.541 5.91039 0.206561 0
M  V30 2673 H 265.471 0.731495 0.18284 0
M  V30 2674 H 268.122 1.81728 -0.254363 0
M  V30 2675 H 266.504 3.57955 1.69365 0
M  V30 2676 H 267.678 4.49485 -1.01489 0
M  V30 2677 H 265.993 4.09366 -0.762128 0
M  V30 2678 H 268.59 5.01186 1.86325 0
M  V30 2679 H 268.933 3.39075 2.41524 0
M  V30 2680 H 269.466 3.89796 0.79395 0
M  V30 2681 H 266.205 6.52221 -0.654834 0
M  V30 2682 H 265.725 5.9224 0.949282 0
M  V30 2683 H 267.404 6.43707 0.651939 0
M  V30 2684 N 267.536 -0.106894 1.57237 0
M  V30 2685 C 268.784 -0.810921 1.85117 0
M  V30 2686 C 269.105 -1.7984 0.753827 0
M  V30 2687 O 268.375 -1.94649 -0.221056 0
M  V30 2688 H 266.955 -0.302466 0.683025 0
M  V30 2689 H 269.617 -0.0913324 1.94686 0
M  V30 2690 H 268.713 -1.34875 2.81452 0
M  V30 2691 N 269.014 -1.53014 -0.377408 0
M  V30 2692 C 270.425 -1.60438 -0.954798 0
M  V30 2693 C 270.776 -0.464418 -1.90624 0
M  V30 2694 O 269.901 0.41087 -2.12464 0
M  V30 2695 C 270.496 -2.90797 -1.73847 0
M  V30 2696 C 269.055 -3.00595 -2.26538 0
M  V30 2697 C 268.202 -2.55645 -1.07429 0
M  V30 2698 H 271.153 -1.57926 -0.156575 0
M  V30 2699 H 271.174 -2.77935 -2.5987 0
M  V30 2700 H 270.686 -3.73746 -1.04574 0
M  V30 2701 H 268.787 -2.22208 -2.99089 0
M  V30 2702 H 268.9 -4.05456 -2.5523 0
M  V30 2703 H 267.264 -2.10239 -1.43777 0
M  V30 2704 H 268.047 -3.41 -0.396728 0
M  V30 2705 N 270.492 0.636531 -1.44174 0
M  V30 2706 C 271.44 1.76995 -1.50915 0
M  V30 2707 C 272.434 1.65053 -0.381295 0
M  V30 2708 O 273.64 1.71197 -0.55601 0
M  V30 2709 H 270.015 0.584247 -0.473455 0
M  V30 2710 H 271.986 1.68432 -2.4632 0
M  V30 2711 C 270.735 3.15314 -1.46534 0
M  V30 2712 H 270.058 3.25149 -2.32633 0
M  V30 2713 H 271.498 3.9453 -1.55312 0
M  V30 2714 C 269.957 3.3639 -0.185305 0
M  V30 2715 O 270.487 3.94699 0.746688 0
M  V30 2716 N 268.693 2.9046 -0.0901606 0
M  V30 2717 H 268.24 2.43193 -0.849416 0
M  V30 2718 H 268.198 3.04937 0.765553 0
M  V30 2719 N 271.97 1.30982 0.876444 0
M  V30 2720 C 272.933 1.18054 1.96459 0
M  V30 2721 C 273.933 0.109399 1.60427 0
M  V30 2722 O 275.123 0.358173 1.70478 0
M  V30 2723 C 272.255 0.810616 3.31122 0
M  V30 2724 H 273.448 2.14735 2.09354 0
M  V30 2725 H 271.001 1.145 1.06392 0
M  V30 2726 H 271.736 -0.155322 3.23928 0
M  V30 2727 H 271.521 1.58481 3.58645 0
M  V30 2728 H 273.011 0.743876 4.10921 0
M  V30 2729 N 273.449 -1.08991 1.13837 0
M  V30 2730 C 274.86 -1.62746 0.914917 0
M  V30 2731 C 275.211 -1.88403 -0.547594 0
M  V30 2732 O 274.336 -1.63706 -1.41525 0
M  V30 2733 C 274.931 -2.95662 1.65437 0
M  V30 2734 C 273.49 -3.46225 1.47666 0
M  V30 2735 C 272.637 -2.20562 1.6807 0
M  V30 2736 H 275.588 -0.922946 1.29102 0
M  V30 2737 H 275.609 -3.63825 1.11407 0
M  V30 2738 H 275.121 -2.76956 2.71877 0
M  V30 2739 H 273.222 -3.70046 0.435478 0
M  V30 2740 H 273.335 -4.23368 2.24268 0
M  V30 2741 H 271.699 -2.29439 1.10589 0
M  V30 2742 H 272.482 -2.0437 2.7584 0
M  V30 2743 N 274.927 -0.932562 -1.27047 0
M  V30 2744 C 275.857 -0.452902 -2.29066 0
M  V30 2745 C 276.838 0.489338 -1.62909 0
M  V30 2746 O 278.023 0.393046 -1.90181 0
M  V30 2747 C 275.153 0.290698 -3.46081 0
M  V30 2748 C 274.107 -0.564168 -4.24265 0
M  V30 2749 C 273.433 0.308886 -5.33807 0
M  V30 2750 C 274.733 -1.83112 -4.89149 0
M  V30 2751 H 276.427 -1.30552 -2.69437 0
M  V30 2752 H 273.973 -0.629201 -1.29526 0
M  V30 2753 H 275.926 0.637233 -4.16554 0
M  V30 2754 H 274.65 1.17738 -3.0464 0
M  V30 2755 H 273.309 -0.893477 -3.55545 0
M  V30 2756 H 272.957 1.19467 -4.88607 0
M  V30 2757 H 272.657 -0.259633 -5.87026 0
M  V30 2758 H 274.181 0.650884 -6.07121 0
M  V30 2759 H 275.595 -1.55236 -5.51883 0
M  V30 2760 H 273.992 -2.34353 -5.52448 0
M  V30 2761 H 275.062 -2.54772 -4.12576 0
M  V30 2762 N 276.405 1.4127 -0.698611 0
M  V30 2763 C 277.654 2.00408 -0.227949 0
M  V30 2764 C 277.967 1.55981 1.18023 0
M  V30 2765 O 279.173 2.07699 1.74852 0
M  V30 2766 C 277.629 3.58129 -0.356636 0
M  V30 2767 C 277.237 4.11536 -1.77037 0
M  V30 2768 C 278.981 4.24466 0.0540969 0
M  V30 2769 C 276.888 5.61701 -1.85055 0
M  V30 2770 H 275.818 0.749586 -0.0814657 0
M  V30 2771 H 278.469 1.61713 -0.867249 0
M  V30 2772 H 276.851 3.94442 0.350965 0
M  V30 2773 H 278.025 3.86636 -2.50698 0
M  V30 2774 H 276.34 3.57736 -2.13105 0
M  V30 2775 H 278.937 5.34698 0.0146723 0
M  V30 2776 H 279.28 4.01687 1.09332 0
M  V30 2777 H 279.813 3.93198 -0.603337 0
M  V30 2778 H 276.552 5.89312 -2.8704 0
M  V30 2779 H 276.072 5.88519 -1.15783 0
M  V30 2780 H 277.751 6.26524 -1.61484 0
M  V30 2781 N 277.883 0.443576 1.51229 0
M  V30 2782 C 279.13 -0.120796 2.02139 0
M  V30 2783 C 279.458 -1.42166 1.32736 0
M  V30 2784 O 278.713 -1.90849 0.43301 0
M  V30 2785 C 279.012 -0.380579 3.55368 0
M  V30 2786 C 278.678 0.83523 4.43097 0
M  V30 2787 C 277.34 1.16864 4.66794 0
M  V30 2788 C 279.692 1.64601 4.94526 0
M  V30 2789 C 277.02 2.31339 5.39165 0
M  V30 2790 C 279.372 2.78181 5.68153 0
M  V30 2791 C 278.036 3.11969 5.90112 0
M  V30 2792 H 277.306 -0.0442023 0.73968 0
M  V30 2793 H 279.953 0.592046 1.82118 0
M  V30 2794 H 278.258 -1.17538 3.73754 0
M  V30 2795 H 279.955 -0.830777 3.923 0
M  V30 2796 H 276.545 0.565437 4.24854 0
M  V30 2797 H 280.729 1.40163 4.76097 0
M  V30 2798 H 275.985 2.57823 5.5438 0
M  V30 2799 H 280.159 3.41371 6.06992 0
M  V30 2800 H 277.786 4.00784 6.45969 0
M  V30 2801 N 279.361 -1.56624 0.175154 0
M  V30 2802 C 280.271 -2.21741 -0.766042 0
M  V30 2803 C 281.287 -1.21023 -1.25018 0
M  V30 2804 O 282.463 -1.53697 -1.3015 0
M  V30 2805 C 279.528 -2.84839 -1.97655 0
M  V30 2806 C 278.589 -4.00769 -1.53892 0
M  V30 2807 C 277.822 -4.60849 -2.69173 0
M  V30 2808 O 278.045 -4.19823 -3.86141 0
M  V30 2809 O 276.979 -5.50655 -2.43028 0
M  V30 2810 H 280.805 -3.02738 -0.241585 0
M  V30 2811 H 278.39 -1.49305 -0.053222 0
M  V30 2812 H 280.272 -3.24834 -2.68442 0
M  V30 2813 H 278.947 -2.06836 -2.48999 0
M  V30 2814 H 277.854 -3.65436 -0.80044 0
M  V30 2815 H 279.187 -4.80376 -1.07236 0
M  V30 2816 N 280.839 0.0985539 -1.57292 0
M  V30 2817 C 282.255 0.45267 -1.53046 0
M  V30 2818 C 282.455 1.80713 -0.891342 0
M  V30 2819 O 281.511 2.4785 -0.482375 0
M  V30 2820 C 282.824 0.418341 -2.97776 0
M  V30 2821 C 284.372 0.500443 -3.08973 0
M  V30 2822 C 284.847 0.496297 -4.55303 0
M  V30 2823 N 286.338 0.557151 -4.59837 0
M  V30 2824 C 287.073 0.575726 -5.70502 0
M  V30 2825 N 286.569 0.550714 -6.90608 0
M  V30 2826 N 288.362 0.620277 -5.58667 0
M  V30 2827 H 280.513 -0.788673 -1.97215 0
M  V30 2828 H 282.776 -0.293188 -0.901524 0
M  V30 2829 H 282.482 -0.509659 -3.47988 0
M  V30 2830 H 282.356 1.2386 -3.56284 0
M  V30 2831 H 284.743 1.41886 -2.58751 0
M  V30 2832 H 284.824 -0.347894 -2.53423 0
M  V30 2833 H 284.468 -0.418162 -5.06176 0
M  V30 2834 H 284.398 1.3618 -5.08687 0
M  V30 2835 H 286.889 0.581816 -3.73394 0
M  V30 2836 H 287.202 0.568075 -7.70709 0
M  V30 2837 H 285.547 0.517816 -6.93068 0
M  V30 2838 H 288.738 0.637322 -4.63741 0
M  V30 2839 H 288.911 0.631283 -6.44918 0
M  V30 2840 N 282.317 1.53212 0.369288 0
M  V30 2841 C 283.565 1.68881 1.11012 0
M  V30 2842 C 283.886 0.441285 1.89941 0
M  V30 2843 O 283.156 -0.544623 1.88177 0
M  V30 2844 H 281.736 0.622569 0.412816 0
M  V30 2845 H 284.398 1.90391 0.416802 0
M  V30 2846 H 283.494 2.54822 1.80201 0
M  V30 2847 N 283.795 -0.628877 1.44509 0
M  V30 2848 C 284.725 -1.75187 1.54376 0
M  V30 2849 C 285.706 -1.65411 0.396618 0
M  V30 2850 O 286.891 -1.84137 0.617031 0
M  V30 2851 C 284.021 -3.13725 1.48976 0
M  V30 2852 C 282.975 -3.38291 2.62189 0
M  V30 2853 C 282.301 -4.76883 2.41841 0
M  V30 2854 C 283.601 -3.30632 4.04326 0
M  V30 2855 H 285.295 -1.67187 2.48373 0
M  V30 2856 H 282.841 -0.802909 1.19538 0
M  V30 2857 H 284.794 -3.92064 1.54478 0
M  V30 2858 H 283.518 -3.22515 0.514961 0
M  V30 2859 H 282.177 -2.62334 2.56079 0
M  V30 2860 H 281.825 -4.82378 1.42548 0
M  V30 2861 H 281.525 -4.94278 3.17747 0
M  V30 2862 H 283.049 -5.57449 2.49165 0
M  V30 2863 H 284.463 -3.98873 4.11793 0
M  V30 2864 H 282.86 -3.59561 4.80454 0
M  V30 2865 H 283.93 -2.28404 4.27738 0
M  V30 2866 N 285.273 -1.31445 -0.869486 0
M  V30 2867 C 286.689 -1.10113 -1.15531 0
M  V30 2868 C 286.889 0.128087 -2.01092 0
M  V30 2869 O 285.945 0.817276 -2.38908 0
M  V30 2870 C 287.258 -2.37291 -1.84698 0
M  V30 2871 C 288.806 -2.42906 -1.97397 0
M  V30 2872 C 289.281 -3.69967 -2.69979 0
M  V30 2873 N 290.772 -3.70864 -2.77514 0
M  V30 2874 C 291.507 -4.65875 -3.34287 0
M  V30 2875 N 291.003 -5.71242 -3.91988 0
M  V30 2876 N 292.796 -4.53394 -3.3225 0
M  V30 2877 H 284.947 -2.1028 -0.299347 0
M  V30 2878 H 287.21 -0.927683 -0.195214 0
M  V30 2879 H 286.916 -3.27078 -1.29278 0
M  V30 2880 H 286.79 -2.47125 -2.84972 0
M  V30 2881 H 289.177 -1.53588 -2.51982 0
M  V30 2882 H 289.258 -2.37036 -0.961643 0
M  V30 2883 H 288.902 -4.59652 -2.16062 0
M  V30 2884 H 288.832 -3.73103 -3.7162 0
M  V30 2885 H 291.323 -2.94697 -2.36563 0
M  V30 2886 H 291.636 -6.39817 -4.33421 0
M  V30 2887 H 289.981 -5.75015 -3.90362 0
M  V30 2888 H 293.172 -3.70252 -2.8641 0
M  V30 2889 H 293.345 -5.27617 -3.76197 0
M  V30 2890 N 286.751 1.08385 -1.14413 0
M  V30 2891 C 287.999 1.80419 -0.910679 0
M  V30 2892 C 288.32 1.86658 0.564243 0
M  V30 2893 O 287.59 1.35985 1.41014 0
M  V30 2894 H 286.17 0.668204 -0.333934 0
M  V30 2895 H 288.832 1.31037 -1.44275 0
M  V30 2896 H 287.928 2.83238 -1.31082 0
M  V30 2897 N 288.23 0.939286 1.26551 0
M  V30 2898 C 289.458 0.602536 1.97932 0
M  V30 2899 C 289.873 -0.82206 1.69964 0
M  V30 2900 O 289.23 -1.54789 0.966784 0
M  V30 2901 C 289.281 0.832946 3.51773 0
M  V30 2902 O 289.002 2.20151 3.78768 0
M  V30 2903 C 290.503 0.506483 4.40397 0
M  V30 2904 H 287.723 0.227248 0.631347 0
M  V30 2905 H 290.267 1.25948 1.61113 0
M  V30 2906 H 288.422 0.222644 3.8676 0
M  V30 2907 H 288.836 2.26013 4.73306 0
M  V30 2908 H 290.31 0.718333 5.47306 0
M  V30 2909 H 290.787 -0.558451 4.35635 0
M  V30 2910 H 291.393 1.09543 4.10951 0
M  V30 2911 N 289.708 -1.40897 0.706093 0
M  V30 2912 C 290.658 -2.27987 0.0240746 0
M  V30 2913 C 291.642 -1.42759 -0.742204 0
M  V30 2914 O 292.834 -1.65936 -0.615966 0
M  V30 2915 C 289.963 -3.31186 -0.903907 0
M  V30 2916 C 289.049 -4.2389 -0.133318 0
M  V30 2917 N 289.44 -4.98113 0.878444 0
M  V30 2918 C 287.738 -4.44485 -0.367269 0
M  V30 2919 C 288.439 -5.6604 1.34064 0
M  V30 2920 N 287.415 -5.39522 0.664565 0
M  V30 2921 H 291.217 -2.82812 0.799658 0
M  V30 2922 H 288.731 -1.53235 0.537845 0
M  V30 2923 H 290.728 -3.92413 -1.40775 0
M  V30 2924 H 289.388 -2.77922 -1.67897 0
M  V30 2925 H 290.399 -5.02364 1.25901 0
M  V30 2926 H 287.076 -4.02213 -1.1194 0
M  V30 2927 H 288.466 -6.35524 2.1808 0
M  V30 2928 N 291.186 -0.45159 -1.50991 0
M  V30 2929 C 292.119 0.398179 -2.24699 0
M  V30 2930 C 293.097 1.01276 -1.27208 0
M  V30 2931 O 294.281 1.05247 -1.56382 0
M  V30 2932 C 291.408 1.55618 -3.00833 0
M  V30 2933 C 290.454 1.0609 -4.13095 0
M  V30 2934 S 291.287 -0.00865136 -5.35499 0
M  V30 2935 C 292.443 1.15369 -6.15175 0
M  V30 2936 H 292.676 -0.227555 -2.96428 0
M  V30 2937 H 290.209 -0.236251 -1.52582 0
M  V30 2938 H 292.167 2.21997 -3.45293 0
M  V30 2939 H 290.828 2.15337 -2.28667 0
M  V30 2940 H 290.021 1.92726 -4.65696 0
M  V30 2941 H 289.623 0.47513 -3.7097 0
M  V30 2942 H 291.915 2.06925 -6.45126 0
M  V30 2943 H 292.858 0.667344 -7.04948 0
M  V30 2944 H 293.266 1.3987 -5.46897 0
M  V30 2945 N 292.664 1.56529 -0.183458 0
M  V30 2946 C 293.596 2.15747 0.773697 0
M  V30 2947 C 294.609 1.1162 1.1851 0
M  V30 2948 O 295.798 1.3876 1.12285 0
M  V30 2949 C 292.898 2.6952 2.05456 0
M  V30 2950 C 292.071 3.98429 1.8048 0
M  V30 2951 C 291.13 4.37145 2.92901 0
M  V30 2952 O 290.156 5.04791 2.6301 0
M  V30 2953 N 291.358 3.99695 4.2098 0
M  V30 2954 H 294.123 2.98505 0.26736 0
M  V30 2955 H 291.684 1.619 -0.0010878 0
M  V30 2956 H 293.676 2.92412 2.79781 0
M  V30 2957 H 292.246 1.91282 2.47245 0
M  V30 2958 H 291.466 3.8379 0.899947 0
M  V30 2959 H 292.754 4.82597 1.61175 0
M  V30 2960 H 292.152 3.4526 4.48121 0
M  V30 2961 H 290.709 4.27562 4.9197 0
M  V30 2962 N 294.142 -0.090211 1.57342 0
M  V30 2963 C 295.092 -1.11557 1.98844 0
M  V30 2964 C 296.076 -1.35503 0.867624 0
M  V30 2965 O 297.268 -1.36113 1.13148 0
M  V30 2966 C 294.397 -2.43446 2.42051 0
M  V30 2967 C 293.483 -2.22853 3.60828 0
M  V30 2968 N 293.874 -1.72141 4.75606 0
M  V30 2969 C 292.172 -2.53401 3.67021 0
M  V30 2970 C 292.873 -1.65932 5.57531 0
M  V30 2971 N 291.849 -2.11323 5.00843 0
M  V30 2972 H 295.651 -0.716499 2.85032 0
M  V30 2973 H 293.165 -0.297567 1.59651 0
M  V30 2974 H 295.162 -3.17644 2.70014 0
M  V30 2975 H 293.822 -2.84087 1.57241 0
M  V30 2976 H 294.833 -1.41268 4.98261 0
M  V30 2977 H 291.51 -2.97532 2.92884 0
M  V30 2978 H 292.9 -1.27733 6.59647 0
M  V30 2979 N 295.62 -1.53406 -0.361157 0
M  V30 2980 C 296.583 -1.79479 -1.42548 0
M  V30 2981 C 297.583 -0.665327 -1.4639 0
M  V30 2982 O 298.773 -0.933549 -1.47073 0
M  V30 2983 C 295.905 -1.92087 -2.8163 0
M  V30 2984 H 297.098 -2.74538 -1.20701 0
M  V30 2985 H 294.651 -1.4455 -0.594546 0
M  V30 2986 H 295.386 -0.991099 -3.08784 0
M  V30 2987 H 295.171 -2.74241 -2.80239 0
M  V30 2988 H 296.661 -2.13836 -3.58697 0
M  V30 2989 N 297.098 0.621204 -1.44841 0
M  V30 2990 C 298.328 1.40548 -1.51426 0
M  V30 2991 C 298.736 1.88673 -0.141083 0
M  V30 2992 O 298.079 1.62053 0.865128 0
M  V30 2993 C 298.141 2.65325 -2.42576 0
M  V30 2994 C 297.805 2.3893 -3.89566 0
M  V30 2995 C 298.802 2.00138 -4.79834 0
M  V30 2996 C 296.487 2.52263 -4.3436 0
M  V30 2997 C 298.481 1.75021 -6.129 0
M  V30 2998 C 296.168 2.2676 -5.67471 0
M  V30 2999 C 297.166 1.88199 -6.56559 0
M  V30 3000 O 296.854 1.62986 -7.87204 0
M  V30 3001 H 296.586 0.437122 -0.515655 0
M  V30 3002 H 299.14 0.765987 -1.90583 0
M  V30 3003 H 297.37 3.31947 -1.98364 0
M  V30 3004 H 299.059 3.27347 -2.39998 0
M  V30 3005 H 299.825 1.89386 -4.46495 0
M  V30 3006 H 295.704 2.81246 -3.65269 0
M  V30 3007 H 299.248 1.44848 -6.82396 0
M  V30 3008 H 295.145 2.37125 -6.00368 0
M  V30 3009 H 295.913 1.7715 -7.991 0
M  V30 3010 N 298.576 1.31904 0.862503 0
M  V30 3011 C 299.853 1.12644 1.59908 0
M  V30 3012 C 300.233 -0.316104 2.0872 0
M  V30 3013 O 299.581 -1.31145 1.87118 0
M  V30 3014 C 299.791 2.1472 2.7513 0
M  V30 3015 C 301.139 2.47637 3.44907 0
M  V30 3016 O 302.163 2.13205 2.85346 0
M  V30 3017 O 301.022 3.06632 4.52371 0
M  V30 3018 H 298.116 0.43416 0.703871 0
M  V30 3019 H 300.662 1.43408 0.907314 0
M  V30 3020 H 299.434 3.1172 2.3653 0
M  V30 3021 H 299.057 1.84905 3.51989 0
M  V30 3022 N 300.054 -1.07777 1.14986 0
M  V30 3023 C 301.301 -1.8029 0.922056 0
M  V30 3024 C 301.629 -1.86531 -0.55105 0
M  V30 3025 O 300.884 -1.34189 -1.42449 0
M  V30 3026 C 301.183 -3.25495 1.47608 0
M  V30 3027 C 300.849 -3.39361 2.96893 0
M  V30 3028 C 299.511 -3.42852 3.37647 0
M  V30 3029 C 301.863 -3.42512 3.92854 0
M  V30 3030 C 299.191 -3.47094 4.73015 0
M  V30 3031 C 301.543 -3.4829 5.28088 0
M  V30 3032 C 300.207 -3.50058 5.68345 0
M  V30 3033 H 299.477 -0.659727 0.337404 0
M  V30 3034 H 302.124 -1.26854 1.43459 0
M  V30 3035 H 300.429 -3.81683 0.88463 0
M  V30 3036 H 302.126 -3.80168 1.27568 0
M  V30 3037 H 298.716 -3.37339 2.64387 0
M  V30 3038 H 302.9 -3.3904 3.62444 0
M  V30 3039 H 298.156 -3.46758 5.03556 0
M  V30 3040 H 302.33 -3.49675 6.02246 0
M  V30 3041 H 299.957 -3.53097 6.73221 0
M  V30 3042 N 301.532 -0.945985 -1.26051 0
M  V30 3043 C 302.762 -0.612136 -1.97323 0
M  V30 3044 C 303.17 0.818171 -1.70595 0
M  V30 3045 O 302.513 1.55777 -0.973613 0
M  V30 3046 C 302.575 -0.780347 -3.50929 0
M  V30 3047 C 302.239 -2.18619 -4.01317 0
M  V30 3048 C 303.236 -3.16209 -4.12683 0
M  V30 3049 C 300.921 -2.50805 -4.35203 0
M  V30 3050 C 302.915 -4.44085 -4.57238 0
M  V30 3051 C 300.602 -3.78912 -4.79446 0
M  V30 3052 C 301.6 -4.75365 -4.90425 0
M  V30 3053 O 301.288 -6.01191 -5.3369 0
M  V30 3054 H 301.02 -0.229134 -0.635982 0
M  V30 3055 H 303.574 -1.27036 -1.61404 0
M  V30 3056 H 301.804 -0.0649864 -3.86645 0
M  V30 3057 H 303.493 -0.448842 -4.03411 0
M  V30 3058 H 304.259 -2.92668 -3.86744 0
M  V30 3059 H 300.138 -1.76463 -4.2589 0
M  V30 3060 H 303.682 -5.19373 -4.65723 0
M  V30 3061 H 299.579 -4.02265 -5.0483 0
M  V30 3062 H 300.347 -6.04442 -5.51899 0
M  V30 3063 N 303.011 1.40521 -0.713556 0
M  V30 3064 C 303.958 2.30723 -0.059684 0
M  V30 3065 C 304.928 1.48079 0.752448 0
M  V30 3066 O 306.113 1.76823 0.71681 0
M  V30 3067 C 303.253 3.34274 0.857594 0
M  V30 3068 C 302.366 4.31986 0.0351536 0
M  V30 3069 C 301.501 5.22605 0.951724 0
M  V30 3070 C 300.54 6.11976 0.123253 0
M  V30 3071 N 299.677 6.9502 0.99459 0
M  V30 3072 H 304.517 2.86074 -0.834596 0
M  V30 3073 H 302.054 1.40879 -0.42326 0
M  V30 3074 H 304.012 3.92879 1.40364 0
M  V30 3075 H 302.642 2.8043 1.59871 0
M  V30 3076 H 301.694 3.7518 -0.628052 0
M  V30 3077 H 303.006 4.95101 -0.606347 0
M  V30 3078 H 302.16 5.86131 1.56638 0
M  V30 3079 H 300.899 4.59759 1.62705 0
M  V30 3080 H 299.904 5.47482 -0.50435 0
M  V30 3081 H 301.129 6.76881 -0.548539 0
M  V30 3082 H 299.075 6.34764 1.6556 0
M  V30 3083 H 298.992 7.54892 0.40908 0
M  V30 3084 H 300.26 7.62997 1.59549 0
M  V30 3085 N 304.489 0.459591 1.5075 0
M  V30 3086 C 305.9 0.00171547 1.867 0
M  V30 3087 C 306.251 -1.39934 1.37525 0
M  V30 3088 O 305.376 -2.03523 0.735349 0
M  V30 3089 C 305.971 -0.00366298 3.388 0
M  V30 3090 C 304.53 -0.406026 3.74204 0
M  V30 3091 C 303.677 0.38673 2.7459 0
M  V30 3092 H 306.628 0.674413 1.43657 0
M  V30 3093 H 306.649 -0.808371 3.71814 0
M  V30 3094 H 306.161 1.01617 3.74561 0
M  V30 3095 H 304.262 -1.43063 3.4404 0
M  V30 3096 H 304.375 -0.115362 4.78961 0
M  V30 3097 H 302.739 -0.158019 2.54209 0
M  V30 3098 H 303.522 1.40585 3.13194 0
M  V30 3099 N 305.967 -1.56429 0.191757 0
M  V30 3100 C 307.244 -1.89224 -0.495332 0
M  V30 3101 C 307.624 -1.10478 -1.79883 0
M  V30 3102 O 306.972 -0.204852 -2.2758 0
M  V30 3103 C 307.182 -3.41548 -0.717367 0
M  V30 3104 C 308.53 -4.11711 -1.03823 0
M  V30 3105 O 309.554 -3.4698 -0.805204 0
M  V30 3106 O 308.413 -5.2611 -1.47887 0
M  V30 3107 H 305.507 -0.785788 -0.25781 0
M  V30 3108 H 308.053 -1.68111 0.231721 0
M  V30 3109 H 306.825 -3.90772 0.203287 0
M  V30 3110 H 306.448 -3.68342 -1.497 0
M  V30 3111 N 307.445 0.0818655 -1.57387 0
M  V30 3112 C 308.378 1.12986 -1.98266 0
M  V30 3113 C 309.356 1.38123 -0.857954 0
M  V30 3114 O 310.54 1.51663 -1.1194 0
M  V30 3115 C 307.667 2.47632 -2.31076 0
M  V30 3116 C 306.713 2.38693 -3.53452 0
M  V30 3117 S 307.546 1.79071 -5.04672 0
M  V30 3118 C 308.702 3.15316 -5.40673 0
M  V30 3119 H 308.935 0.781435 -2.86846 0
M  V30 3120 H 306.468 0.290034 -1.51651 0
M  V30 3121 H 308.426 3.25089 -2.50654 0
M  V30 3122 H 307.087 2.79638 -1.43043 0
M  V30 3123 H 306.28 3.37964 -3.73893 0
M  V30 3124 H 305.882 1.69369 -3.33452 0
M  V30 3125 H 308.174 4.11613 -5.38127 0
M  V30 3126 H 309.117 2.99664 -6.41566 0
M  V30 3127 H 309.525 3.15457 -4.68132 0
M  V30 3128 N 308.923 1.53595 0.353017 0
M  V30 3129 C 309.853 1.83902 1.43883 0
M  V30 3130 C 310.834 0.693421 1.55324 0
M  V30 3131 O 312.019 0.944452 1.69687 0
M  V30 3132 C 309.149 2.04016 2.8106 0
M  V30 3133 C 308.103 3.19814 2.84434 0
M  V30 3134 C 307.429 3.25244 4.24406 0
M  V30 3135 C 308.729 4.58133 2.50822 0
M  V30 3136 H 310.423 2.74835 1.1877 0
M  V30 3137 H 307.969 1.32242 0.569917 0
M  V30 3138 H 309.922 2.238 3.57059 0
M  V30 3139 H 308.646 1.09804 3.07588 0
M  V30 3140 H 307.305 2.9987 2.10887 0
M  V30 3141 H 306.953 2.28646 4.48029 0
M  V30 3142 H 306.653 4.03054 4.27576 0
M  V30 3143 H 308.177 3.47228 5.0226 0
M  V30 3144 H 309.591 4.77995 3.16534 0
M  V30 3145 H 307.988 5.38276 2.6529 0
M  V30 3146 H 309.058 4.62387 1.46034 0
M  V30 3147 N 310.401 -0.613514 1.45168 0
M  V30 3148 C 311.626 -1.40437 1.52618 0
M  V30 3149 C 312.051 -1.87438 0.157707 0
M  V30 3150 O 311.409 -1.59791 -0.856537 0
M  V30 3151 C 311.457 -2.58894 2.51011 0
M  V30 3152 O 310.561 -3.59326 2.02382 0
M  V30 3153 H 309.902 -0.419506 0.514695 0
M  V30 3154 H 312.432 -0.747215 1.90467 0
M  V30 3155 H 312.442 -3.06214 2.69624 0
M  V30 3156 H 311.117 -2.24032 3.50403 0
M  V30 3157 H 309.694 -3.18695 1.93618 0
M  V30 3158 N 311.879 -1.3236 -0.855495 0
M  V30 3159 C 312.789 -1.23221 -1.99634 0
M  V30 3160 C 313.805 -0.145983 -1.73387 0
M  V30 3161 O 314.981 -0.366502 -1.98037 0
M  V30 3162 C 312.046 -0.954782 -3.33294 0
M  V30 3163 C 311.107 -2.12937 -3.72769 0
M  V30 3164 C 310.34 -1.86508 -5.00051 0
M  V30 3165 O 310.563 -0.807231 -5.64659 0
M  V30 3166 O 309.497 -2.72591 -5.36636 0
M  V30 3167 H 313.323 -2.19126 -2.1028 0
M  V30 3168 H 310.908 -1.12241 -0.986018 0
M  V30 3169 H 312.79 -0.816519 -4.13414 0
M  V30 3170 H 311.465 -0.0258854 -3.2369 0
M  V30 3171 H 310.372 -2.3231 -2.93228 0
M  V30 3172 H 311.705 -3.04102 -3.87018 0
M  V30 3173 N 313.357 1.07166 -1.15556 0
M  V30 3174 C 314.587 1.83248 -0.954133 0
M  V30 3175 C 314.995 1.82449 0.500911 0
M  V30 3176 O 314.338 1.23575 1.35923 0
M  V30 3177 C 314.4 3.31393 -1.39351 0
M  V30 3178 C 314.064 3.5591 -2.86666 0
M  V30 3179 C 315.061 3.49695 -3.8472 0
M  V30 3180 C 312.746 3.83515 -3.24379 0
M  V30 3181 C 314.74 3.70737 -5.18491 0
M  V30 3182 C 312.427 4.04209 -4.58321 0
M  V30 3183 C 313.425 3.97815 -5.55186 0
M  V30 3184 O 313.113 4.17954 -6.86709 0
M  V30 3185 H 312.845 0.584941 -0.338851 0
M  V30 3186 H 315.399 1.36169 -1.53777 0
M  V30 3187 H 313.629 3.79292 -0.75329 0
M  V30 3188 H 315.318 3.88945 -1.16089 0
M  V30 3189 H 316.084 3.28368 -3.56931 0
M  V30 3190 H 311.963 3.87605 -2.49567 0
M  V30 3191 H 315.507 3.65663 -5.94085 0
M  V30 3192 H 311.404 4.25023 -4.85825 0
M  V30 3193 H 312.172 4.35291 -6.93155 0
M  V30 3194 N 314.835 0.952656 1.25548 0
M  V30 3195 C 316.246 0.647392 1.75116 0
M  V30 3196 C 316.597 -0.837274 1.77438 0
M  V30 3197 O 315.722 -1.65525 1.39393 0
M  V30 3198 C 316.317 1.16845 3.18014 0
M  V30 3199 C 314.876 0.913382 3.6515 0
M  V30 3200 C 314.023 1.31265 2.44264 0
M  V30 3201 H 316.974 1.12968 1.11462 0
M  V30 3202 H 316.995 0.527606 3.76824 0
M  V30 3203 H 316.507 2.24902 3.16292 0
M  V30 3204 H 314.608 -0.152316 3.72289 0
M  V30 3205 H 314.721 1.54845 4.53387 0
M  V30 3206 H 313.085 0.731028 2.43984 0
M  V30 3207 H 313.868 2.40239 2.45234 0
M  V30 3208 N 316.313 -1.40141 0.720998 0
M  V30 3209 C 317.562 -2.0002 0.259804 0
M  V30 3210 C 317.875 -1.57839 -1.15526 0
M  V30 3211 O 319.081 -2.10455 -1.71525 0
M  V30 3212 C 317.537 -3.57516 0.413566 0
M  V30 3213 C 317.145 -4.08667 1.83562 0
M  V30 3214 C 318.889 -4.24498 0.0134387 0
M  V30 3215 C 316.796 -5.58686 1.93968 0
M  V30 3216 H 315.726 -0.748195 0.0933806 0
M  V30 3217 H 318.377 -1.60313 0.892866 0
M  V30 3218 H 316.759 -3.9495 -0.288169 0
M  V30 3219 H 317.933 -3.82598 2.56817 0
M  V30 3220 H 316.248 -3.543 2.1877 0
M  V30 3221 H 318.845 -5.34654 0.0703954 0
M  V30 3222 H 319.188 -4.03375 -1.02927 0
M  V30 3223 H 319.721 -3.92188 0.665815 0
M  V30 3224 H 316.46 -5.8467 2.96379 0
M  V30 3225 H 315.98 -5.86602 1.25131 0
M  V30 3226 H 317.659 -6.23875 1.71431 0
M  V30 3227 N 317.792 -0.46758 -1.50504 0
M  V30 3228 C 319.038 0.0887532 -2.02606 0
M  V30 3229 C 319.371 1.39686 -1.34913 0
M  V30 3230 O 318.646 1.88644 -0.473694 0
M  V30 3231 C 318.929 0.276206 -3.59039 0
M  V30 3232 C 318.782 -1.05267 -4.37309 0
M  V30 3233 C 320.101 1.03235 -4.27821 0
M  V30 3234 H 317.22 0.0307814 -0.736357 0
M  V30 3235 H 319.862 -0.612485 -1.79857 0
M  V30 3236 H 318.012 0.8735 -3.78553 0
M  V30 3237 H 319.684 -1.68628 -4.29374 0
M  V30 3238 H 317.927 -1.65015 -4.01189 0
M  V30 3239 H 318.598 -0.875197 -5.45018 0
M  V30 3240 H 321.074 0.526111 -4.12761 0
M  V30 3241 H 319.95 1.1323 -5.37094 0
M  V30 3242 H 320.211 2.06806 -3.90748 0
M  V30 3243 N 319.27 1.56325 -0.20005 0
M  V30 3244 C 320.547 1.89484 0.48529 0
M  V30 3245 C 320.927 1.1143 1.79294 0
M  V30 3246 O 320.275 0.216919 2.27468 0
M  V30 3247 C 320.485 3.41923 0.699243 0
M  V30 3248 C 321.833 4.12256 1.01638 0
M  V30 3249 O 322.857 3.47402 0.786792 0
M  V30 3250 O 321.716 5.26887 1.45095 0
M  V30 3251 H 318.81 0.787144 0.253639 0
M  V30 3252 H 321.356 1.67985 -0.240633 0
M  V30 3253 H 320.128 3.90658 -0.224008 0
M  V30 3254 H 319.751 3.69131 1.47744 0
M  V30 3255 N 320.748 -0.0735177 1.57428 0
M  V30 3256 C 321.996 -0.771472 1.86796 0
M  V30 3257 C 322.317 -1.78201 0.791804 0
M  V30 3258 O 321.587 -1.95074 -0.179718 0
M  V30 3259 H 320.167 -0.28791 0.689287 0
M  V30 3260 H 322.829 -0.0500161 1.94836 0
M  V30 3261 H 321.925 -1.28874 2.8425 0
M  V30 3262 N 322.226 -1.5378 -0.344866 0
M  V30 3263 C 323.173 -1.81676 -1.42346 0
M  V30 3264 C 324.143 -0.662376 -1.52321 0
M  V30 3265 O 325.328 -0.906675 -1.67881 0
M  V30 3266 C 322.468 -2.03087 -2.79015 0
M  V30 3267 C 321.581 -3.30799 -2.77842 0
M  V30 3268 C 320.716 -3.42285 -4.0622 0
M  V30 3269 C 319.755 -4.6395 -3.9927 0
M  V30 3270 N 318.892 -4.72477 -5.19336 0
M  V30 3271 H 323.732 -2.73703 -1.17858 0
M  V30 3272 H 321.269 -1.35568 -0.570949 0
M  V30 3273 H 323.227 -2.1349 -3.58438 0
M  V30 3274 H 321.857 -1.14375 -3.01858 0
M  V30 3275 H 320.909 -3.29244 -1.90533 0
M  V30 3276 H 322.221 -4.20314 -2.68584 0
M  V30 3277 H 321.375 -3.52113 -4.94066 0
M  V30 3278 H 320.114 -2.50823 -4.18258 0
M  V30 3279 H 319.119 -4.54201 -3.09809 0
M  V30 3280 H 320.344 -5.56775 -3.88817 0
M  V30 3281 H 318.29 -3.83924 -5.3192 0
M  V30 3282 H 318.207 -5.55927 -5.12329 0
M  V30 3283 H 319.475 -4.86613 -6.08957 0
M  V30 3284 N 323.704 0.605807 -1.45491 0
M  V30 3285 C 324.634 1.72709 -1.57143 0
M  V30 3286 C 325.615 1.6476 -0.422884 0
M  V30 3287 O 326.8 1.83132 -0.646247 0
M  V30 3288 C 323.93 3.11316 -1.53948 0
M  V30 3289 C 322.884 3.34077 -2.67537 0
M  V30 3290 C 322.21 4.72975 -2.49397 0
M  V30 3291 C 323.51 3.24158 -4.09535 0
M  V30 3292 H 325.204 1.63214 -2.51001 0
M  V30 3293 H 322.75 0.78379 -1.208 0
M  V30 3294 H 324.703 3.89557 -1.60696 0
M  V30 3295 H 323.427 3.21655 -0.566205 0
M  V30 3296 H 322.086 2.58227 -2.6022 0
M  V30 3297 H 321.734 4.8005 -1.50205 0
M  V30 3298 H 321.434 4.8916 -3.25571 0
M  V30 3299 H 322.958 5.53414 -2.58002 0
M  V30 3300 H 324.372 3.92271 -4.18086 0
M  V30 3301 H 322.769 3.51872 -4.86113 0
M  V30 3302 H 323.839 2.2157 -4.31317 0
M  V30 3303 N 325.182 1.32811 0.848464 0
M  V30 3304 C 326.407 1.26882 1.6406 0
M  V30 3305 C 326.832 -0.15913 1.87426 0
M  V30 3306 O 326.19 -1.11258 1.43148 0
M  V30 3307 C 326.238 2.03997 2.97351 0
M  V30 3308 O 325.342 1.39201 3.88197 0
M  V30 3309 H 324.683 0.436982 0.499943 0
M  V30 3310 H 327.213 1.75224 1.0563 0
M  V30 3311 H 327.223 2.14403 3.47124 0
M  V30 3312 H 325.898 3.0783 2.79666 0
M  V30 3313 H 324.475 1.37381 3.46671 0
M  V30 3314 N 326.66 -1.06551 1.16123 0
M  V30 3315 C 327.909 -1.78687 0.935622 0
M  V30 3316 C 328.222 -1.88056 -0.538001 0
M  V30 3317 O 329.428 -2.56794 -0.88143 0
M  V30 3318 C 327.884 -3.21143 1.62466 0
M  V30 3319 C 327.492 -3.19949 3.13587 0
M  V30 3320 C 329.236 -3.9783 1.48092 0
M  V30 3321 C 327.143 -4.57108 3.75241 0
M  V30 3322 H 326.073 -0.669712 0.346412 0
M  V30 3323 H 328.724 -1.19534 1.39226 0
M  V30 3324 H 327.106 -3.80539 1.09572 0
M  V30 3325 H 328.28 -2.70151 3.73303 0
M  V30 3326 H 326.595 -2.5676 3.27816 0
M  V30 3327 H 329.192 -4.99217 1.91538 0
M  V30 3328 H 329.535 -4.14078 0.429507 0
M  V30 3329 H 330.068 -3.4495 1.98127 0
M  V30 3330 H 326.807 -4.46065 4.80319 0
M  V30 3331 H 326.327 -5.07111 3.20309 0
M  V30 3332 H 328.006 -5.26069 3.76644 0
M  V30 3333 N 328.138 -0.959301 -1.25041 0
M  V30 3334 C 329.07 -0.440543 -2.24926 0
M  V30 3335 C 330.083 0.446131 -1.56568 0
M  V30 3336 O 331.272 0.253657 -1.76689 0
M  V30 3337 C 328.372 0.38412 -3.36716 0
M  V30 3338 C 327.545 -0.490658 -4.34639 0
M  V30 3339 C 326.604 0.276587 -5.25473 0
M  V30 3340 O 325.63 -0.326614 -5.68262 0
M  V30 3341 N 326.832 1.56844 -5.5891 0
M  V30 3342 H 329.597 -1.29931 -2.70071 0
M  V30 3343 H 327.158 -0.830181 -1.38995 0
M  V30 3344 H 329.15 0.905228 -3.94446 0
M  V30 3345 H 327.72 1.14377 -2.90924 0
M  V30 3346 H 326.94 -1.19282 -3.7572 0
M  V30 3347 H 328.228 -1.08756 -4.97041 0
M  V30 3348 H 327.626 2.08036 -5.26059 0
M  V30 3349 H 326.183 2.03541 -6.19205 0
M  V30 3350 N 329.616 1.39756 -0.72842 0
M  V30 3351 C 330.856 2.025 -0.278078 0
M  V30 3352 C 331.22 1.5654 1.11173 0
M  V30 3353 O 332.421 2.11435 1.65978 0
M  V30 3354 C 330.692 3.55489 -0.369139 0
M  V30 3355 S 332.251 4.388 0.00232983 0
M  V30 3356 H 329.069 0.702534 -0.109391 0
M  V30 3357 H 331.671 1.70672 -0.95348 0
M  V30 3358 H 330.375 3.86429 -1.38204 0
M  V30 3359 H 329.906 3.92061 0.324308 0
M  V30 3360 H 331.921 4.80954 1.22055 0
M  V30 3361 N 331.094 0.475555 1.50254 0
M  V30 3362 C 332.324 -0.0753399 2.06463 0
M  V30 3363 C 332.732 -1.33661 1.33908 0
M  V30 3364 O 332.075 -1.79219 0.403257 0
M  V30 3365 C 332.137 -0.424921 3.5698 0
M  V30 3366 C 331.801 0.734965 4.51051 0
M  V30 3367 C 332.798 1.61827 4.94073 0
M  V30 3368 C 330.483 0.926557 4.9368 0
M  V30 3369 C 332.477 2.67754 5.78434 0
M  V30 3370 C 330.164 1.98904 5.77824 0
M  V30 3371 C 331.162 2.8629 6.20103 0
M  V30 3372 O 330.85 3.90708 7.02568 0
M  V30 3373 H 330.582 0.00576308 0.675975 0
M  V30 3374 H 333.136 0.664662 1.94349 0
M  V30 3375 H 331.366 -1.21817 3.67012 0
M  V30 3376 H 333.055 -0.911422 3.95535 0
M  V30 3377 H 333.821 1.48196 4.61804 0
M  V30 3378 H 329.7 0.25584 4.6029 0
M  V30 3379 H 333.244 3.35992 6.11355 0
M  V30 3380 H 329.141 2.12541 6.09505 0
M  V30 3381 H 329.909 3.87751 7.20827 0
M  V30 3382 N 332.573 -1.56217 0.208337 0
M  V30 3383 C 333.503 -2.22694 -0.702116 0
M  V30 3384 C 334.484 -1.19432 -1.2112 0
M  V30 3385 O 335.669 -1.47978 -1.25762 0
M  V30 3386 C 332.799 -2.8966 -1.9161 0
M  V30 3387 C 331.753 -3.9928 -1.5414 0
M  V30 3388 C 331.079 -4.53476 -2.83308 0
M  V30 3389 C 332.379 -5.17012 -0.741339 0
M  V30 3390 H 334.073 -2.99034 -0.147898 0
M  V30 3391 H 331.619 -1.43831 -0.0696951 0
M  V30 3392 H 333.572 -3.34852 -2.55836 0
M  V30 3393 H 332.296 -2.10746 -2.49507 0
M  V30 3394 H 330.955 -3.54799 -0.922668 0
M  V30 3395 H 330.603 -3.71308 -3.39322 0
M  V30 3396 H 330.303 -5.27451 -2.58976 0
M  V30 3397 H 331.827 -5.01378 -3.485 0
M  V30 3398 H 333.241 -5.58667 -1.28699 0
M  V30 3399 H 331.638 -5.97137 -0.595627 0
M  V30 3400 H 332.708 -4.8423 0.254851 0
M  V30 3401 N 334.051 0.0651679 -1.57465 0
M  V30 3402 C 335.276 0.779605 -1.9219 0
M  V30 3403 C 335.701 1.69988 -0.805333 0
M  V30 3404 O 335.059 1.79685 0.241435 0
M  V30 3405 C 335.107 1.54364 -3.2589 0
M  V30 3406 O 334.211 2.65474 -3.1559 0
M  V30 3407 H 333.552 0.212249 -0.629163 0
M  V30 3408 H 336.082 0.0314294 -2.04576 0
M  V30 3409 H 336.092 1.92146 -3.59922 0
M  V30 3410 H 334.767 0.868457 -4.06732 0
M  V30 3411 H 333.344 2.30501 -2.93128 0
M  V30 3412 N 335.529 1.53961 0.336706 0
M  V30 3413 C 336.492 1.81724 1.39675 0
M  V30 3414 C 337.492 0.688532 1.45313 0
M  V30 3415 O 338.682 0.956829 1.45569 0
M  V30 3416 C 335.814 1.96543 2.78538 0
M  V30 3417 H 337.007 2.76424 1.16318 0
M  V30 3418 H 334.56 1.45478 0.571474 0
M  V30 3419 H 335.295 1.0401 3.07168 0
M  V30 3420 H 335.08 2.78665 2.75841 0
M  V30 3421 H 336.57 2.19516 3.5525 0
M  V30 3422 N 337.007 -0.598083 1.45811 0
M  V30 3423 C 337.937 -1.71873 1.58057 0
M  V30 3424 C 338.918 -1.64533 0.431615 0
M  V30 3425 O 340.103 -1.82787 0.65595 0
M  V30 3426 C 337.233 -3.10495 1.55597 0
M  V30 3427 C 336.187 -3.32654 2.69305 0
M  V30 3428 C 335.513 -4.71646 2.51902 0
M  V30 3429 C 336.813 -3.21981 4.11248 0
M  V30 3430 H 338.507 -1.61881 2.51863 0
M  V30 3431 H 336.053 -0.777372 1.21214 0
M  V30 3432 H 338.006 -3.88699 1.6276 0
M  V30 3433 H 336.73 -3.2135 0.583255 0
M  V30 3434 H 335.389 -2.56843 2.61586 0
M  V30 3435 H 335.037 -4.79246 1.52748 0
M  V30 3436 H 334.737 -4.87426 3.2816 0
M  V30 3437 H 336.261 -5.52038 2.60933 0
M  V30 3438 H 337.675 -3.90049 4.20161 0
M  V30 3439 H 336.072 -3.49289 4.87972 0
M  V30 3440 H 337.142 -2.1928 4.32486 0
M  V30 3441 N 338.485 -1.33259 -0.841409 0
M  V30 3442 C 339.762 -1.15174 -1.58096 0
M  V30 3443 C 340.142 0.282858 -2.09196 0
M  V30 3444 O 339.49 1.28151 -1.89181 0
M  V30 3445 C 339.7 -2.1907 -2.71679 0
M  V30 3446 C 341.048 -2.53093 -3.40924 0
M  V30 3447 O 342.072 -2.17717 -2.81918 0
M  V30 3448 O 340.931 -3.1379 -4.47435 0
M  V30 3449 H 338.025 -0.445303 -0.696875 0
M  V30 3450 H 340.571 -1.44833 -0.884385 0
M  V30 3451 H 339.343 -3.15443 -2.31541 0
M  V30 3452 H 338.966 -1.90481 -3.49002 0
M  V30 3453 N 339.963 1.05934 -1.16686 0
M  V30 3454 C 341.379 1.30938 -0.912542 0
M  V30 3455 C 341.579 1.96803 0.432533 0
M  V30 3456 O 340.635 2.23693 1.17123 0
M  V30 3457 C 341.948 2.18649 -2.06429 0
M  V30 3458 C 343.496 2.32055 -2.10047 0
M  V30 3459 C 343.971 3.23122 -3.24586 0
M  V30 3460 N 345.462 3.30706 -3.24327 0
M  V30 3461 C 346.197 4.01273 -4.09594 0
M  V30 3462 N 345.693 4.74332 -5.04956 0
M  V30 3463 N 347.486 3.97361 -3.97569 0
M  V30 3464 H 339.637 0.615777 -2.03278 0
M  V30 3465 H 341.9 0.334077 -0.887185 0
M  V30 3466 H 341.606 1.77534 -3.03603 0
M  V30 3467 H 341.48 3.19252 -2.00894 0
M  V30 3468 H 343.867 2.72415 -1.13464 0
M  V30 3469 H 343.948 1.31107 -2.19647 0
M  V30 3470 H 343.592 2.83477 -4.2143 0
M  V30 3471 H 343.522 4.24057 -3.12223 0
M  V30 3472 H 346.013 2.78644 -2.55276 0
M  V30 3473 H 346.326 5.25716 -5.6643 0
M  V30 3474 H 344.671 4.733 -5.08933 0
M  V30 3475 H 347.862 3.39405 -3.22369 0
M  V30 3476 H 348.035 4.52089 -4.64241 0
M  V30 3477 N 341.441 0.965919 1.2453 0
M  V30 3478 C 342.681 0.634656 1.94297 0
M  V30 3479 C 343.045 -0.814822 1.73852 0
M  V30 3480 O 344.246 -1.25622 2.3764 0
M  V30 3481 C 342.517 0.99702 3.43212 0
M  V30 3482 S 344.076 0.780038 4.31811 0
M  V30 3483 H 340.894 0.232893 0.671775 0
M  V30 3484 H 343.496 1.24249 1.50938 0
M  V30 3485 H 342.2 2.04886 3.55598 0
M  V30 3486 H 341.731 0.379888 3.91562 0
M  V30 3487 H 343.746 -0.343512 4.9501 0
M  V30 3488 N 342.919 -1.39368 0.735821 0
M  V30 3489 C 344.149 -2.04498 0.293967 0
M  V30 3490 C 344.557 -1.55593 -1.07645 0
M  V30 3491 O 343.9 -0.716324 -1.69158 0
M  V30 3492 C 343.962 -3.58836 0.218342 0
M  V30 3493 C 343.626 -4.30721 1.52736 0
M  V30 3494 C 344.623 -4.57305 2.47322 0
M  V30 3495 C 342.308 -4.69251 1.79189 0
M  V30 3496 C 344.302 -5.21429 3.66593 0
M  V30 3497 C 341.989 -5.33104 2.98737 0
M  V30 3498 C 342.987 -5.59125 3.9226 0
M  V30 3499 O 342.675 -6.21653 5.09708 0
M  V30 3500 H 342.407 -0.664118 0.126189 0
M  V30 3501 H 344.961 -1.79385 1.00051 0
M  V30 3502 H 343.191 -3.8285 -0.544314 0
M  V30 3503 H 344.88 -4.05447 -0.191626 0
M  V30 3504 H 345.646 -4.27983 2.28156 0
M  V30 3505 H 341.525 -4.48354 1.07239 0
M  V30 3506 H 345.069 -5.41656 4.39607 0
M  V30 3507 H 340.966 -5.61846 3.17803 0
M  V30 3508 H 341.734 -6.40146 5.10054 0
M  V30 3509 N 344.397 -0.483516 -1.5 0
M  V30 3510 C 345.622 0.0667119 -2.07293 0
M  V30 3511 C 346.047 1.3164 -1.3436 0
M  V30 3512 O 345.405 1.76945 -0.394987 0
M  V30 3513 C 345.453 0.321126 -3.59167 0
M  V30 3514 O 344.557 1.39927 -3.87936 0
M  V30 3515 H 343.898 -0.0184758 -0.663743 0
M  V30 3516 H 346.428 -0.678125 -1.93035 0
M  V30 3517 H 346.438 0.557906 -4.04168 0
M  V30 3518 H 345.113 -0.592007 -4.11665 0
M  V30 3519 H 343.69 1.14882 -3.54763 0
M  V30 3520 N 345.875 1.56104 -0.216619 0
M  V30 3521 C 347.121 1.98466 0.417033 0
M  V30 3522 C 347.454 1.10403 1.59765 0
M  V30 3523 O 346.729 0.160632 1.93836 0
M  V30 3524 C 347.012 3.49769 0.85637 0
M  V30 3525 C 346.865 4.48606 -0.327546 0
M  V30 3526 C 348.184 4.05339 1.7143 0
M  V30 3527 H 345.303 0.721551 0.150112 0
M  V30 3528 H 347.945 1.87423 -0.311864 0
M  V30 3529 H 346.095 3.5931 1.47745 0
M  V30 3530 H 347.767 4.5108 -0.965618 0
M  V30 3531 H 346.01 4.22682 -0.975805 0
M  V30 3532 H 346.681 5.51995 0.0227149 0
M  V30 3533 H 349.157 3.98712 1.19031 0
M  V30 3534 H 348.033 5.11533 1.99061 0
M  V30 3535 H 348.294 3.51918 2.67593 0
M  V30 3536 N 347.353 -0.0568162 1.57498 0
M  V30 3537 C 348.583 -0.764515 1.91934 0
M  V30 3538 C 348.991 -1.70877 0.81227 0
M  V30 3539 O 348.334 -1.82351 -0.222213 0
M  V30 3540 C 348.396 -1.5994 3.21962 0
M  V30 3541 C 348.06 -0.822925 4.4953 0
M  V30 3542 C 349.057 -0.135464 5.19723 0
M  V30 3543 C 346.742 -0.785666 4.96117 0
M  V30 3544 C 348.736 0.578861 6.34766 0
M  V30 3545 C 346.423 -0.0675784 6.11063 0
M  V30 3546 C 347.421 0.613471 6.80239 0
M  V30 3547 O 347.109 1.31996 7.92989 0
M  V30 3548 H 346.841 -0.221647 0.63863 0
M  V30 3549 H 349.395 -0.0268218 2.05382 0
M  V30 3550 H 347.625 -2.38026 3.04763 0
M  V30 3551 H 349.314 -2.18715 3.41934 0
M  V30 3552 H 350.08 -0.155458 4.84751 0
M  V30 3553 H 345.959 -1.30524 4.42136 0
M  V30 3554 H 349.503 1.111 6.88696 0
M  V30 3555 H 345.4 -0.0455636 6.45484 0
M  V30 3556 H 346.168 1.23077 8.09194 0
M  V30 3557 N 348.832 -1.54138 -0.328536 0
M  V30 3558 C 350.072 -1.73827 -1.07534 0
M  V30 3559 C 350.436 -0.498777 -1.85408 0
M  V30 3560 O 351.637 -0.572937 -2.62623 0
M  V30 3561 C 349.908 -2.97573 -1.97952 0
M  V30 3562 S 351.467 -3.38143 -2.79652 0
M  V30 3563 H 348.285 -0.611287 -0.36311 0
M  V30 3564 H 350.887 -1.92306 -0.351931 0
M  V30 3565 H 349.591 -3.85939 -1.39569 0
M  V30 3566 H 349.122 -2.81603 -2.74706 0
M  V30 3567 H 351.137 -2.93052 -4.00418 0
M  V30 3568 N 350.31 0.590341 -1.46126 0
M  V30 3569 C 351.257 1.69994 -1.56111 0
M  V30 3570 C 352.227 1.61065 -0.405867 0
M  V30 3571 O 353.412 1.8039 -0.621613 0
M  V30 3572 C 350.552 3.08326 -1.55013 0
M  V30 3573 C 349.665 3.27936 -2.81215 0
M  V30 3574 C 348.8 4.56473 -2.71673 0
M  V30 3575 C 347.839 4.694 -3.92849 0
M  V30 3576 N 346.976 5.89254 -3.81738 0
M  V30 3577 H 351.816 1.60797 -2.50895 0
M  V30 3578 H 349.353 0.783799 -1.24479 0
M  V30 3579 H 351.311 3.88383 -1.52362 0
M  V30 3580 H 349.941 3.16439 -0.637667 0
M  V30 3581 H 348.993 2.41536 -2.93879 0
M  V30 3582 H 350.305 3.33357 -3.71045 0
M  V30 3583 H 349.459 5.44748 -2.67085 0
M  V30 3584 H 348.198 4.53477 -1.7947 0
M  V30 3585 H 347.203 3.79544 -3.97777 0
M  V30 3586 H 348.428 4.7418 -4.86138 0
M  V30 3587 H 346.374 5.87271 -2.92317 0
M  V30 3588 H 346.291 5.95911 -4.65217 0
M  V30 3589 H 347.559 6.79981 -3.81112 0
M  V30 3590 N 351.788 1.33704 0.83433 0
M  V30 3591 C 352.735 1.24335 1.94447 0
M  V30 3592 C 353.705 0.120991 1.65659 0
M  V30 3593 O 354.89 0.300035 1.88426 0
M  V30 3594 C 352.03 0.993124 3.30501 0
M  V30 3595 C 351.143 2.20217 3.71657 0
M  V30 3596 C 350.278 1.88572 4.96602 0
M  V30 3597 C 349.317 3.05683 5.30306 0
M  V30 3598 N 348.454 2.73997 6.46429 0
M  V30 3599 H 353.294 2.1928 2.01792 0
M  V30 3600 H 350.831 1.09035 0.987404 0
M  V30 3601 H 352.789 0.828467 4.08892 0
M  V30 3602 H 351.419 0.0803902 3.227 0
M  V30 3603 H 350.471 2.47642 2.88752 0
M  V30 3604 H 351.783 3.07752 3.92543 0
M  V30 3605 H 350.937 1.68776 5.82752 0
M  V30 3606 H 349.676 0.982799 4.77695 0
M  V30 3607 H 348.681 3.26088 4.42659 0
M  V30 3608 H 349.906 3.96737 5.51159 0
M  V30 3609 H 347.852 1.86268 6.28999 0
M  V30 3610 H 347.769 3.55064 6.67432 0
M  V30 3611 H 349.037 2.57679 7.35678 0
M  V30 3612 N 353.266 -1.05314 1.17247 0
M  V30 3613 C 354.515 -1.77685 0.954521 0
M  V30 3614 C 354.828 -1.88616 -0.518025 0
M  V30 3615 O 356.034 -2.57714 -0.854144 0
M  V30 3616 C 354.49 -3.19402 1.65863 0
M  V30 3617 C 354.098 -3.16605 3.16963 0
M  V30 3618 C 355.842 -3.96237 1.52303 0
M  V30 3619 C 353.749 -4.53103 3.80068 0
M  V30 3620 H 352.679 -0.666 0.353496 0
M  V30 3621 H 355.33 -1.1805 1.40486 0
M  V30 3622 H 353.712 -3.79355 1.13602 0
M  V30 3623 H 354.886 -2.66176 3.76148 0
M  V30 3624 H 353.201 -2.53268 3.30521 0
M  V30 3625 H 355.798 -4.97157 1.96822 0
M  V30 3626 H 356.141 -4.136 0.473401 0
M  V30 3627 H 356.674 -3.42829 2.01775 0
M  V30 3628 H 353.413 -4.40946 4.85023 0
M  V30 3629 H 352.933 -5.03686 3.2567 0
M  V30 3630 H 354.612 -5.22045 3.82202 0
M  V30 3631 N 354.744 -0.972509 -1.24016 0
M  V30 3632 C 355.694 -0.477561 -2.22942 0
M  V30 3633 C 356.678 0.44308 -1.54679 0
M  V30 3634 O 357.87 0.273219 -1.74879 0
M  V30 3635 C 354.999 0.226348 -3.42553 0
M  V30 3636 C 354.085 -0.713403 -4.18057 0
M  V30 3637 N 354.476 -1.8527 -4.70647 0
M  V30 3638 C 352.774 -0.525145 -4.42898 0
M  V30 3639 C 353.475 -2.44089 -5.28011 0
M  V30 3640 N 352.451 -1.72556 -5.15486 0
M  V30 3641 H 356.253 -1.34678 -2.61226 0
M  V30 3642 H 353.767 -0.832196 -1.39457 0
M  V30 3643 H 355.764 0.598184 -4.12586 0
M  V30 3644 H 354.424 1.09195 -3.05788 0
M  V30 3645 H 355.435 -2.2341 -4.67235 0
M  V30 3646 H 352.112 0.296096 -4.16449 0
M  V30 3647 H 353.502 -3.40259 -5.79374 0
M  V30 3648 N 356.222 1.38976 -0.743202 0
M  V30 3649 C 357.185 2.28901 -0.117014 0
M  V30 3650 C 358.185 1.46698 0.658503 0
M  V30 3651 O 359.375 1.67274 0.486305 0
M  V30 3652 C 356.507 3.30309 0.84315 0
M  V30 3653 H 357.7 2.8578 -0.909373 0
M  V30 3654 H 355.253 1.47761 -0.509547 0
M  V30 3655 H 355.988 2.785 1.66157 0
M  V30 3656 H 355.773 3.91029 0.289594 0
M  V30 3657 H 357.263 3.97577 1.2776 0
M  V30 3658 N 357.7 0.491464 1.49741 0
M  V30 3659 C 358.632 -0.328609 2.26832 0
M  V30 3660 C 359.645 -0.939113 1.32983 0
M  V30 3661 O 360.834 -0.824067 1.58339 0
M  V30 3662 C 357.934 -1.47675 3.05033 0
M  V30 3663 C 357.107 -0.975305 4.26388 0
M  V30 3664 C 356.166 -1.99991 4.86714 0
M  V30 3665 O 355.192 -1.57229 5.47054 0
M  V30 3666 N 356.394 -3.32962 4.75517 0
M  V30 3667 H 359.159 0.332377 2.97851 0
M  V30 3668 H 356.72 0.323441 1.58636 0
M  V30 3669 H 358.712 -2.15954 3.42266 0
M  V30 3670 H 357.282 -2.04206 2.36683 0
M  V30 3671 H 356.502 -0.117723 3.94024 0
M  V30 3672 H 357.79 -0.618531 5.05026 0
M  V30 3673 H 357.188 -3.70399 4.27576 0
M  V30 3674 H 355.745 -3.96982 5.16961 0
M  V30 3675 N 359.178 -1.55987 0.224894 0
M  V30 3676 C 360.424 -1.99433 -0.39973 0
M  V30 3677 C 360.779 -1.11004 -1.57149 0
M  V30 3678 O 360.072 -0.160725 -1.90925 0
M  V30 3679 C 360.266 -3.46394 -0.880106 0
M  V30 3680 C 360.095 -4.4904 0.243565 0
M  V30 3681 C 358.865 -5.00272 0.711056 0
M  V30 3682 C 361.063 -5.03195 1.06299 0
M  V30 3683 N 359.045 -5.86628 1.80944 0
M  V30 3684 C 360.416 -5.86508 2.01017 0
M  V30 3685 C 362.471 -4.8555 1.10205 0
M  V30 3686 C 361.174 -6.54062 2.99324 0
M  V30 3687 C 363.2 -5.53866 2.07332 0
M  V30 3688 C 362.562 -6.3695 3.00789 0
M  V30 3689 H 358.661 -0.773815 -0.112847 0
M  V30 3690 H 361.245 -1.91754 0.337432 0
M  V30 3691 H 359.416 -3.54515 -1.58662 0
M  V30 3692 H 361.148 -3.76752 -1.47783 0
M  V30 3693 H 357.903 -4.72655 0.29906 0
M  V30 3694 H 358.327 -6.34507 2.36073 0
M  V30 3695 H 362.969 -4.20966 0.39343 0
M  V30 3696 H 360.687 -7.17827 3.71147 0
M  V30 3697 H 364.273 -5.42178 2.11032 0
M  V30 3698 H 363.153 -6.8888 3.74718 0
M  V30 3699 N 360.656 0.0484629 -1.57525 0
M  V30 3700 C 361.588 1.08222 -2.02041 0
M  V30 3701 C 362.601 1.33621 -0.930012 0
M  V30 3702 O 363.79 1.3145 -1.20761 0
M  V30 3703 C 360.89 2.42818 -2.36416 0
M  V30 3704 C 360.063 2.37049 -3.67596 0
M  V30 3705 C 359.122 3.53937 -3.89378 0
M  V30 3706 O 358.148 3.34308 -4.60681 0
M  V30 3707 N 359.35 4.75126 -3.3352 0
M  V30 3708 H 362.115 0.702946 -2.9134 0
M  V30 3709 H 359.676 0.236745 -1.6016 0
M  V30 3710 H 361.668 3.197 -2.48141 0
M  V30 3711 H 360.238 2.72661 -1.52888 0
M  V30 3712 H 359.458 1.45395 -3.66407 0
M  V30 3713 H 360.746 2.30318 -4.53686 0
M  V30 3714 H 360.144 4.93976 -2.75688 0
M  V30 3715 H 358.701 5.49439 -3.50656 0
M  V30 3716 N 362.134 1.5431 0.320358 0
M  V30 3717 C 363.081 1.83918 1.39438 0
M  V30 3718 C 364.051 0.686525 1.51248 0
M  V30 3719 O 365.236 0.933269 1.66417 0
M  V30 3720 C 362.376 2.075 2.75749 0
M  V30 3721 C 361.489 3.35177 2.72544 0
M  V30 3722 C 360.624 3.48704 4.00723 0
M  V30 3723 C 359.663 4.70244 3.91838 0
M  V30 3724 N 358.8 4.80679 5.11754 0
M  V30 3725 H 363.64 2.75544 1.13489 0
M  V30 3726 H 361.177 1.36459 0.549309 0
M  V30 3727 H 363.135 2.19166 3.54996 0
M  V30 3728 H 361.765 1.19163 3 0
M  V30 3729 H 360.817 3.32233 1.85271 0
M  V30 3730 H 362.129 4.24534 2.61863 0
M  V30 3731 H 361.283 3.59928 4.88402 0
M  V30 3732 H 360.022 2.57445 4.14214 0
M  V30 3733 H 359.027 4.59072 3.02544 0
M  V30 3734 H 360.252 5.6289 3.7991 0
M  V30 3735 H 358.198 3.92337 5.25745 0
M  V30 3736 H 358.115 5.64007 5.0342 0
M  V30 3737 H 359.383 4.96239 6.01138 0
M  V30 3738 N 363.613 -0.582584 1.46437 0
M  V30 3739 C 364.523 -1.71949 1.59595 0
M  V30 3740 C 365.539 -1.67264 0.479443 0
M  V30 3741 O 366.715 -1.87171 0.743579 0
M  V30 3742 C 363.78 -3.08452 1.58298 0
M  V30 3743 C 362.841 -3.244 2.81182 0
M  V30 3744 C 362.074 -4.54391 2.79937 0
M  V30 3745 O 362.297 -5.38287 1.8869 0
M  V30 3746 O 361.231 -4.73588 3.71481 0
M  V30 3747 H 365.057 -1.63795 2.55744 0
M  V30 3748 H 362.642 -0.749643 1.29231 0
M  V30 3749 H 364.524 -3.89732 1.60271 0
M  V30 3750 H 363.199 -3.17043 0.653094 0
M  V30 3751 H 362.106 -2.42613 2.84763 0
M  V30 3752 H 363.439 -3.20699 3.7338 0
M  V30 3753 N 365.091 -1.34144 -0.827227 0
M  V30 3754 C 366.339 -1.26009 -1.58007 0
M  V30 3755 C 366.66 0.170971 -1.94249 0
M  V30 3756 O 365.93 1.10256 -1.61927 0
M  V30 3757 H 364.51 -0.463414 -0.585881 0
M  V30 3758 H 367.172 -1.68005 -0.987951 0
M  V30 3759 H 366.268 -1.86187 -2.50481 0
M  V30 3760 N 366.569 1.04691 -1.17803 0
M  V30 3761 C 367.517 2.14665 -0.895635 0
M  V30 3762 C 368.511 1.68806 0.141679 0
M  V30 3763 O 369.717 1.79999 -0.00587914 0
M  V30 3764 H 366.092 0.701038 -0.272121 0
M  V30 3765 H 368.063 2.35685 -1.83017 0
M  V30 3766 C 366.812 3.45019 -0.430962 0
M  V30 3767 H 366.135 3.8071 -1.22064 0
M  V30 3768 H 367.575 4.23125 -0.272301 0
M  V30 3769 C 366.034 3.25943 0.852207 0
M  V30 3770 O 366.564 3.5296 1.91786 0
M  V30 3771 N 364.77 2.79304 0.802346 0
M  V30 3772 H 364.317 2.57518 -0.0650788 0
M  V30 3773 H 364.275 2.66921 1.66134 0
M  V30 3774 N 368.047 0.979072 1.23499 0
M  V30 3775 C 369.324 0.563674 1.87302 0
M  V30 3776 C 369.704 -0.959199 1.88049 0
M  V30 3777 O 369.052 -1.83535 1.36114 0
M  V30 3778 C 369.262 1.16822 3.28867 0
M  V30 3779 C 370.61 1.26014 4.0547 0
M  V30 3780 O 371.634 1.12158 3.38082 0
M  V30 3781 O 370.493 1.48044 5.26066 0
M  V30 3782 H 367.587 0.189602 0.804972 0
M  V30 3783 H 370.133 1.07407 1.31384 0
M  V30 3784 H 368.905 2.21049 3.22883 0
M  V30 3785 H 368.528 0.642564 3.92373 0
M  V30 3786 N 369.525 -1.3858 0.750561 0
M  V30 3787 C 370.472 -2.30483 0.120835 0
M  V30 3788 C 371.442 -1.50022 -0.712923 0
M  V30 3789 O 372.627 -1.78662 -0.669676 0
M  V30 3790 C 369.767 -3.36431 -0.768666 0
M  V30 3791 C 368.88 -4.31927 0.0793922 0
M  V30 3792 C 368.015 -5.24944 -0.81283 0
M  V30 3793 C 367.054 -6.12088 0.0390447 0
M  V30 3794 N 366.191 -6.97412 -0.809969 0
M  V30 3795 H 371.031 -2.83761 0.91015 0
M  V30 3796 H 368.568 -1.39707 0.460463 0
M  V30 3797 H 370.526 -3.96462 -1.29898 0
M  V30 3798 H 369.156 -2.8457 -1.5238 0
M  V30 3799 H 368.208 -3.73382 0.727303 0
M  V30 3800 H 369.52 -4.93319 0.737401 0
M  V30 3801 H 368.674 -5.90078 -1.41042 0
M  V30 3802 H 367.413 -4.63911 -1.50458 0
M  V30 3803 H 366.418 -5.45952 0.649328 0
M  V30 3804 H 367.643 -6.75189 0.727809 0
M  V30 3805 H 365.589 -6.38931 -1.48672 0
M  V30 3806 H 365.506 -7.55712 -0.208789 0
M  V30 3807 H 366.774 -7.66959 -1.39263 0
M  V30 3808 N 371.003 -0.499398 -1.49478 0
M  V30 3809 C 372.28 0.108629 -1.95298 0
M  V30 3810 C 372.66 1.54282 -1.44084 0
M  V30 3811 O 372.008 2.18944 -0.653908 0
M  V30 3812 C 372.218 0.0229111 -3.48992 0
M  V30 3813 C 373.566 0.197643 -4.2414 0
M  V30 3814 O 374.59 0.0981735 -3.56065 0
M  V30 3815 O 373.449 0.401669 -5.45022 0
M  V30 3816 H 370.543 0.096181 -0.821388 0
M  V30 3817 H 373.089 -0.561822 -1.6013 0
M  V30 3818 H 371.861 -0.977321 -3.78899 0
M  V30 3819 H 371.484 0.733579 -3.90774 0
M  V30 3820 N 372.481 1.55866 -0.233164 0
M  V30 3821 C 373.728 1.98603 0.395374 0
M  V30 3822 C 374.056 1.12105 1.58942 0
M  V30 3823 O 373.311 0.168656 1.94972 0
M  V30 3824 C 373.61 3.46856 0.861724 0
M  V30 3825 C 373.276 4.50348 -0.223066 0
M  V30 3826 C 371.938 4.78371 -0.521038 0
M  V30 3827 C 374.29 5.12355 -0.956124 0
M  V30 3828 C 371.618 5.6568 -1.55638 0
M  V30 3829 C 373.97 6.00786 -1.98089 0
M  V30 3830 C 372.634 6.27148 -2.28565 0
M  V30 3831 H 371.904 0.726739 0.144677 0
M  V30 3832 H 374.551 1.88491 -0.338114 0
M  V30 3833 H 372.856 3.5423 1.67418 0
M  V30 3834 H 374.553 3.77302 1.35809 0
M  V30 3835 H 371.143 4.28596 0.0193234 0
M  V30 3836 H 375.327 4.90765 -0.739166 0
M  V30 3837 H 370.583 5.84365 -1.798 0
M  V30 3838 H 374.757 6.4788 -2.55391 0
M  V30 3839 H 372.384 6.94597 -3.08932 0
M  V30 3840 N 373.959 -0.0401083 1.57549 0
M  V30 3841 C 375.187 -0.745196 1.93014 0
M  V30 3842 C 375.602 -1.6948 0.831984 0
M  V30 3843 O 374.959 -1.81482 -0.192463 0
M  V30 3844 C 375.01 -1.51176 3.28372 0
M  V30 3845 O 374.731 -0.600284 4.33968 0
M  V30 3846 C 376.232 -2.315 3.78051 0
M  V30 3847 H 373.452 -0.210088 0.637263 0
M  V30 3848 H 375.996 -0.000924689 2.045 0
M  V30 3849 H 374.151 -2.20801 3.18317 0
M  V30 3850 H 374.565 -1.13669 5.12035 0
M  V30 3851 H 376.039 -2.80697 4.75303 0
M  V30 3852 H 376.516 -3.12436 3.08675 0
M  V30 3853 H 377.122 -1.66971 3.91153 0
M  V30 3854 N 375.437 -1.54477 -0.31217 0
M  V30 3855 C 376.367 -1.87652 -1.38957 0
M  V30 3856 C 377.348 -0.734358 -1.53431 0
M  V30 3857 O 378.533 -0.98911 -1.67123 0
M  V30 3858 C 375.663 -2.11396 -2.75552 0
M  V30 3859 C 374.617 -3.27243 -2.75855 0
M  V30 3860 C 373.943 -3.36382 -4.15633 0
M  V30 3861 C 375.243 -4.64622 -2.38587 0
M  V30 3862 H 376.937 -2.77887 -1.11442 0
M  V30 3863 H 374.483 -1.33707 -0.534655 0
M  V30 3864 H 376.436 -2.33189 -3.51 0
M  V30 3865 H 375.16 -1.17921 -3.04569 0
M  V30 3866 H 373.819 -3.05356 -2.02863 0
M  V30 3867 H 373.467 -2.40445 -4.41809 0
M  V30 3868 H 373.167 -4.14249 -4.1674 0
M  V30 3869 H 374.691 -3.60422 -4.92877 0
M  V30 3870 H 376.105 -4.86219 -3.03749 0
M  V30 3871 H 374.502 -5.45121 -2.50925 0
M  V30 3872 H 375.572 -4.66097 -1.33723 0
M  V30 3873 N 376.915 0.57481 -1.46744 0
M  V30 3874 C 377.863 1.70435 -1.58286 0
M  V30 3875 C 378.857 1.63287 -0.450956 0
M  V30 3876 O 380.063 1.68685 -0.628121 0
M  V30 3877 H 376.438 0.56364 -0.497809 0
M  V30 3878 H 378.409 1.57833 -2.53242 0
M  V30 3879 C 377.158 3.08815 -1.59776 0
M  V30 3880 H 376.481 3.1499 -2.46214 0
M  V30 3881 H 377.921 3.87588 -1.71905 0
M  V30 3882 C 376.38 3.35301 -0.327812 0
M  V30 3883 O 376.91 3.97511 0.57861 0
M  V30 3884 N 375.116 2.89816 -0.213274 0
M  V30 3885 H 374.663 2.39371 -0.951798 0
M  V30 3886 H 374.621 3.0791 0.63553 0
M  V30 3887 N 378.394 1.34581 0.820102 0
M  V30 3888 C 379.671 1.17675 1.56244 0
M  V30 3889 C 380.051 -0.249541 2.0962 0
M  V30 3890 O 379.399 -1.25125 1.91196 0
M  V30 3891 C 379.609 2.23364 2.6816 0
M  V30 3892 C 380.957 2.58485 3.36854 0
M  V30 3893 O 381.981 2.22175 2.78418 0
M  V30 3894 O 380.84 3.20868 4.42386 0
M  V30 3895 H 377.934 0.456333 0.689702 0
M  V30 3896 H 380.48 1.46222 0.861231 0
M  V30 3897 H 379.252 3.19087 2.26493 0
M  V30 3898 H 378.875 1.96009 3.45928 0
M  V30 3899 N 379.872 -1.04064 1.18357 0
M  V30 3900 C 381.119 -1.77265 0.978947 0
M  V30 3901 C 381.447 -1.88189 -0.491428 0
M  V30 3902 O 380.702 -1.38653 -1.38108 0
M  V30 3903 C 381.001 -3.20634 1.57888 0
M  V30 3904 C 380.667 -3.29743 3.07539 0
M  V30 3905 C 379.329 -3.31937 3.48384 0
M  V30 3906 C 381.681 -3.29841 4.03552 0
M  V30 3907 C 379.009 -3.3187 4.83818 0
M  V30 3908 C 381.361 -3.31313 5.38901 0
M  V30 3909 C 380.025 -3.31799 5.79194 0
M  V30 3910 H 379.295 -0.648659 0.358222 0
M  V30 3911 H 381.942 -1.22225 1.47422 0
M  V30 3912 H 380.247 -3.78675 1.00561 0
M  V30 3913 H 381.944 -3.75917 1.39598 0
M  V30 3914 H 378.534 -3.28757 2.74986 0
M  V30 3915 H 382.718 -3.27337 3.73047 0
M  V30 3916 H 377.974 -3.30562 5.14333 0
M  V30 3917 H 382.148 -3.30338 6.13066 0
M  V30 3918 H 379.775 -3.315 6.84114 0
M  V30 3919 N 381.35 -0.985608 -1.22978 0
M  V30 3920 C 382.598 -0.656087 -1.91154 0
M  V30 3921 C 382.919 0.813561 -1.77218 0
M  V30 3922 O 382.189 1.58244 -1.1548 0
M  V30 3923 H 380.769 -0.239674 -0.707506 0
M  V30 3924 H 383.431 -1.25054 -1.49491 0
M  V30 3925 H 382.527 -0.912253 -2.9847 0
M  V30 3926 N 382.828 1.3818 -0.7579 0
M  V30 3927 C 384.075 2.00019 -0.315985 0
M  V30 3928 C 384.403 1.60163 1.10355 0
M  V30 3929 O 383.658 0.83264 1.77103 0
M  V30 3930 C 383.957 3.55252 -0.391218 0
M  V30 3931 C 383.623 4.14834 -1.76702 0
M  V30 3932 C 382.285 4.30821 -2.14353 0
M  V30 3933 C 384.637 4.47658 -2.66931 0
M  V30 3934 C 381.965 4.76928 -3.41696 0
M  V30 3935 C 384.317 4.95184 -3.93669 0
M  V30 3936 C 382.981 5.09377 -4.31383 0
M  V30 3937 H 382.251 0.731923 -0.115627 0
M  V30 3938 H 384.898 1.65161 -0.969223 0
M  V30 3939 H 383.203 3.90273 0.34558 0
M  V30 3940 H 384.9 4.00988 -0.030805 0
M  V30 3941 H 381.49 4.02808 -1.46435 0
M  V30 3942 H 385.674 4.34904 -2.39106 0
M  V30 3943 H 380.93 4.86103 -3.70829 0
M  V30 3944 H 385.104 5.19551 -4.63724 0
M  V30 3945 H 382.731 5.44865 -5.30119 0
M  V30 3946 N 384.306 0.507319 1.49211 0
M  V30 3947 C 385.239 -0.314509 2.26022 0
M  V30 3948 C 386.217 -0.964849 1.30879 0
M  V30 3949 O 387.401 -0.993707 1.6018 0
M  V30 3950 C 384.528 -1.44346 3.06402 0
M  V30 3951 C 383.574 -0.90685 4.16748 0
M  V30 3952 S 384.407 0.207392 5.35098 0
M  V30 3953 C 385.563 -0.924573 6.19033 0
M  V30 3954 H 385.796 0.337416 2.95379 0
M  V30 3955 H 383.329 0.292718 1.516 0
M  V30 3956 H 385.287 -2.09029 3.53295 0
M  V30 3957 H 383.948 -2.06702 2.36502 0
M  V30 3958 H 383.141 -1.75309 4.72528 0
M  V30 3959 H 382.743 -0.33712 3.72478 0
M  V30 3960 H 385.035 -1.82839 6.52362 0
M  V30 3961 H 385.978 -0.405248 7.06939 0
M  V30 3962 H 386.386 -1.19476 5.51712 0
M  V30 3963 N 385.784 -1.5574 0.241426 0
M  V30 3964 C 387.033 -1.97986 -0.385295 0
M  V30 3965 C 387.346 -1.13267 -1.59468 0
M  V30 3966 O 388.552 -1.45501 -2.2922 0
M  V30 3967 C 387.008 -3.52275 -0.736884 0
M  V30 3968 C 386.616 -4.45726 0.450796 0
M  V30 3969 C 388.36 -4.03189 -1.3281 0
M  V30 3970 C 386.267 -5.91352 0.0756662 0
M  V30 3971 H 385.197 -0.739386 -0.147731 0
M  V30 3972 H 387.848 -1.80308 0.340779 0
M  V30 3973 H 386.23 -3.65628 -1.52094 0
M  V30 3974 H 387.404 -4.44131 1.22819 0
M  V30 3975 H 385.719 -4.05264 0.956573 0
M  V30 3976 H 388.316 -5.09505 -1.62201 0
M  V30 3977 H 388.659 -3.50212 -2.25071 0
M  V30 3978 H 389.192 -3.93141 -0.607069 0
M  V30 3979 H 385.931 -6.48354 0.965272 0
M  V30 3980 H 385.451 -5.96095 -0.665635 0
M  V30 3981 H 387.13 -6.46084 -0.344075 0
M  V30 3982 N 387.262 0.0317525 -1.57568 0
M  V30 3983 C 388.509 0.723104 -1.89149 0
M  V30 3984 C 388.837 1.75504 -0.838377 0
M  V30 3985 O 388.092 1.95037 0.160982 0
M  V30 3986 C 388.391 1.43167 -3.27472 0
M  V30 3987 C 388.057 0.535972 -4.47703 0
M  V30 3988 C 386.719 0.289262 -4.8033 0
M  V30 3989 C 389.071 -0.0826125 -5.21135 0
M  V30 3990 C 386.399 -0.584853 -5.83778 0
M  V30 3991 C 388.751 -0.944414 -6.25511 0
M  V30 3992 C 387.415 -1.20061 -6.56614 0
M  V30 3993 H 386.685 0.264602 -0.692146 0
M  V30 3994 H 389.332 -0.0169496 -1.91492 0
M  V30 3995 H 387.637 2.24497 -3.21105 0
M  V30 3996 H 389.334 1.97209 -3.49155 0
M  V30 3997 H 385.924 0.738414 -4.22191 0
M  V30 3998 H 390.108 0.0950302 -4.96209 0
M  V30 3999 H 385.364 -0.79168 -6.06253 0
M  V30 4000 H 389.538 -1.43026 -6.81554 0
M  V30 4001 H 387.165 -1.87967 -7.36595 0
M  V30 4002 N 388.74 1.54641 0.303973 0
M  V30 4003 C 389.69 1.8177 1.37636 0
M  V30 4004 C 390.674 0.674697 1.46071 0
M  V30 4005 O 391.866 0.935251 1.50273 0
M  V30 4006 C 388.995 2.06584 2.74186 0
M  V30 4007 C 388.081 3.2706 2.69986 0
M  V30 4008 N 388.472 4.47682 2.35402 0
M  V30 4009 C 386.77 3.29028 3.01092 0
M  V30 4010 C 387.471 5.29689 2.40426 0
M  V30 4011 N 386.447 4.67339 2.7766 0
M  V30 4012 H 390.249 2.72596 1.09857 0
M  V30 4013 H 387.763 1.541 0.51254 0
M  V30 4014 H 389.76 2.24166 3.51504 0
M  V30 4015 H 388.42 1.17024 3.02879 0
M  V30 4016 H 389.431 4.74336 2.07908 0
M  V30 4017 H 386.108 2.49565 3.34699 0
M  V30 4018 H 387.498 6.3606 2.16512 0
M  V30 4019 N 390.218 -0.567019 1.47046 0
M  V30 4020 C 391.443 -1.3551 1.57009 0
M  V30 4021 C 391.868 -1.86841 0.217259 0
M  V30 4022 O 391.226 -1.62435 -0.805268 0
M  V30 4023 C 391.274 -2.50777 2.5912 0
M  V30 4024 O 390.378 -3.52706 2.13711 0
M  V30 4025 H 389.719 -0.402919 0.52778 0
M  V30 4026 H 392.249 -0.686241 1.92748 0
M  V30 4027 H 392.259 -2.97481 2.79229 0
M  V30 4028 H 390.934 -2.12771 3.57353 0
M  V30 4029 H 389.511 -3.12374 2.03659 0
M  V30 4030 N 391.696 -1.35014 -0.812953 0
M  V30 4031 C 393.107 -1.25035 -1.38648 0
M  V30 4032 C 393.458 0.119967 -1.95833 0
M  V30 4033 O 392.583 1.02069 -1.90816 0
M  V30 4034 C 393.178 -2.26394 -2.52054 0
M  V30 4035 C 391.737 -2.20175 -3.05287 0
M  V30 4036 C 390.884 -2.12451 -1.78213 0
M  V30 4037 H 393.835 -1.46235 -0.616516 0
M  V30 4038 H 393.856 -1.88672 -3.30429 0
M  V30 4039 H 393.368 -3.26116 -2.10404 0
M  V30 4040 H 391.469 -1.23841 -3.51417 0
M  V30 4041 H 391.582 -3.11863 -3.63701 0
M  V30 4042 H 389.946 -1.58328 -1.9951 0
M  V30 4043 H 390.729 -3.14024 -1.38723 0
M  V30 4044 N 393.175 1.03435 -1.18907 0
M  V30 4045 C 394.405 1.8012 -1.01195 0
M  V30 4046 C 394.813 1.8395 0.442613 0
M  V30 4047 O 394.156 1.27836 1.31923 0
M  V30 4048 C 394.218 3.26792 -1.49823 0
M  V30 4049 C 393.882 3.46609 -2.97844 0
M  V30 4050 C 394.879 3.37278 -3.95651 0
M  V30 4051 C 392.564 3.73001 -3.36416 0
M  V30 4052 C 394.558 3.54054 -5.30023 0
M  V30 4053 C 392.245 3.89423 -4.70949 0
M  V30 4054 C 393.243 3.79951 -5.67562 0
M  V30 4055 O 392.931 3.95895 -6.99659 0
M  V30 4056 H 392.663 0.573865 -0.357289 0
M  V30 4057 H 395.217 1.31207 -1.58031 0
M  V30 4058 H 393.447 3.76703 -0.873578 0
M  V30 4059 H 395.136 3.85055 -1.28404 0
M  V30 4060 H 395.902 3.16846 -3.67197 0
M  V30 4061 H 391.781 3.79469 -2.61772 0
M  V30 4062 H 395.325 3.46577 -6.05417 0
M  V30 4063 H 391.222 4.09351 -4.99101 0
M  V30 4064 H 391.99 4.13019 -7.06653 0
M  V30 4065 N 394.653 0.992116 1.22453 0
M  V30 4066 C 395.893 0.675727 1.92907 0
M  V30 4067 C 396.257 -0.777762 1.75542 0
M  V30 4068 O 397.458 -1.20553 2.40251 0
M  V30 4069 C 395.729 1.0696 3.4102 0
M  V30 4070 S 397.288 0.871456 4.30059 0
M  V30 4071 H 394.106 0.247089 0.666684 0
M  V30 4072 H 396.708 1.27423 1.48269 0
M  V30 4073 H 395.412 2.12383 3.51172 0
M  V30 4074 H 394.943 0.462858 3.90668 0
M  V30 4075 H 396.958 -0.238436 4.95627 0
M  V30 4076 N 396.131 -1.37776 0.765217 0
M  V30 4077 C 397.078 -2.30342 0.145274 0
M  V30 4078 C 398.048 -1.5077 -0.696971 0
M  V30 4079 O 399.233 -1.79362 -0.650689 0
M  V30 4080 C 396.373 -3.37227 -0.732939 0
M  V30 4081 C 395.486 -4.31819 0.125199 0
M  V30 4082 C 394.621 -5.25777 -0.757107 0
M  V30 4083 C 393.66 -6.12012 0.103963 0
M  V30 4084 N 392.797 -6.98232 -0.735953 0
M  V30 4085 H 397.637 -2.8278 0.940195 0
M  V30 4086 H 395.174 -1.39211 0.475255 0
M  V30 4087 H 397.132 -3.97818 -1.25686 0
M  V30 4088 H 395.762 -2.86171 -1.49353 0
M  V30 4089 H 394.814 -3.7259 0.766865 0
M  V30 4090 H 396.126 -4.92509 0.789683 0
M  V30 4091 H 395.28 -5.91541 -1.34776 0
M  V30 4092 H 394.019 -4.65481 -1.45529 0
M  V30 4093 H 393.024 -5.45233 0.707197 0
M  V30 4094 H 394.249 -6.74379 0.799381 0
M  V30 4095 H 392.195 -6.40472 -1.41887 0
M  V30 4096 H 392.112 -7.55891 -0.128624 0
M  V30 4097 H 393.38 -7.68393 -1.31121 0
M  V30 4098 N 397.609 -0.515225 -1.4894 0
M  V30 4099 C 398.539 0.244628 -2.32215 0
M  V30 4100 C 399.52 0.949136 -1.41157 0
M  V30 4101 O 400.705 0.937783 -1.70057 0
M  V30 4102 C 397.835 1.30096 -3.22013 0
M  V30 4103 C 396.789 0.715486 -4.21977 0
M  V30 4104 C 396.115 1.87339 -5.00808 0
M  V30 4105 C 397.415 -0.302982 -5.2142 0
M  V30 4106 H 399.109 -0.450501 -2.95991 0
M  V30 4107 H 396.655 -0.218098 -1.42339 0
M  V30 4108 H 398.608 1.84037 -3.79089 0
M  V30 4109 H 397.332 2.02547 -2.56207 0
M  V30 4110 H 395.991 0.197715 -3.66066 0
M  V30 4111 H 395.639 2.58592 -4.31438 0
M  V30 4112 H 395.339 1.48764 -5.68457 0
M  V30 4113 H 396.863 2.41686 -5.60732 0
M  V30 4114 H 398.277 0.148802 -5.73107 0
M  V30 4115 H 396.674 -0.60532 -5.97039 0
M  V30 4116 H 397.744 -1.21395 -4.69459 0
M  V30 4117 N 399.087 1.5561 -0.249682 0
M  V30 4118 C 400.333 1.99306 0.374841 0
M  V30 4119 C 400.666 1.13767 1.57387 0
M  V30 4120 O 399.941 0.201711 1.93451 0
M  V30 4121 C 400.224 3.51507 0.781986 0
M  V30 4122 C 400.077 4.4781 -0.422629 0
M  V30 4123 C 401.396 4.08884 1.62793 0
M  V30 4124 H 398.515 0.724572 0.134773 0
M  V30 4125 H 401.157 1.86719 -0.351549 0
M  V30 4126 H 399.307 3.62363 1.4009 0
M  V30 4127 H 400.979 4.48931 -1.06108 0
M  V30 4128 H 399.222 4.20518 -1.06524 0
M  V30 4129 H 399.893 5.51919 -0.0943766 0
M  V30 4130 H 402.369 4.01147 1.10547 0
M  V30 4131 H 401.245 5.1564 1.88166 0
M  V30 4132 H 401.506 3.57515 2.60068 0
M  V30 4133 N 400.565 -0.0233959 1.57583 0
M  V30 4134 C 401.497 -1.04994 2.03737 0
M  V30 4135 C 402.51 -1.32125 0.951152 0
M  V30 4136 O 403.699 -1.29512 1.22837 0
M  V30 4137 C 400.799 -2.39026 2.40249 0
M  V30 4138 C 399.972 -2.31171 3.7132 0
M  V30 4139 C 399.031 -3.47698 3.94959 0
M  V30 4140 O 398.057 -3.26937 4.65941 0
M  V30 4141 N 399.259 -4.6976 3.41037 0
M  V30 4142 H 402.024 -0.656507 2.92421 0
M  V30 4143 H 399.585 -0.211235 1.60516 0
M  V30 4144 H 401.577 -3.15712 2.53196 0
M  V30 4145 H 400.147 -2.70194 1.57207 0
M  V30 4146 H 399.367 -1.39547 3.68674 0
M  V30 4147 H 400.655 -2.23071 4.57293 0
M  V30 4148 H 400.053 -4.89528 2.83512 0
M  V30 4149 H 398.61 -5.43791 3.59353 0
M  V30 4150 N 402.043 -1.548 -0.295768 0
M  V30 4151 C 402.99 -1.86113 -1.36494 0
M  V30 4152 C 403.96 -0.7105 -1.50137 0
M  V30 4153 O 405.145 -0.959626 -1.64912 0
M  V30 4154 C 402.285 -2.11861 -2.72413 0
M  V30 4155 C 401.398 -3.39471 -2.67177 0
M  V30 4156 C 400.533 -3.55035 -3.95125 0
M  V30 4157 C 399.572 -4.76418 -3.84308 0
M  V30 4158 N 398.709 -4.8876 -5.04042 0
M  V30 4159 H 403.549 -2.77314 -1.09091 0
M  V30 4160 H 401.086 -1.37315 -0.52753 0
M  V30 4161 H 403.044 -2.24786 -3.51464 0
M  V30 4162 H 401.674 -1.2392 -2.98066 0
M  V30 4163 H 400.726 -3.35139 -1.79962 0
M  V30 4164 H 402.038 -4.28646 -2.55076 0
M  V30 4165 H 401.192 -3.67653 -4.82614 0
M  V30 4166 H 399.931 -2.64002 -4.10066 0
M  V30 4167 H 398.936 -4.63827 -2.95202 0
M  V30 4168 H 400.161 -5.68863 -3.70906 0
M  V30 4169 H 398.107 -4.00652 -5.19436 0
M  V30 4170 H 398.024 -5.71945 -4.94384 0
M  V30 4171 H 399.292 -5.0574 -5.93167 0
M  V30 4172 N 403.521 0.559213 -1.47345 0
M  V30 4173 C 404.746 1.34676 -1.57725 0
M  V30 4174 C 405.171 1.86723 -0.227164 0
M  V30 4175 O 404.529 1.6286 0.796642 0
M  V30 4176 C 404.577 2.49399 -2.60447 0
M  V30 4177 O 403.681 3.51567 -2.15578 0
M  V30 4178 H 403.022 0.400115 -0.52991 0
M  V30 4179 H 405.552 0.676009 -1.93109 0
M  V30 4180 H 405.562 2.95996 -2.80803 0
M  V30 4181 H 404.237 2.10873 -3.58477 0
M  V30 4182 H 402.814 3.11289 -2.05313 0
M  V30 4183 N 404.999 1.35443 0.805782 0
M  V30 4184 C 405.929 1.31095 1.93226 0
M  V30 4185 C 406.91 0.185244 1.69088 0
M  V30 4186 O 408.095 0.380332 1.90439 0
M  V30 4187 C 405.225 1.08299 3.29983 0
M  V30 4188 C 404.179 2.17519 3.68605 0
M  V30 4189 C 403.505 1.79887 5.03532 0
M  V30 4190 C 404.805 3.5949 3.78898 0
M  V30 4191 H 406.499 2.25352 1.97122 0
M  V30 4192 H 404.045 1.0848 0.946996 0
M  V30 4193 H 405.998 1.03897 4.08391 0
M  V30 4194 H 404.722 0.104885 3.26432 0
M  V30 4195 H 403.381 2.2102 2.92482 0
M  V30 4196 H 403.029 0.80693 4.96485 0
M  V30 4197 H 402.729 2.53001 5.30344 0
M  V30 4198 H 404.253 1.77011 5.84379 0
M  V30 4199 H 405.667 3.58307 4.47536 0
M  V30 4200 H 404.064 4.31371 4.1718 0
M  V30 4201 H 405.134 3.95584 2.80431 0
M  V30 4202 N 406.477 -1.02803 1.19454 0
M  V30 4203 C 407.44 -2.09264 0.934955 0
M  V30 4204 C 408.44 -1.60576 -0.0849015 0
M  V30 4205 O 409.63 -1.73554 0.149933 0
M  V30 4206 C 406.762 -3.38482 0.40531 0
M  V30 4207 H 407.955 -2.33726 1.87916 0
M  V30 4208 H 405.508 -1.19426 1.00832 0
M  V30 4209 H 406.243 -3.19689 -0.544899 0
M  V30 4210 H 406.028 -3.75142 1.14065 0
M  V30 4211 H 407.518 -4.16894 0.242806 0
M  V30 4212 N 407.956 -0.998596 -1.21925 0
M  V30 4213 C 409.372 -0.710303 -1.42923 0
M  V30 4214 C 409.572 0.716933 -1.88314 0
M  V30 4215 O 408.628 1.48712 -2.04062 0
M  V30 4216 C 409.941 -1.72072 -2.466 0
M  V30 4217 C 411.489 -1.73681 -2.60392 0
M  V30 4218 C 411.964 -2.73601 -3.67296 0
M  V30 4219 N 413.455 -2.7223 -3.7476 0
M  V30 4220 C 414.19 -3.46206 -4.57087 0
M  V30 4221 N 413.686 -4.29802 -5.43362 0
M  V30 4222 N 415.479 -3.34886 -4.51451 0
M  V30 4223 H 407.63 -1.92028 -0.9077 0
M  V30 4224 H 409.893 -0.828487 -0.460775 0
M  V30 4225 H 409.599 -2.74231 -2.20206 0
M  V30 4226 H 409.473 -1.51818 -3.45299 0
M  V30 4227 H 411.86 -0.722173 -2.86127 0
M  V30 4228 H 411.941 -1.98005 -1.61949 0
M  V30 4229 H 411.585 -3.75217 -3.42307 0
M  V30 4230 H 411.515 -2.46545 -4.65321 0
M  V30 4231 H 414.006 -2.11576 -3.1312 0
M  V30 4232 H 414.319 -4.83061 -6.03218 0
M  V30 4233 H 412.664 -4.33887 -5.42925 0
M  V30 4234 H 415.855 -2.69015 -3.83078 0
M  V30 4235 H 416.028 -3.92796 -5.15379 0
M  V30 4236 N 409.434 1.37368 -0.772513 0
M  V30 4237 C 410.367 2.27956 -0.105593 0
M  V30 4238 C 411.345 1.46362 0.708295 0
M  V30 4239 O 412.529 1.75695 0.682895 0
M  V30 4240 C 409.656 3.27687 0.856686 0
M  V30 4241 C 408.702 4.26312 0.1267 0
M  V30 4242 S 409.535 5.22206 -1.1858 0
M  V30 4243 C 410.691 6.25488 -0.227081 0
M  V30 4244 H 410.924 2.84171 -0.87372 0
M  V30 4245 H 408.457 1.43654 -0.565939 0
M  V30 4246 H 410.415 3.85653 1.40648 0
M  V30 4247 H 409.076 2.70417 1.59793 0
M  V30 4248 H 408.269 4.96674 0.856212 0
M  V30 4249 H 407.871 3.72339 -0.352117 0
M  V30 4250 H 410.163 6.74836 0.600231 0
M  V30 4251 H 411.106 7.02371 -0.898899 0
M  V30 4252 H 411.514 5.64267 0.162053 0
M  V30 4253 N 410.912 0.523116 1.48665 0
M  V30 4254 C 411.842 -0.23231 2.32342 0
M  V30 4255 C 412.823 -0.941637 1.41659 0
M  V30 4256 O 414.008 -0.928751 1.70552 0
M  V30 4257 C 411.138 -1.28387 3.22698 0
M  V30 4258 C 410.092 -0.693098 4.22351 0
M  V30 4259 C 409.418 -1.8468 5.01794 0
M  V30 4260 C 410.718 0.33063 5.21252 0
M  V30 4261 H 412.412 0.466192 2.95748 0
M  V30 4262 H 409.958 0.225643 1.42221 0
M  V30 4263 H 411.911 -1.82024 3.80059 0
M  V30 4264 H 410.635 -2.01186 2.57278 0
M  V30 4265 H 409.294 -0.178299 3.66166 0
M  V30 4266 H 408.942 -2.56301 4.32804 0
M  V30 4267 H 408.642 -1.45747 5.69238 0
M  V30 4268 H 410.166 -2.38709 5.62006 0
M  V30 4269 H 411.58 -0.118407 5.73178 0
M  V30 4270 H 409.977 0.636974 5.9671 0
M  V30 4271 H 411.047 1.23883 4.68808 0
M  V30 4272 N 412.39 -1.55475 0.257931 0
M  V30 4273 C 413.32 -2.24815 -0.630912 0
M  V30 4274 C 414.301 -1.23224 -1.17259 0
M  V30 4275 O 415.486 -1.51904 -1.20991 0
M  V30 4276 C 412.616 -2.95609 -1.82298 0
M  V30 4277 C 411.57 -4.03982 -1.41359 0
M  V30 4278 C 410.896 -4.6226 -2.68738 0
M  V30 4279 C 412.196 -5.19109 -0.57648 0
M  V30 4280 H 413.89 -2.99354 -0.0526878 0
M  V30 4281 H 411.436 -1.4398 -0.023901 0
M  V30 4282 H 413.389 -3.42822 -2.45054 0
M  V30 4283 H 412.113 -2.18577 -2.42676 0
M  V30 4284 H 410.772 -3.57555 -0.809324 0
M  V30 4285 H 410.42 -3.81915 -3.27338 0
M  V30 4286 H 410.12 -5.35424 -2.42065 0
M  V30 4287 H 411.644 -5.12212 -3.32372 0
M  V30 4288 H 413.058 -5.62479 -1.10861 0
M  V30 4289 H 411.455 -5.98729 -0.405351 0
M  V30 4290 H 412.525 -4.83174 0.408776 0
M  V30 4291 N 413.868 0.0150385 -1.57593 0
M  V30 4292 C 414.816 1.02958 -2.08572 0
M  V30 4293 C 415.81 1.36554 -1.00246 0
M  V30 4294 O 417.016 1.35295 -1.18724 0
M  V30 4295 H 413.391 0.349619 -0.665786 0
M  V30 4296 H 415.362 0.573932 -2.92829 0
M  V30 4297 C 414.111 2.31752 -2.59203 0
M  V30 4298 H 413.434 2.06765 -3.42182 0
M  V30 4299 H 414.874 3.01053 -2.98568 0
M  V30 4300 C 413.333 3.01692 -1.49945 0
M  V30 4301 O 413.863 3.92083 -0.873704 0
M  V30 4302 N 412.069 2.6326 -1.23056 0
M  V30 4303 H 411.616 1.89838 -1.74125 0
M  V30 4304 H 411.574 3.10372 -0.501685 0
M  V30 4305 N 415.346 1.54954 0.287554 0
M  V30 4306 C 416.623 1.65569 1.04146 0
M  V30 4307 C 417.003 0.512672 2.0478 0
M  V30 4308 O 416.351 -0.489038 2.23205 0
M  V30 4309 C 416.561 3.04163 1.71131 0
M  V30 4310 C 417.909 3.61429 2.22832 0
M  V30 4311 O 418.933 3.06702 1.81141 0
M  V30 4312 O 417.792 4.57281 2.9926 0
M  V30 4313 H 414.886 0.671881 0.482188 0
M  V30 4314 H 417.432 1.67297 0.28457 0
M  V30 4315 H 416.204 3.78796 0.981303 0
M  V30 4316 H 415.827 3.06271 2.53543 0
M  V30 4317 N 416.824 -0.551391 1.4764 0
M  V30 4318 C 418.071 -1.3083 1.54563 0
M  V30 4319 C 418.399 -1.93359 0.210361 0
M  V30 4320 O 417.654 -1.78721 -0.797332 0
M  V30 4321 C 417.953 -2.43469 2.61644 0
M  V30 4322 C 417.619 -1.98732 4.04742 0
M  V30 4323 C 416.281 -1.86248 4.43695 0
M  V30 4324 C 418.633 -1.64659 4.94507 0
M  V30 4325 C 415.961 -1.37995 5.70241 0
M  V30 4326 C 418.313 -1.17875 6.21521 0
M  V30 4327 C 416.977 -1.03992 6.5935 0
M  V30 4328 H 416.247 -0.478741 0.565587 0
M  V30 4329 H 418.894 -0.617697 1.81264 0
M  V30 4330 H 417.199 -3.18109 2.28722 0
M  V30 4331 H 418.896 -3.01642 2.64222 0
M  V30 4332 H 415.486 -2.09393 3.73968 0
M  V30 4333 H 419.67 -1.73174 4.65107 0
M  V30 4334 H 414.926 -1.25915 5.98294 0
M  V30 4335 H 419.1 -0.905739 6.90485 0
M  V30 4336 H 416.727 -0.663794 7.57296 0
M  V30 4337 N 418.302 -1.35869 -0.798587 0
M  V30 4338 C 419.232 -1.32118 -1.92528 0
M  V30 4339 C 420.213 -0.194209 -1.68988 0
M  V30 4340 O 421.398 -0.390426 -1.90235 0
M  V30 4341 C 418.528 -1.10047 -3.29404 0
M  V30 4342 C 417.482 -2.19471 -3.67446 0
M  V30 4343 C 416.808 -1.82555 -5.02571 0
M  V30 4344 C 418.108 -3.61495 -3.76987 0
M  V30 4345 H 419.802 -2.26394 -1.95924 0
M  V30 4346 H 417.348 -1.08981 -0.94123 0
M  V30 4347 H 419.301 -1.06061 -4.07835 0
M  V30 4348 H 418.025 -0.122195 -3.26371 0
M  V30 4349 H 416.684 -2.22568 -2.91306 0
M  V30 4350 H 416.332 -0.833249 -4.9605 0
M  V30 4351 H 416.032 -2.5581 -5.28995 0
M  V30 4352 H 417.556 -1.80108 -5.83432 0
M  V30 4353 H 418.97 -3.60676 -4.4563 0
M  V30 4354 H 417.367 -4.33577 -4.14887 0
M  V30 4355 H 418.437 -3.97065 -2.78329 0
M  V30 4356 N 419.78 1.02168 -1.19998 0
M  V30 4357 C 420.728 2.12717 -0.940967 0
M  V30 4358 C 421.722 1.69069 0.105841 0
M  V30 4359 O 422.928 1.79946 -0.0440583 0
M  V30 4360 H 419.303 0.695108 -0.28693 0
M  V30 4361 H 421.274 2.3175 -1.87975 0
M  V30 4362 C 420.023 3.44027 -0.504049 0
M  V30 4363 H 419.346 3.78036 -1.30112 0
M  V30 4364 H 420.786 4.22452 -0.361991 0
M  V30 4365 C 419.245 3.27678 0.782878 0
M  V30 4366 O 419.775 3.56949 1.84256 0
M  V30 4367 N 417.981 2.80943 0.742921 0
M  V30 4368 H 417.528 2.57322 -0.119687 0
M  V30 4369 H 417.486 2.70385 1.60435 0
M  V30 4370 N 421.258 1.00505 1.21394 0
M  V30 4371 C 422.535 0.603277 1.86064 0
M  V30 4372 C 422.915 -0.919095 1.90042 0
M  V30 4373 O 422.263 -1.80607 1.39977 0
M  V30 4374 C 422.473 1.23772 3.26315 0
M  V30 4375 C 423.821 1.34586 4.02705 0
M  V30 4376 O 424.845 1.19304 3.35626 0
M  V30 4377 O 423.704 1.59169 5.22807 0
M  V30 4378 H 420.798 0.206634 0.800769 0
M  V30 4379 H 423.344 1.1017 1.29076 0
M  V30 4380 H 422.116 2.27848 3.18121 0
M  V30 4381 H 421.739 0.725648 3.90922 0
M  V30 4382 N 422.737 -1.36956 0.779787 0
M  V30 4383 C 423.669 -2.28833 0.129639 0
M  V30 4384 C 424.682 -1.4902 -0.655511 0
M  V30 4385 O 425.871 -1.71578 -0.492279 0
M  V30 4386 C 422.971 -3.2833 -0.839792 0
M  V30 4387 C 422.144 -4.3727 -0.10675 0
M  V30 4388 C 421.203 -5.16789 -0.990717 0
M  V30 4389 O 420.229 -5.67406 -0.451516 0
M  V30 4390 N 421.431 -5.32294 -2.3161 0
M  V30 4391 H 424.196 -2.85268 0.918803 0
M  V30 4392 H 421.757 -1.49019 0.632841 0
M  V30 4393 H 423.749 -3.78413 -1.43477 0
M  V30 4394 H 422.319 -2.72605 -1.52988 0
M  V30 4395 H 421.539 -3.88478 0.669216 0
M  V30 4396 H 422.827 -5.07229 0.399464 0
M  V30 4397 H 422.225 -4.92768 -2.77843 0
M  V30 4398 H 420.782 -5.85656 -2.86095 0
M  V30 4399 N 424.215 -0.530993 -1.48385 0
M  V30 4400 C 425.163 0.244595 -2.3131 0
M  V30 4401 C 426.157 0.93451 -1.41291 0
M  V30 4402 O 427.363 0.85878 -1.58193 0
M  V30 4403 H 423.738 0.0977472 -0.74562 0
M  V30 4404 H 425.709 -0.474369 -2.94605 0
M  V30 4405 C 424.458 1.2779 -3.23365 0
M  V30 4406 H 423.781 0.756439 -3.92579 0
M  V30 4407 H 425.221 1.79198 -3.84271 0
M  V30 4408 C 423.68 2.31205 -2.45042 0
M  V30 4409 O 424.21 3.37661 -2.17596 0
M  V30 4410 N 422.416 2.04446 -2.0652 0
M  V30 4411 H 421.963 1.17891 -2.2904 0
M  V30 4412 H 421.921 2.73861 -1.54427 0
M  V30 4413 N 425.693 1.55336 -0.266172 0
M  V30 4414 C 427.109 1.59356 0.0882065 0
M  V30 4415 C 427.309 1.2834 1.55342 0
M  V30 4416 O 426.365 1.03996 2.30089 0
M  V30 4417 C 427.678 2.99409 -0.278364 0
M  V30 4418 C 429.226 3.12196 -0.224243 0
M  V30 4419 C 429.701 4.545 -0.565123 0
M  V30 4420 N 431.192 4.60313 -0.51634 0
M  V30 4421 C 431.927 5.68434 -0.753013 0
M  V30 4422 N 431.423 6.84738 -1.05383 0
M  V30 4423 N 433.216 5.57942 -0.682414 0
M  V30 4424 H 425.367 1.73764 -1.22147 0
M  V30 4425 H 427.63 0.809822 -0.492841 0
M  V30 4426 H 427.336 3.2691 -1.29703 0
M  V30 4427 H 427.21 3.75228 0.385186 0
M  V30 4428 H 429.597 2.84464 0.78512 0
M  V30 4429 H 429.678 2.38609 -0.921922 0
M  V30 4430 H 429.322 4.82956 -1.57213 0
M  V30 4431 H 429.252 5.26374 0.154248 0
M  V30 4432 H 431.743 3.7676 -0.29335 0
M  V30 4433 H 432.056 7.63088 -1.22133 0
M  V30 4434 H 430.401 6.86375 -1.09151 0
M  V30 4435 H 433.592 4.65958 -0.44731 0
M  V30 4436 H 433.765 6.4213 -0.870248 0
M  V30 4437 N 427.171 -0.0066808 1.57599 0
M  V30 4438 C 428.448 -0.729586 1.81484 0
M  V30 4439 C 428.828 -1.92359 0.869558 0
M  V30 4440 O 428.176 -2.28348 -0.0832533 0
M  V30 4441 C 428.386 -1.1416 3.29801 0
M  V30 4442 C 429.734 -1.54823 3.95367 0
M  V30 4443 O 430.758 -1.23558 3.34084 0
M  V30 4444 O 429.617 -2.12937 5.03309 0
M  V30 4445 H 426.711 -0.354674 0.747085 0
M  V30 4446 H 429.257 0.0182609 1.6969 0
M  V30 4447 H 428.029 -0.290231 3.90222 0
M  V30 4448 H 427.652 -1.94876 3.46568 0
M  V30 4449 N 428.649 -1.55105 -0.279332 0
M  V30 4450 C 429.596 -1.8755 -1.34513 0
M  V30 4451 C 430.566 -0.726384 -1.49375 0
M  V30 4452 O 431.751 -0.977063 -1.63884 0
M  V30 4453 C 428.891 -2.14738 -2.70151 0
M  V30 4454 C 428.004 -3.42285 -2.63562 0
M  V30 4455 C 427.139 -3.59206 -3.91337 0
M  V30 4456 C 426.178 -4.80467 -3.79233 0
M  V30 4457 N 425.315 -4.94079 -4.98829 0
M  V30 4458 H 430.155 -2.78456 -1.06143 0
M  V30 4459 H 427.692 -1.37867 -0.512936 0
M  V30 4460 H 429.65 -2.28501 -3.49061 0
M  V30 4461 H 428.28 -1.27075 -2.96735 0
M  V30 4462 H 427.332 -3.37029 -1.76397 0
M  V30 4463 H 428.644 -4.31328 -2.50515 0
M  V30 4464 H 427.798 -3.72751 -4.78687 0
M  V30 4465 H 426.537 -2.68337 -4.07243 0
M  V30 4466 H 425.542 -4.66932 -2.90266 0
M  V30 4467 H 426.767 -5.72765 -3.64852 0
M  V30 4468 H 424.713 -4.06139 -5.15158 0
M  V30 4469 H 424.63 -5.77156 -4.8829 0
M  V30 4470 H 425.898 -5.12003 -5.8777 0
M  V30 4471 N 430.127 0.543554 -1.4793 0
M  V30 4472 C 431.075 1.67039 -1.61866 0
M  V30 4473 C 432.069 1.62294 -0.48549 0
M  V30 4474 O 433.275 1.67315 -0.66376 0
M  V30 4475 H 429.65 0.552954 -0.509652 0
M  V30 4476 H 431.621 1.52426 -2.56533 0
M  V30 4477 C 430.37 3.05357 -1.6629 0
M  V30 4478 H 429.693 3.09696 -2.5284 0
M  V30 4479 H 431.133 3.83855 -1.80088 0
M  V30 4480 C 429.592 3.34531 -0.398861 0
M  V30 4481 O 430.122 3.98649 0.494162 0
M  V30 4482 N 428.328 2.89299 -0.2747 0
M  V30 4483 H 427.875 2.37298 -1.00236 0
M  V30 4484 H 427.833 3.09188 0.570075 0
M  V30 4485 N 431.605 1.3629 0.791371 0
M  V30 4486 C 432.83 1.33726 1.58531 0
M  V30 4487 C 433.255 -0.0794933 1.87932 0
M  V30 4488 O 432.613 -1.05087 1.47738 0
M  V30 4489 C 432.661 2.16425 2.88431 0
M  V30 4490 O 431.765 1.5554 3.81944 0
M  V30 4491 H 431.106 0.457793 0.480959 0
M  V30 4492 H 433.636 1.79547 0.981031 0
M  V30 4493 H 433.646 2.28933 3.37718 0
M  V30 4494 H 432.321 3.19415 2.66359 0
M  V30 4495 H 430.898 1.51961 3.40532 0
M  V30 4496 N 433.083 -1.0153 1.20538 0
M  V30 4497 C 434.332 -1.74558 1.01057 0
M  V30 4498 C 434.645 -1.90168 -0.457756 0
M  V30 4499 O 435.851 -2.60301 -0.771722 0
M  V30 4500 C 434.307 -3.13963 1.75941 0
M  V30 4501 C 433.915 -3.06361 3.26875 0
M  V30 4502 C 435.659 -3.91191 1.64832 0
M  V30 4503 C 433.566 -4.40782 3.94291 0
M  V30 4504 H 432.496 -0.654417 0.374505 0
M  V30 4505 H 435.147 -1.13521 1.44171 0
M  V30 4506 H 433.529 -3.75549 1.25614 0
M  V30 4507 H 434.703 -2.54074 3.84425 0
M  V30 4508 H 433.018 -2.42625 3.38411 0
M  V30 4509 H 435.615 -4.90644 2.12539 0
M  V30 4510 H 435.958 -4.11884 0.604745 0
M  V30 4511 H 436.491 -3.36236 2.12579 0
M  V30 4512 H 433.23 -4.25292 4.98805 0
M  V30 4513 H 432.75 -4.9307 3.41529 0
M  V30 4514 H 434.429 -5.09621 3.98617 0
M  V30 4515 N 434.561 -1.01147 -1.20859 0
M  V30 4516 C 435.791 -0.715872 -1.93801 0
M  V30 4517 C 436.199 0.726592 -1.74692 0
M  V30 4518 O 435.542 1.50397 -1.05482 0
M  V30 4519 C 435.604 -0.965269 -3.46299 0
M  V30 4520 C 435.268 -2.39584 -3.89164 0
M  V30 4521 C 436.265 -3.3764 -3.95342 0
M  V30 4522 C 433.95 -2.73522 -4.21297 0
M  V30 4523 C 435.944 -4.67698 -4.33056 0
M  V30 4524 C 433.631 -4.03794 -4.58687 0
M  V30 4525 C 434.629 -5.00693 -4.64538 0
M  V30 4526 O 434.317 -6.28635 -5.01072 0
M  V30 4527 H 434.049 -0.262524 -0.622942 0
M  V30 4528 H 436.603 -1.35413 -1.54443 0
M  V30 4529 H 434.833 -0.269847 -3.85757 0
M  V30 4530 H 436.522 -0.662051 -4.00464 0
M  V30 4531 H 437.288 -3.12757 -3.70686 0
M  V30 4532 H 433.167 -1.9879 -4.15937 0
M  V30 4533 H 436.711 -5.4333 -4.37537 0
M  V30 4534 H 432.608 -4.28459 -4.82797 0
M  V30 4535 H 433.376 -6.32847 -5.19083 0
M  V30 4536 N 436.039 1.36541 -0.78704 0
M  V30 4537 C 437.264 2.0409 -0.369053 0
M  V30 4538 C 437.689 1.58957 1.00569 0
M  V30 4539 O 437.047 0.756926 1.64743 0
M  V30 4540 C 437.095 3.57924 -0.438466 0
M  V30 4541 O 436.199 4.08642 0.555479 0
M  V30 4542 H 435.54 0.645142 -0.157122 0
M  V30 4543 H 438.07 1.74545 -1.06749 0
M  V30 4544 H 438.08 4.06887 -0.301218 0
M  V30 4545 H 436.755 3.90127 -1.44132 0
M  V30 4546 H 435.332 3.70958 0.380088 0
M  V30 4547 N 437.518 0.538854 1.48102 0
M  V30 4548 C 438.766 0.00798599 2.02098 0
M  V30 4549 C 439.087 -1.33922 1.41739 0
M  V30 4550 O 438.357 -1.86932 0.585934 0
M  V30 4551 H 436.937 -3.62179e-05 0.747 0
M  V30 4552 H 439.599 0.7047 1.81714 0
M  V30 4553 H 438.695 -0.0937672 3.11959 0
M  V30 4554 N 438.996 -1.55193 0.274407 0
M  V30 4555 C 439.926 -2.25471 -0.607032 0
M  V30 4556 C 440.907 -1.24461 -1.15946 0
M  V30 4557 O 442.092 -1.53179 -1.19373 0
M  V30 4558 C 439.222 -2.97526 -1.79153 0
M  V30 4559 C 438.176 -4.05459 -1.37067 0
M  V30 4560 C 437.502 -4.65084 -2.6382 0
M  V30 4561 C 438.802 -5.19691 -0.521389 0
M  V30 4562 H 440.496 -2.99393 -0.0209343 0
M  V30 4563 H 438.042 -1.43997 -0.00862866 0
M  V30 4564 H 439.995 -3.45402 -2.41404 0
M  V30 4565 H 438.719 -2.21138 -2.40344 0
M  V30 4566 H 437.378 -3.58393 -0.771355 0
M  V30 4567 H 437.026 -3.85365 -3.23268 0
M  V30 4568 H 436.726 -5.37961 -2.36372 0
M  V30 4569 H 438.25 -5.15708 -3.26921 0
M  V30 4570 H 439.664 -5.63623 -1.04889 0
M  V30 4571 H 438.061 -5.99126 -0.341825 0
M  V30 4572 H 439.131 -4.82713 0.46 0
M  V30 4573 N 440.474 -0.00167713 -1.576 0
M  V30 4574 C 441.384 1.00548 -2.1196 0
M  V30 4575 C 442.4 1.3758 -1.06526 0
M  V30 4576 O 443.576 1.46278 -1.38436 0
M  V30 4577 C 440.641 2.27809 -2.6135 0
M  V30 4578 C 439.702 1.97074 -3.81393 0
M  V30 4579 C 438.935 3.18267 -4.28417 0
M  V30 4580 O 439.158 4.30009 -3.74765 0
M  V30 4581 O 438.092 3.02167 -5.20556 0
M  V30 4582 H 441.918 0.573373 -2.98238 0
M  V30 4583 H 439.503 0.217255 -1.47812 0
M  V30 4584 H 441.385 3.02568 -2.93309 0
M  V30 4585 H 440.06 2.70254 -1.78169 0
M  V30 4586 H 438.967 1.19785 -3.54404 0
M  V30 4587 H 440.3 1.59464 -4.65652 0
M  V30 4588 N 441.952 1.55251 0.271103 0
M  V30 4589 C 442.915 1.87484 1.31842 0
M  V30 4590 C 443.915 0.749545 1.42262 0
M  V30 4591 O 445.105 1.01771 1.4138 0
M  V30 4592 C 442.237 2.0818 2.69951 0
M  V30 4593 H 443.43 2.81108 1.0449 0
M  V30 4594 H 440.983 1.47771 0.509258 0
M  V30 4595 H 441.718 1.16944 3.02481 0
M  V30 4596 H 441.503 2.90114 2.63774 0
M  V30 4597 H 442.993 2.34385 3.4562 0
M  V30 4598 N 443.43 -0.535701 1.48216 0
M  V30 4599 C 444.677 -1.29183 1.55942 0
M  V30 4600 C 445.005 -1.93125 0.230857 0
M  V30 4601 O 444.26 -1.79556 -0.778331 0
M  V30 4602 C 444.559 -2.4068 2.64212 0
M  V30 4603 C 444.225 -1.94428 4.06827 0
M  V30 4604 C 442.887 -1.81532 4.45645 0
M  V30 4605 C 445.239 -1.59405 4.96225 0
M  V30 4606 C 442.567 -1.31939 5.71672 0
M  V30 4607 C 444.919 -1.11276 6.22736 0
M  V30 4608 C 443.583 -0.969924 6.60416 0
M  V30 4609 H 442.853 -0.472715 0.570632 0
M  V30 4610 H 445.5 -0.598437 1.81909 0
M  V30 4611 H 443.805 -3.15666 2.32083 0
M  V30 4612 H 445.502 -2.98822 2.67407 0
M  V30 4613 H 442.092 -2.05415 3.76168 0
M  V30 4614 H 446.276 -1.68231 4.66917 0
M  V30 4615 H 441.532 -1.19562 5.99596 0
M  V30 4616 H 445.706 -0.832453 6.91407 0
M  V30 4617 H 443.333 -0.583436 7.57958 0
M  V30 4618 N 444.908 -1.36708 -0.784132 0
M  V30 4619 C 446.156 -1.30972 -1.53918 0
M  V30 4620 C 446.477 0.109086 -1.94695 0
M  V30 4621 O 445.747 1.05048 -1.65353 0
M  V30 4622 H 444.327 -0.481819 -0.570841 0
M  V30 4623 H 446.989 -1.71063 -0.934002 0
M  V30 4624 H 446.085 -1.94061 -2.44431 0
M  V30 4625 N 446.386 1.0089 -1.21074 0
M  V30 4626 C 447.663 1.71834 -0.934469 0
M  V30 4627 C 448.043 2.0368 0.554753 0
M  V30 4628 O 447.391 1.70742 1.51854 0
M  V30 4629 C 447.601 2.98061 -1.8155 0
M  V30 4630 C 448.949 3.7117 -2.06199 0
M  V30 4631 O 449.973 3.08034 -1.78867 0
M  V30 4632 O 448.832 4.84721 -2.52404 0
M  V30 4633 H 445.926 0.749253 -0.35007 0
M  V30 4634 H 448.472 1.06668 -1.31985 0
M  V30 4635 H 447.244 2.70908 -2.82355 0
M  V30 4636 H 446.867 3.70968 -1.43068 0
M  V30 4637 N 447.864 1.01787 1.20321 0
M  V30 4638 C 449.11 0.708985 1.90003 0
M  V30 4639 C 449.443 -0.759572 1.78729 0
M  V30 4640 O 448.718 -1.55198 1.17234 0
M  V30 4641 C 449.001 1.1469 3.41348 0
M  V30 4642 C 448.854 2.67586 3.61549 0
M  V30 4643 C 450.173 0.71915 4.34185 0
M  V30 4644 H 447.292 0.259034 0.689978 0
M  V30 4645 H 449.934 1.26584 1.41692 0
M  V30 4646 H 448.084 0.673128 3.82624 0
M  V30 4647 H 449.756 3.22826 3.29517 0
M  V30 4648 H 447.999 3.085 3.04976 0
M  V30 4649 H 448.67 2.93281 4.67643 0
M  V30 4650 H 451.146 1.12647 4.00562 0
M  V30 4651 H 450.022 1.05358 5.38694 0
M  V30 4652 H 450.283 -0.379111 4.40472 0
M  V30 4653 N 449.342 -1.36122 0.79427 0
M  V30 4654 C 450.289 -2.29982 0.194101 0
M  V30 4655 C 451.259 -1.52214 -0.664833 0
M  V30 4656 O 452.444 -1.80702 -0.612498 0
M  V30 4657 C 449.584 -3.38706 -0.661244 0
M  V30 4658 C 448.697 -4.31456 0.216766 0
M  V30 4659 C 447.832 -5.27265 -0.645411 0
M  V30 4660 C 446.871 -6.11653 0.233756 0
M  V30 4661 N 446.008 -6.99636 -0.587682 0
M  V30 4662 H 450.848 -2.80722 0.999965 0
M  V30 4663 H 448.385 -1.38172 0.504677 0
M  V30 4664 H 450.343 -4.00394 -1.17219 0
M  V30 4665 H 448.973 -2.89274 -1.43249 0
M  V30 4666 H 448.025 -3.7088 0.845724 0
M  V30 4667 H 449.337 -4.90724 0.893973 0
M  V30 4668 H 448.491 -5.94266 -1.22198 0
M  V30 4669 H 447.23 -4.68463 -1.35623 0
M  V30 4670 H 446.235 -5.4361 0.82269 0
M  V30 4671 H 447.46 -6.72531 0.942247 0
M  V30 4672 H 445.406 -6.43337 -1.2827 0
M  V30 4673 H 445.323 -7.55993 0.0317402 0
M  V30 4674 H 446.591 -7.71001 -1.14792 0
M  V30 4675 N 450.82 -0.546701 -1.47814 0
M  V30 4676 C 451.75 0.195317 -2.32682 0
M  V30 4677 C 452.731 0.918981 -1.43139 0
M  V30 4678 O 453.916 0.901501 -1.72008 0
M  V30 4679 C 451.046 1.23237 -3.247 0
M  V30 4680 C 450 0.625818 -4.234 0
M  V30 4681 C 449.326 1.76674 -5.04669 0
M  V30 4682 C 450.626 -0.413515 -5.2066 0
M  V30 4683 H 452.32 -0.513184 -2.94969 0
M  V30 4684 H 449.866 -0.248241 -1.41844 0
M  V30 4685 H 451.819 1.75955 -3.82907 0
M  V30 4686 H 450.543 1.97067 -2.60446 0
M  V30 4687 H 449.202 0.120023 -3.66403 0
M  V30 4688 H 448.85 2.49383 -4.36826 0
M  V30 4689 H 448.55 1.36673 -5.71484 0
M  V30 4690 H 450.074 2.29738 -5.65732 0
M  V30 4691 H 451.488 0.0272042 -5.73294 0
M  V30 4692 H 449.885 -0.731825 -5.95621 0
M  V30 4693 H 450.955 -1.31325 -4.66778 0
M  V30 4694 N 452.299 1.55045 -0.282633 0
M  V30 4695 C 453.209 2.26491 0.61147 0
M  V30 4696 C 454.225 1.29348 1.16384 0
M  V30 4697 O 455.401 1.62298 1.19253 0
M  V30 4698 C 452.466 2.97779 1.77563 0
M  V30 4699 C 451.527 4.10418 1.25919 0
M  V30 4700 C 450.76 4.78297 2.36786 0
M  V30 4701 O 450.983 4.45426 3.56303 0
M  V30 4702 O 449.917 5.66089 2.04517 0
M  V30 4703 H 453.743 3.03683 0.0324615 0
M  V30 4704 H 451.328 1.49317 -0.0497576 0
M  V30 4705 H 453.21 3.42554 2.45427 0
M  V30 4706 H 451.885 2.23498 2.34159 0
M  V30 4707 H 450.792 3.70082 0.546797 0
M  V30 4708 H 452.125 4.86622 0.738887 0
M  V30 4709 N 453.777 0.010035 1.57597 0
M  V30 4710 C 455.054 -0.710296 1.82248 0
M  V30 4711 C 455.434 -1.91426 0.889911 0
M  V30 4712 O 454.782 -2.28424 -0.0590292 0
M  V30 4713 C 454.992 -1.10655 3.30993 0
M  V30 4714 C 456.34 -1.50621 3.96987 0
M  V30 4715 O 457.364 -1.20007 3.35375 0
M  V30 4716 O 456.223 -2.07587 5.05539 0
M  V30 4717 H 453.317 -0.34673 0.750804 0
M  V30 4718 H 455.863 0.0362578 1.69661 0
M  V30 4719 H 454.635 -0.248826 3.90508 0
M  V30 4720 H 454.258 -1.91189 3.48615 0
M  V30 4721 N 455.255 -1.55392 -0.262866 0
M  V30 4722 C 456.483 -1.80513 -1.01108 0
M  V30 4723 C 456.898 -0.583533 -1.79556 0
M  V30 4724 O 456.255 0.447585 -1.76926 0
M  V30 4725 C 456.306 -3.03648 -1.96164 0
M  V30 4726 O 456.027 -4.2109 -1.20893 0
M  V30 4727 C 457.528 -3.41448 -2.82715 0
M  V30 4728 H 454.748 -0.601079 -0.298236 0
M  V30 4729 H 457.292 -2.02425 -0.290582 0
M  V30 4730 H 455.447 -2.83832 -2.63663 0
M  V30 4731 H 455.861 -4.90771 -1.85051 0
M  V30 4732 H 457.335 -4.30751 -3.45192 0
M  V30 4733 H 457.812 -2.61308 -3.53008 0
M  V30 4734 H 458.418 -3.63559 -2.20693 0
M  V30 4735 N 456.733 0.527833 -1.48498 0
M  V30 4736 C 457.963 1.30633 -1.60058 0
M  V30 4737 C 458.371 1.87394 -0.260786 0
M  V30 4738 O 457.714 1.67227 0.760317 0
M  V30 4739 C 457.776 2.49361 -2.58958 0
M  V30 4740 C 457.44 2.13671 -4.03972 0
M  V30 4741 C 458.437 1.69217 -4.91591 0
M  V30 4742 C 456.122 2.24129 -4.49524 0
M  V30 4743 C 458.116 1.35689 -6.2279 0
M  V30 4744 C 455.803 1.90212 -5.80743 0
M  V30 4745 C 456.801 1.46063 -6.67199 0
M  V30 4746 O 456.489 1.12593 -7.95976 0
M  V30 4747 H 456.221 0.403444 -0.54241 0
M  V30 4748 H 458.775 0.643233 -1.95068 0
M  V30 4749 H 457.005 3.18659 -2.19073 0
M  V30 4750 H 458.694 3.11421 -2.6033 0
M  V30 4751 H 459.46 1.60607 -4.57636 0
M  V30 4752 H 455.339 2.57447 -3.82416 0
M  V30 4753 H 458.883 1.01157 -6.90227 0
M  V30 4754 H 454.78 1.98464 -6.14233 0
M  V30 4755 H 455.548 1.25972 -8.08748 0
M  V30 4756 N 458.211 1.37122 0.776871 0
M  V30 4757 C 459.458 1.32047 1.53524 0
M  V30 4758 C 459.786 -0.0965631 1.9426 0
M  V30 4759 O 459.041 -1.06866 1.63945 0
M  V30 4760 C 459.34 2.20068 2.81611 0
M  V30 4761 C 459.006 3.68423 2.59953 0
M  V30 4762 C 457.668 4.08854 2.53755 0
M  V30 4763 C 460.02 4.62431 2.40431 0
M  V30 4764 C 457.348 5.41417 2.26018 0
M  V30 4765 C 459.7 5.95225 2.14219 0
M  V30 4766 C 458.364 6.34767 2.06462 0
M  V30 4767 H 457.634 0.483196 0.561785 0
M  V30 4768 H 460.281 1.69284 0.895268 0
M  V30 4769 H 458.586 1.75809 3.50141 0
M  V30 4770 H 460.283 2.13458 3.39465 0
M  V30 4771 H 456.873 3.36354 2.65638 0
M  V30 4772 H 461.057 4.32057 2.44213 0
M  V30 4773 H 456.313 5.71022 2.18504 0
M  V30 4774 H 460.487 6.67626 1.98112 0
M  V30 4775 H 458.114 7.37413 1.84733 0
M  V30 4776 N 459.689 -1.00246 1.21608 0
M  V30 4777 C 460.966 -1.71336 0.943568 0
M  V30 4778 C 461.346 -2.03972 -0.543943 0
M  V30 4779 O 460.694 -1.71545 -1.50946 0
M  V30 4780 C 460.904 -2.97094 1.83128 0
M  V30 4781 C 462.252 -3.70071 2.08165 0
M  V30 4782 O 463.276 -3.07081 1.80498 0
M  V30 4783 O 462.135 -4.83376 2.54971 0
M  V30 4784 H 459.229 -0.747386 0.354039 0
M  V30 4785 H 461.775 -1.05967 1.32549 0
M  V30 4786 H 460.547 -2.69407 2.83788 0
M  V30 4787 H 460.17 -3.70204 1.45034 0
M  V30 4788 N 461.167 -1.02423 -1.1978 0
M  V30 4789 C 462.583 -0.740459 -1.41384 0
M  V30 4790 C 462.783 0.676827 -1.89793 0
M  V30 4791 O 461.839 1.4435 -2.0717 0
M  V30 4792 C 463.152 -1.77264 -2.42895 0
M  V30 4793 C 464.7 -1.79165 -2.56649 0
M  V30 4794 C 465.175 -2.8133 -3.6141 0
M  V30 4795 N 466.666 -2.80118 -3.68901 0
M  V30 4796 C 467.401 -3.55824 -4.49641 0
M  V30 4797 N 466.897 -4.41231 -5.34123 0
M  V30 4798 N 468.69 -3.44387 -4.44246 0
M  V30 4799 H 460.841 -1.9391 -0.866764 0
M  V30 4800 H 463.104 -0.838074 -0.443098 0
M  V30 4801 H 462.81 -2.7884 -2.14339 0
M  V30 4802 H 462.684 -1.59108 -3.42001 0
M  V30 4803 H 465.071 -0.782702 -2.84531 0
M  V30 4804 H 465.152 -2.01396 -1.57713 0
M  V30 4805 H 464.796 -3.82394 -3.34271 0
M  V30 4806 H 464.726 -2.56359 -4.59986 0
M  V30 4807 H 467.217 -2.1817 -3.08562 0
M  V30 4808 H 467.53 -4.95747 -5.92836 0
M  V30 4809 H 465.875 -4.45306 -5.33599 0
M  V30 4810 H 469.066 -2.7708 -3.77285 0
M  V30 4811 H 469.239 -4.0364 -5.06931 0
M  V30 4812 N 462.645 1.35699 -0.801477 0
M  V30 4813 C 463.922 1.9324 -0.302937 0
M  V30 4814 C 464.302 1.73209 1.20672 0
M  V30 4815 O 463.65 1.09809 2.00385 0
M  V30 4816 C 463.86 3.41728 -0.708747 0
M  V30 4817 C 465.208 4.18868 -0.695328 0
M  V30 4818 O 466.232 3.5022 -0.649971 0
M  V30 4819 O 465.091 5.41342 -0.749081 0
M  V30 4820 H 462.185 0.82331 -0.0780367 0
M  V30 4821 H 464.731 1.44806 -0.884832 0
M  V30 4822 H 463.503 3.50015 -1.74944 0
M  V30 4823 H 463.126 3.97471 -0.101384 0
M  V30 4824 N 464.123 0.554532 1.47522 0
M  V30 4825 C 465.369 0.0295227 2.02779 0
M  V30 4826 C 465.702 -1.31582 1.42828 0
M  V30 4827 O 464.977 -1.85561 0.582872 0
M  V30 4828 C 465.26 -0.0664057 3.60039 0
M  V30 4829 C 465.113 1.30585 4.30427 0
M  V30 4830 C 466.432 -0.781162 4.33112 0
M  V30 4831 H 463.551 0.0122027 0.736899 0
M  V30 4832 H 466.193 0.716305 1.7598 0
M  V30 4833 H 464.343 -0.651307 3.83002 0
M  V30 4834 H 466.015 1.93374 4.18813 0
M  V30 4835 H 464.258 1.88125 3.90886 0
M  V30 4836 H 464.929 1.19147 5.38988 0
M  V30 4837 H 467.405 -0.284565 4.15126 0
M  V30 4838 H 466.281 -0.817237 5.42782 0
M  V30 4839 H 466.542 -1.83672 4.0214 0
M  V30 4840 N 465.601 -1.54893 0.290851 0
M  V30 4841 C 466.511 -2.26812 -0.59945 0
M  V30 4842 C 467.527 -1.29963 -1.15696 0
M  V30 4843 O 468.703 -1.62928 -1.18391 0
M  V30 4844 C 465.768 -2.98716 -1.75982 0
M  V30 4845 C 464.829 -4.1108 -1.2374 0
M  V30 4846 C 464.062 -4.79546 -2.34246 0
M  V30 4847 O 464.285 -4.47309 -3.53936 0
M  V30 4848 O 463.219 -5.67165 -2.01512 0
M  V30 4849 H 467.045 -3.03696 -0.0163561 0
M  V30 4850 H 464.63 -1.49289 0.0576755 0
M  V30 4851 H 466.512 -3.43851 -2.43607 0
M  V30 4852 H 465.187 -2.24737 -2.3297 0
M  V30 4853 H 464.094 -3.70367 -0.527163 0
M  V30 4854 H 465.427 -4.87007 -0.71307 0
M  V30 4855 N 467.08 -0.0183926 -1.57589 0
M  V30 4856 C 468.027 0.967022 -2.09565 0
M  V30 4857 C 468.997 1.32983 -0.995225 0
M  V30 4858 O 470.182 1.42501 -1.26878 0
M  V30 4859 C 467.322 2.24772 -2.61861 0
M  V30 4860 C 466.435 1.94232 -3.85873 0
M  V30 4861 C 465.57 3.16518 -4.26603 0
M  V30 4862 C 464.609 2.81748 -5.43401 0
M  V30 4863 N 463.746 3.96626 -5.79338 0
M  V30 4864 H 468.586 0.516874 -2.93483 0
M  V30 4865 H 466.123 0.243544 -1.4507 0
M  V30 4866 H 468.081 2.99667 -2.90268 0
M  V30 4867 H 466.711 2.67423 -1.8079 0
M  V30 4868 H 465.763 1.09625 -3.64262 0
M  V30 4869 H 467.075 1.64616 -4.70853 0
M  V30 4870 H 466.229 3.99743 -4.56389 0
M  V30 4871 H 464.968 3.49286 -3.40368 0
M  V30 4872 H 463.973 1.96933 -5.1332 0
M  V30 4873 H 465.198 2.50207 -6.31327 0
M  V30 4874 H 463.144 4.29257 -4.96059 0
M  V30 4875 H 463.061 3.70598 -6.58933 0
M  V30 4876 H 464.329 4.80586 -6.13724 0
M  V30 4877 N 468.558 1.5553 0.254621 0
M  V30 4878 C 469.521 1.88872 1.29846 0
M  V30 4879 C 470.521 0.764591 1.41459 0
M  V30 4880 O 471.711 1.03265 1.40293 0
M  V30 4881 C 468.843 2.11032 2.67728 0
M  V30 4882 H 470.036 2.82201 1.01502 0
M  V30 4883 H 467.589 1.48303 0.493556 0
M  V30 4884 H 468.324 1.20146 3.01223 0
M  V30 4885 H 468.109 2.92895 2.60682 0
M  V30 4886 H 469.599 2.38038 3.43115 0
M  V30 4887 N 470.036 -0.519951 1.48776 0
M  V30 4888 C 471.283 -1.27522 1.57303 0
M  V30 4889 C 471.611 -1.92869 0.251328 0
M  V30 4890 O 470.866 -1.80372 -0.759243 0
M  V30 4891 C 471.165 -2.37864 2.6675 0
M  V30 4892 C 470.831 -1.90103 4.08867 0
M  V30 4893 C 469.493 -1.76795 4.47546 0
M  V30 4894 C 471.845 -1.54133 4.97888 0
M  V30 4895 C 469.173 -1.25868 5.73039 0
M  V30 4896 C 471.525 -1.04665 6.23881 0
M  V30 4897 C 470.189 -0.899823 6.61407 0
M  V30 4898 H 469.459 -0.466636 0.575614 0
M  V30 4899 H 472.106 -0.579109 1.82534 0
M  V30 4900 H 470.411 -3.13186 2.35418 0
M  V30 4901 H 472.108 -2.95969 2.70561 0
M  V30 4902 H 468.698 -2.01414 3.78326 0
M  V30 4903 H 472.882 -1.6327 4.68675 0
M  V30 4904 H 468.138 -1.13196 6.0083 0
M  V30 4905 H 472.312 -0.759074 6.92251 0
M  V30 4906 H 469.939 -0.503011 7.58534 0
M  V30 4907 N 471.514 -1.37532 -0.769588 0
M  V30 4908 C 472.447 -1.27839 -1.8903 0
M  V30 4909 C 473.425 -0.158504 -1.61826 0
M  V30 4910 O 474.609 -0.333086 -1.85534 0
M  V30 4911 C 471.736 -0.977072 -3.24301 0
M  V30 4912 C 470.782 -2.11414 -3.70414 0
M  V30 4913 S 471.615 -3.73409 -3.83831 0
M  V30 4914 C 472.771 -3.45432 -5.21946 0
M  V30 4915 H 473.004 -2.22694 -1.96963 0
M  V30 4916 H 470.537 -1.2318 -0.930914 0
M  V30 4917 H 472.495 -0.810049 -4.02428 0
M  V30 4918 H 471.156 -0.0459701 -3.14066 0
M  V30 4919 H 470.349 -1.85837 -4.68488 0
M  V30 4920 H 469.951 -2.24141 -2.99394 0
M  V30 4921 H 472.243 -3.00554 -6.07185 0
M  V30 4922 H 473.186 -4.42841 -5.52537 0
M  V30 4923 H 473.594 -2.80311 -4.89986 0
M  V30 4924 N 472.992 0.995999 -1.22138 0
M  V30 4925 C 473.939 2.08551 -0.988687 0
M  V30 4926 C 474.909 1.65864 0.0885021 0
M  V30 4927 O 476.094 1.90704 -0.0604589 0
M  V30 4928 C 473.234 3.40374 -0.569191 0
M  V30 4929 C 472.347 3.96421 -1.71681 0
M  V30 4930 C 471.482 5.1639 -1.2456 0
M  V30 4931 C 470.521 5.64567 -2.36497 0
M  V30 4932 N 469.658 6.75777 -1.90445 0
M  V30 4933 H 474.498 2.2779 -1.92135 0
M  V30 4934 H 472.035 1.1168 -0.957388 0
M  V30 4935 H 473.993 4.16068 -0.307166 0
M  V30 4936 H 472.623 3.21145 0.326462 0
M  V30 4937 H 471.675 3.17628 -2.09324 0
M  V30 4938 H 472.987 4.2816 -2.55891 0
M  V30 4939 H 472.141 5.99362 -0.940774 0
M  V30 4940 H 470.88 4.86266 -0.373662 0
M  V30 4941 H 469.885 4.80185 -2.67772 0
M  V30 4942 H 471.11 5.96716 -3.24202 0
M  V30 4943 H 469.056 6.47443 -1.05609 0
M  V30 4944 H 468.973 7.06818 -2.68223 0
M  V30 4945 H 470.241 7.62262 -1.63022 0
M  V30 4946 N 474.47 1.03057 1.19235 0
M  V30 4947 C 475.433 0.617418 2.20727 0
M  V30 4948 C 476.433 -0.319856 1.57587 0
M  V30 4949 O 477.623 -0.106633 1.73873 0
M  V30 4950 C 474.755 -0.096296 3.40764 0
M  V30 4951 H 475.948 1.51544 2.58794 0
M  V30 4952 H 473.501 0.821949 1.32942 0
M  V30 4953 H 474.236 -1.00859 3.08217 0
M  V30 4954 H 474.021 0.577217 3.87828 0
M  V30 4955 H 475.511 -0.372219 4.15938 0
M  V30 4956 N 475.948 -1.35272 0.808662 0
M  V30 4957 C 477.173 -2.03477 0.401475 0
M  V30 4958 C 477.598 -1.60537 -0.980279 0
M  V30 4959 O 476.956 -0.78304 -1.63518 0
M  V30 4960 C 477.004 -3.57181 0.495354 0
M  V30 4961 O 476.108 -4.09474 -0.490397 0
M  V30 4962 H 475.449 -0.642561 0.167366 0
M  V30 4963 H 477.979 -1.72824 1.09512 0
M  V30 4964 H 477.989 -4.06356 0.365912 0
M  V30 4965 H 476.664 -3.87784 1.5032 0
M  V30 4966 H 475.241 -3.71516 -0.321023 0
M  V30 4967 N 477.426 -0.562348 -1.47226 0
M  V30 4968 C 478.651 -0.0432632 -2.07355 0
M  V30 4969 C 479.076 1.24332 -1.41149 0
M  V30 4970 O 478.434 1.74603 -0.488226 0
M  V30 4971 C 478.482 0.130288 -3.60365 0
M  V30 4972 O 477.586 1.19166 -3.94808 0
M  V30 4973 H 476.927 -0.0536334 -0.66183 0
M  V30 4974 H 479.457 -0.779495 -1.89169 0
M  V30 4975 H 479.467 0.342881 -4.06557 0
M  V30 4976 H 478.142 -0.809389 -4.07948 0
M  V30 4977 H 476.719 0.959153 -3.60354 0
M  V30 4978 N 478.904 1.54736 -0.299062 0
M  V30 4979 C 479.814 2.27127 0.587413 0
M  V30 4980 C 480.83 1.30575 1.15005 0
M  V30 4981 O 482.006 1.63554 1.17525 0
M  V30 4982 C 479.071 2.99645 1.74395 0
M  V30 4983 C 478.132 4.11731 1.21559 0
M  V30 4984 C 477.365 4.80781 2.317 0
M  V30 4985 O 477.588 4.4918 3.51558 0
M  V30 4986 O 476.522 5.68226 1.98501 0
M  V30 4987 H 480.348 3.037 0.000250109 0
M  V30 4988 H 477.933 1.49256 -0.0655919 0
M  V30 4989 H 479.815 3.45138 2.4178 0
M  V30 4990 H 478.49 2.25969 2.31775 0
M  V30 4991 H 477.397 3.70641 0.507514 0
M  V30 4992 H 478.73 4.87379 0.687233 0
M  V30 4993 N 480.382 0.0267497 1.57577 0
M  V30 4994 C 481.312 -0.954308 2.13108 0
M  V30 4995 C 482.293 -1.34088 1.04663 0
M  V30 4996 O 483.478 -1.41992 1.32484 0
M  V30 4997 C 480.608 -2.23744 2.65624 0
M  V30 4998 C 479.562 -1.99168 3.78835 0
M  V30 4999 C 478.888 -3.33726 4.17769 0
M  V30 5000 C 480.188 -1.33277 5.0501 0
M  V30 5001 H 481.882 -0.491848 2.95332 0
M  V30 5002 H 479.428 -0.23514 1.42067 0
M  V30 5003 H 481.381 -2.92754 3.03106 0
M  V30 5004 H 480.105 -2.72151 1.80558 0
M  V30 5005 H 478.764 -1.32577 3.41788 0
M  V30 5006 H 478.412 -3.79888 3.29688 0
M  V30 5007 H 478.112 -3.18089 4.94058 0
M  V30 5008 H 479.636 -4.04008 4.57832 0
M  V30 5009 H 481.05 -1.92283 5.40093 0
M  V30 5010 H 479.447 -1.28045 5.8628 0
M  V30 5011 H 480.517 -0.305411 4.83937 0
M  V30 5012 N 481.861 -1.55662 -0.24637 0
M  V30 5013 C 483.108 -1.77519 -0.974335 0
M  V30 5014 C 483.436 -0.591165 -1.85298 0
M  V30 5015 O 482.691 0.425497 -1.91018 0
M  V30 5016 C 482.99 -3.04885 -1.86494 0
M  V30 5017 C 482.656 -4.36209 -1.14161 0
M  V30 5018 C 481.318 -4.71896 -0.941701 0
M  V30 5019 C 483.67 -5.17391 -0.628957 0
M  V30 5020 C 480.998 -5.86299 -0.216852 0
M  V30 5021 C 483.35 -6.32546 0.0824273 0
M  V30 5022 C 482.014 -6.66853 0.293807 0
M  V30 5023 H 481.284 -0.649588 -0.356535 0
M  V30 5024 H 483.931 -1.89934 -0.244394 0
M  V30 5025 H 482.236 -2.87484 -2.66196 0
M  V30 5026 H 483.933 -3.18994 -2.42989 0
M  V30 5027 H 480.523 -4.08174 -1.30736 0
M  V30 5028 H 484.707 -4.90276 -0.770943 0
M  V30 5029 H 479.963 -6.11385 -0.0426124 0
M  V30 5030 H 484.137 -6.94693 0.487292 0
M  V30 5031 H 481.764 -7.55349 0.857428 0
M  V30 5032 N 483.339 0.512053 -1.4905 0
M  V30 5033 C 484.564 1.2959 -1.6193 0
M  V30 5034 C 484.989 1.85906 -0.286454 0
M  V30 5035 O 484.347 1.65312 0.744426 0
M  V30 5036 C 484.395 2.40987 -2.68249 0
M  V30 5037 O 483.499 3.44531 -2.26654 0
M  V30 5038 H 482.84 0.383053 -0.542371 0
M  V30 5039 H 485.37 0.614231 -1.95162 0
M  V30 5040 H 485.38 2.86913 -2.90078 0
M  V30 5041 H 484.055 1.99361 -3.65004 0
M  V30 5042 H 482.632 3.046 -2.15112 0
M  V30 5043 N 484.817 1.37938 0.762283 0
M  V30 5044 C 485.749 1.30349 1.88525 0
M  V30 5045 C 486.762 0.217402 1.61342 0
M  V30 5046 O 487.951 0.474291 1.72084 0
M  V30 5047 C 485.051 0.994844 3.23969 0
M  V30 5048 C 484.224 2.18829 3.78725 0
M  V30 5049 C 483.283 1.84844 4.92665 0
M  V30 5050 O 482.309 2.57244 5.07754 0
M  V30 5051 N 483.511 0.798201 5.74986 0
M  V30 5052 H 486.276 2.27114 1.95549 0
M  V30 5053 H 483.837 1.31686 0.941825 0
M  V30 5054 H 485.829 0.748168 3.97724 0
M  V30 5055 H 484.399 0.115446 3.12387 0
M  V30 5056 H 483.619 2.59615 2.96637 0
M  V30 5057 H 484.907 2.98497 4.1204 0
M  V30 5058 H 484.305 0.197611 5.65355 0
M  V30 5059 H 482.862 0.611396 6.48926 0
M  V30 5060 N 486.295 -0.989507 1.22664 0
M  V30 5061 C 487.242 -2.08024 0.999733 0
M  V30 5062 C 488.212 -1.65909 -0.0797047 0
M  V30 5063 O 489.397 -1.90669 0.0705715 0
M  V30 5064 C 486.537 -3.40067 0.587234 0
M  V30 5065 C 485.65 -3.95505 1.73781 0
M  V30 5066 C 484.785 -5.15722 1.27297 0
M  V30 5067 C 483.824 -5.63305 2.39488 0
M  V30 5068 N 482.961 -6.74758 1.94026 0
M  V30 5069 H 487.801 -2.26768 1.9334 0
M  V30 5070 H 485.338 -1.11171 0.963297 0
M  V30 5071 H 487.296 -4.15899 0.329227 0
M  V30 5072 H 485.926 -3.21314 -0.309426 0
M  V30 5073 H 484.978 -3.16513 2.11006 0
M  V30 5074 H 486.29 -4.26797 2.58158 0
M  V30 5075 H 485.444 -5.98854 0.972546 0
M  V30 5076 H 484.183 -4.86061 0.399445 0
M  V30 5077 H 483.188 -4.78759 2.70315 0
M  V30 5078 H 484.413 -5.94988 3.27362 0
M  V30 5079 H 482.359 -6.46874 1.09041 0
M  V30 5080 H 482.276 -7.05386 2.71968 0
M  V30 5081 H 483.544 -7.61387 1.67062 0
M  V30 5082 N 487.773 -1.03688 -1.18687 0
M  V30 5083 C 489.001 -0.757918 -1.92518 0
M  V30 5084 C 489.416 0.684398 -1.75959 0
M  V30 5085 O 488.773 1.46617 -1.08673 0
M  V30 5086 C 488.824 -1.10985 -3.44042 0
M  V30 5087 O 488.545 -2.49554 -3.60076 0
M  V30 5088 C 490.046 -0.854844 -4.3498 0
M  V30 5089 H 487.266 -0.276699 -0.611293 0
M  V30 5090 H 489.81 -1.38352 -1.50595 0
M  V30 5091 H 487.965 -0.529279 -3.83767 0
M  V30 5092 H 488.379 -2.6291 -4.53849 0
M  V30 5093 H 489.853 -1.15098 -5.39867 0
M  V30 5094 H 490.33 0.210507 -4.38695 0
M  V30 5095 H 490.936 -1.41853 -4.00946 0
M  V30 5096 N 489.251 1.34841 -0.815825 0
M  V30 5097 C 490.198 2.29644 -0.230664 0
M  V30 5098 C 491.168 1.53253 0.640533 0
M  V30 5099 O 492.353 1.81653 0.583672 0
M  V30 5100 C 489.493 3.39715 0.607275 0
M  V30 5101 C 488.606 4.31056 -0.28538 0
M  V30 5102 C 487.741 5.28225 0.561446 0
M  V30 5103 C 486.78 6.11204 -0.331035 0
M  V30 5104 N 485.917 7.00483 0.476302 0
M  V30 5105 H 490.757 2.79095 -1.0445 0
M  V30 5106 H 488.294 1.37351 -0.526595 0
M  V30 5107 H 490.252 4.02208 1.10835 0
M  V30 5108 H 488.882 2.91517 1.38629 0
M  V30 5109 H 487.934 3.69487 -0.904621 0
M  V30 5110 H 489.246 4.89239 -0.97193 0
M  V30 5111 H 488.4 5.96135 1.12728 0
M  V30 5112 H 487.139 4.70562 1.28153 0
M  V30 5113 H 486.144 5.42232 -0.909069 0
M  V30 5114 H 487.369 6.70947 -1.04912 0
M  V30 5115 H 485.315 6.45296 1.18019 0
M  V30 5116 H 485.232 7.55847 -0.152008 0
M  V30 5117 H 486.5 7.7273 1.02512 0
M  V30 5118 N 490.729 0.570148 1.46925 0
M  V30 5119 C 491.692 -0.159933 2.28641 0
M  V30 5120 C 492.692 -0.830638 1.37685 0
M  V30 5121 O 493.882 -0.684516 1.60187 0
M  V30 5122 C 491.014 -1.2354 3.17727 0
M  V30 5123 H 492.207 0.558035 2.94662 0
M  V30 5124 H 489.76 0.327603 1.52828 0
M  V30 5125 H 490.495 -1.98535 2.56426 0
M  V30 5126 H 490.28 -0.759125 3.84681 0
M  V30 5127 H 491.77 -1.74782 3.79264 0
M  V30 5128 N 492.207 -1.54576 0.307264 0
M  V30 5129 C 493.432 -2.05139 -0.305379 0
M  V30 5130 C 493.857 -1.18278 -1.46259 0
M  V30 5131 O 493.215 -0.188243 -1.8032 0
M  V30 5132 C 493.263 -3.53066 -0.733283 0
M  V30 5133 O 492.367 -3.69206 -1.83741 0
M  V30 5134 H 491.708 -0.661444 -0.0582105 0
M  V30 5135 H 494.238 -1.99569 0.450931 0
M  V30 5136 H 494.248 -3.95034 -1.02039 0
M  V30 5137 H 492.923 -4.15746 0.113198 0
M  V30 5138 H 491.5 -3.39143 -1.55037 0
M  V30 5139 N 493.685 -0.035106 -1.57561 0
M  V30 5140 C 494.615 0.942993 -2.13612 0
M  V30 5141 C 495.596 1.33531 -1.05373 0
M  V30 5142 O 496.781 1.41287 -1.33235 0
M  V30 5143 C 493.911 2.22332 -2.66807 0
M  V30 5144 C 492.865 1.97156 -3.79886 0
M  V30 5145 C 492.191 3.31506 -4.19533 0
M  V30 5146 C 493.491 1.30596 -5.05709 0
M  V30 5147 H 495.185 0.476179 -2.95589 0
M  V30 5148 H 492.731 0.227602 -1.4219 0
M  V30 5149 H 494.684 2.91142 -3.04654 0
M  V30 5150 H 493.408 2.7119 -1.81999 0
M  V30 5151 H 492.067 1.30763 -3.42486 0
M  V30 5152 H 491.715 3.78134 -3.31698 0
M  V30 5153 H 491.415 3.15465 -4.95738 0
M  V30 5154 H 492.939 4.01574 -4.59968 0
M  V30 5155 H 494.353 1.89416 -5.41105 0
M  V30 5156 H 492.75 1.24934 -5.86951 0
M  V30 5157 H 493.82 0.279742 -4.84092 0
M  V30 5158 N 495.163 1.55791 0.238111 0
M  V30 5159 C 496.093 1.94068 1.29846 0
M  V30 5160 C 497.074 0.806726 1.49753 0
M  V30 5161 O 498.259 1.06772 1.62214 0
M  V30 5162 C 495.389 2.24302 2.65153 0
M  V30 5163 C 494.343 3.40032 2.59927 0
M  V30 5164 C 493.669 3.55829 3.99111 0
M  V30 5165 C 494.969 4.75476 2.16148 0
M  V30 5166 H 496.663 2.82887 0.980563 0
M  V30 5167 H 494.209 1.36105 0.470253 0
M  V30 5168 H 496.162 2.4967 3.39475 0
M  V30 5169 H 494.886 1.32318 2.98596 0
M  V30 5170 H 493.545 3.14687 1.88063 0
M  V30 5171 H 493.193 2.6125 4.29834 0
M  V30 5172 H 492.893 4.3366 3.96501 0
M  V30 5173 H 494.417 3.83528 4.7512 0
M  V30 5174 H 495.831 5.00158 2.80205 0
M  V30 5175 H 494.228 5.56472 2.24631 0
M  V30 5176 H 495.298 4.71946 1.11333 0
M  V30 5177 N 496.642 -0.504142 1.49319 0
M  V30 5178 C 497.888 -1.26033 1.58882 0
M  V30 5179 C 498.221 -1.92268 0.273274 0
M  V30 5180 O 497.496 -1.80567 -0.72291 0
M  V30 5181 C 497.779 -2.32976 2.7458 0
M  V30 5182 C 497.632 -1.71263 4.1592 0
M  V30 5183 C 498.951 -3.34561 2.85932 0
M  V30 5184 H 496.07 -0.456863 0.578312 0
M  V30 5185 H 498.712 -0.558965 1.81592 0
M  V30 5186 H 496.862 -2.92796 2.55348 0
M  V30 5187 H 498.534 -1.15294 4.4666 0
M  V30 5188 H 496.777 -1.01686 4.21714 0
M  V30 5189 H 497.448 -2.48816 4.92742 0
M  V30 5190 H 499.924 -2.84727 3.0343 0
M  V30 5191 H 498.8 -4.06754 3.68568 0
M  V30 5192 H 499.061 -3.96695 1.95154 0
M  V30 5193 N 498.12 -1.38341 -0.754957 0
M  V30 5194 C 499.345 -1.37882 -1.5493 0
M  V30 5195 C 499.77 0.0296385 -1.88077 0
M  V30 5196 O 499.128 1.01133 -1.50472 0
M  V30 5197 C 499.176 -2.23996 -2.82592 0
M  V30 5198 O 498.28 -1.65612 -3.77686 0
M  V30 5199 H 497.621 -0.470384 -0.468652 0
M  V30 5200 H 500.151 -1.82084 -0.933082 0
M  V30 5201 H 500.161 -2.37806 -3.3153 0
M  V30 5202 H 498.836 -3.26365 -2.57796 0
M  V30 5203 H 497.413 -1.60936 -3.36384 0
M  V30 5204 N 499.598 0.982988 -1.23187 0
M  V30 5205 C 500.546 2.09616 -1.00817 0
M  V30 5206 C 501.54 1.6932 0.0519995 0
M  V30 5207 O 502.746 1.79715 -0.101284 0
M  V30 5208 H 499.121 0.685628 -0.308899 0
M  V30 5209 H 501.092 2.25652 -1.95253 0
M  V30 5210 C 499.841 3.42249 -0.613243 0
M  V30 5211 H 499.164 3.73705 -1.42073 0
M  V30 5212 H 500.604 4.21086 -0.496208 0
M  V30 5213 C 499.063 3.30002 0.678233 0
M  V30 5214 O 499.593 3.6263 1.72807 0
M  V30 5215 N 497.799 2.83164 0.653165 0
M  V30 5216 H 497.346 2.56811 -0.201492 0
M  V30 5217 H 497.304 2.75352 1.51752 0
M  V30 5218 N 501.076 1.04316 1.18135 0
M  V30 5219 C 502.008 0.594444 2.21357 0
M  V30 5220 C 503.021 -0.337215 1.59269 0
M  V30 5221 O 504.21 -0.131337 1.78016 0
M  V30 5222 C 501.31 -0.151251 3.38562 0
M  V30 5223 C 500.483 0.788907 4.30227 0
M  V30 5224 C 499.542 0.0860572 5.2613 0
M  V30 5225 O 498.568 0.717302 5.64662 0
M  V30 5226 N 499.77 -1.17969 5.68387 0
M  V30 5227 H 502.535 1.48227 2.60478 0
M  V30 5228 H 500.096 0.92396 1.32946 0
M  V30 5229 H 502.088 -0.631352 3.99745 0
M  V30 5230 H 500.658 -0.940639 2.98112 0
M  V30 5231 H 499.878 1.44882 3.6661 0
M  V30 5232 H 501.166 1.42738 4.88368 0
M  V30 5233 H 500.564 -1.71302 5.3914 0
M  V30 5234 H 499.121 -1.60402 6.31755 0
M  V30 5235 N 502.554 -1.34406 0.822964 0
M  V30 5236 C 503.502 -2.31428 0.233165 0
M  V30 5237 C 504.496 -1.57404 -0.626118 0
M  V30 5238 O 505.702 -1.72402 -0.517453 0
M  V30 5239 H 502.077 -0.749863 0.0566557 0
M  V30 5240 H 504.048 -2.78699 1.06628 0
M  V30 5241 C 502.797 -3.42653 -0.590264 0
M  V30 5242 H 502.12 -3.99753 0.0616129 0
M  V30 5243 H 503.56 -4.12778 -0.969054 0
M  V30 5244 C 502.019 -2.87112 -1.76262 0
M  V30 5245 O 502.549 -2.81995 -2.8608 0
M  V30 5246 N 500.755 -2.43934 -1.57938 0
M  V30 5247 H 500.302 -2.48296 -0.686078 0
M  V30 5248 H 500.26 -2.07123 -2.36532 0
M  V30 5249 N 504.032 -0.577932 -1.46621 0
M  V30 5250 C 505.28 -0.061566 -2.02006 0
M  V30 5251 C 505.601 1.30117 -1.4524 0
M  V30 5252 O 504.871 1.85313 -0.63529 0
M  V30 5253 H 503.451 -0.0197692 -0.746738 0
M  V30 5254 H 506.113 -0.752631 -1.79782 0
M  V30 5255 H 505.209 0.0110238 -3.12098 0
M  V30 5256 N 505.51 1.54411 -0.315457 0
M  V30 5257 C 506.458 2.25514 0.569771 0
M  V30 5258 C 507.452 1.2663 1.12522 0
M  V30 5259 O 508.658 1.44434 1.07419 0
M  V30 5260 H 505.033 0.724257 0.202376 0
M  V30 5261 H 507.004 2.98354 -0.0522895 0
M  V30 5262 C 505.753 3.02004 1.72305 0
M  V30 5263 H 505.076 3.77906 1.30488 0
M  V30 5264 H 506.516 3.55014 2.31821 0
M  V30 5265 C 504.975 2.09822 2.63583 0
M  V30 5266 O 505.505 1.67574 3.65078 0
M  V30 5267 N 503.711 1.75478 2.31637 0
M  V30 5268 H 503.258 2.10032 1.49145 0
M  V30 5269 H 503.216 1.14079 2.92973 0
M  V30 5270 N 506.988 0.0434614 1.5754 0
M  V30 5271 C 507.921 -0.968729 2.06618 0
M  V30 5272 C 508.899 -1.30868 0.965 0
M  V30 5273 O 510.083 -1.42288 1.23638 0
M  V30 5274 C 507.21 -2.28486 2.50023 0
M  V30 5275 C 506.256 -2.09851 3.71302 0
M  V30 5276 S 507.089 -1.38401 5.17306 0
M  V30 5277 C 508.245 -2.71354 5.64019 0
M  V30 5278 H 508.478 -0.551021 2.92149 0
M  V30 5279 H 506.011 -0.168607 1.53477 0
M  V30 5280 H 507.969 -3.04142 2.75695 0
M  V30 5281 H 506.63 -2.67387 1.64812 0
M  V30 5282 H 505.823 -3.07184 3.99567 0
M  V30 5283 H 505.425 -1.42336 3.45856 0
M  V30 5284 H 507.717 -3.67549 5.69134 0
M  V30 5285 H 508.66 -2.47734 6.6335 0
M  V30 5286 H 509.068 -2.77259 4.91719 0
M  V30 5287 N 508.466 -1.55915 -0.229846 0
M  V30 5288 C 509.696 -1.82352 -0.971152 0
M  V30 5289 C 510.104 -0.619231 -1.7878 0
M  V30 5290 O 509.447 0.421597 -1.78797 0
M  V30 5291 C 509.509 -3.02399 -1.9441 0
M  V30 5292 C 509.173 -4.37739 -1.31277 0
M  V30 5293 C 510.17 -5.15074 -0.706757 0
M  V30 5294 C 507.855 -4.84454 -1.32702 0
M  V30 5295 C 509.849 -6.37281 -0.123413 0
M  V30 5296 C 507.536 -6.06605 -0.739831 0
M  V30 5297 C 508.534 -6.82858 -0.139071 0
M  V30 5298 O 508.222 -8.027 0.439007 0
M  V30 5299 H 507.954 -0.61035 -0.290601 0
M  V30 5300 H 510.508 -2.03839 -0.252746 0
M  V30 5301 H 508.738 -2.76709 -2.70128 0
M  V30 5302 H 510.427 -3.15779 -2.55026 0
M  V30 5303 H 511.193 -4.80093 -0.688131 0
M  V30 5304 H 507.072 -4.25081 -1.78402 0
M  V30 5305 H 510.616 -6.96741 0.346124 0
M  V30 5306 H 506.513 -6.4106 -0.755841 0
M  V30 5307 H 507.281 -8.17824 0.332521 0
M  V30 5308 N 509.944 0.496216 -1.49584 0
M  V30 5309 C 511.172 1.27394 -1.63029 0
M  V30 5310 C 511.587 1.86344 -0.303569 0
M  V30 5311 O 510.944 1.68057 0.711547 0
M  V30 5312 C 510.995 2.40077 -2.70269 0
M  V30 5313 O 510.716 1.83549 -3.97796 0
M  V30 5314 C 512.217 3.31372 -2.94462 0
M  V30 5315 H 509.437 0.386211 -0.54871 0
M  V30 5316 H 511.981 0.595163 -1.95648 0
M  V30 5317 H 510.136 3.03775 -2.40415 0
M  V30 5318 H 510.55 2.57561 -4.56905 0
M  V30 5319 H 512.024 4.06707 -3.73221 0
M  V30 5320 H 512.501 3.88654 -2.0456 0
M  V30 5321 H 513.107 2.73435 -3.25751 0
M  V30 5322 N 511.423 1.38739 0.74761 0
M  V30 5323 C 512.648 1.38702 1.54197 0
M  V30 5324 C 513.073 -0.019664 1.8809 0
M  V30 5325 O 512.431 -1.00333 1.51006 0
M  V30 5326 C 512.479 2.25492 2.814 0
M  V30 5327 O 511.583 1.67613 3.76802 0
M  V30 5328 H 510.924 0.472863 0.466151 0
M  V30 5329 H 513.454 1.82577 0.923413 0
M  V30 5330 H 513.464 2.39561 3.30264 0
M  V30 5331 H 512.139 3.27727 2.56062 0
M  V30 5332 H 510.716 1.62718 3.35526 0
M  V30 5333 N 512.901 -0.976442 1.23707 0
M  V30 5334 C 514.126 -1.75875 1.09922 0
M  V30 5335 C 514.551 -1.84911 -0.34489 0
M  V30 5336 O 513.909 -1.31363 -1.24954 0
M  V30 5337 C 513.957 -3.16179 1.73388 0
M  V30 5338 O 513.061 -4.00124 0.99871 0
M  V30 5339 H 512.402 -0.540954 0.385052 0
M  V30 5340 H 514.932 -1.22546 1.6384 0
M  V30 5341 H 514.942 -3.66741 1.78788 0
M  V30 5342 H 513.617 -3.08917 2.78466 0
M  V30 5343 H 512.194 -3.58624 1.02193 0
M  V30 5344 N 514.379 -1.04941 -1.1758 0
M  V30 5345 C 515.625 -0.759112 -1.88057 0
M  V30 5346 C 515.958 0.711918 -1.8068 0
M  V30 5347 O 515.233 1.52035 -1.21308 0
M  V30 5348 C 515.516 -1.237 -3.38187 0
M  V30 5349 C 515.369 -2.77078 -3.54327 0
M  V30 5350 C 516.688 -0.834014 -4.32125 0
M  V30 5351 H 513.807 -0.277237 -0.682868 0
M  V30 5352 H 516.449 -1.30296 -1.38286 0
M  V30 5353 H 514.599 -0.774337 -3.80705 0
M  V30 5354 H 516.271 -3.31449 -3.20842 0
M  V30 5355 H 514.514 -3.16477 -2.96689 0
M  V30 5356 H 515.185 -3.05577 -4.59703 0
M  V30 5357 H 517.661 -1.23228 -3.97434 0
M  V30 5358 H 516.537 -1.19603 -5.35711 0
M  V30 5359 H 516.798 0.262195 -4.41322 0
M  V30 5360 N 515.857 1.33968 -0.830081 0
M  V30 5361 C 517.087 2.01987 -0.434142 0
M  V30 5362 C 517.495 1.62639 0.96671 0
M  V30 5363 O 516.838 0.831151 1.63822 0
M  V30 5364 C 516.9 3.5648 -0.465018 0
M  V30 5365 C 516.564 4.19176 -1.82045 0
M  V30 5366 C 517.561 4.39181 -2.78237 0
M  V30 5367 C 515.246 4.55792 -2.11089 0
M  V30 5368 C 517.24 4.94937 -4.01642 0
M  V30 5369 C 514.927 5.11258 -3.34752 0
M  V30 5370 C 515.925 5.30775 -4.29845 0
M  V30 5371 O 515.613 5.85064 -5.51322 0
M  V30 5372 H 515.345 0.653847 -0.171639 0
M  V30 5373 H 517.899 1.72066 -1.12171 0
M  V30 5374 H 516.129 3.8569 0.279284 0
M  V30 5375 H 517.818 4.05804 -0.0881334 0
M  V30 5376 H 518.584 4.11249 -2.57097 0
M  V30 5377 H 514.463 4.39901 -1.3787 0
M  V30 5378 H 518.007 5.10086 -4.75876 0
M  V30 5379 H 513.904 5.38619 -3.55753 0
M  V30 5380 H 514.672 6.03489 -5.5294 0
M  V30 5381 N 517.335 0.585699 1.46312 0
M  V30 5382 C 518.583 0.072278 2.01971 0
M  V30 5383 C 518.904 -1.29345 1.45928 0
M  V30 5384 O 518.174 -1.84973 0.645109 0
M  V30 5385 H 516.754 0.023729 0.746623 0
M  V30 5386 H 519.416 0.762155 1.7938 0
M  V30 5387 H 518.512 0.00552767 3.121 0
M  V30 5388 N 518.813 -1.54241 0.323641 0
M  V30 5389 C 520.038 -2.05452 -0.283605 0
M  V30 5390 C 520.463 -1.19823 -1.44997 0
M  V30 5391 O 519.821 -0.207358 -1.8011 0
M  V30 5392 C 519.869 -3.53823 -0.695795 0
M  V30 5393 O 518.973 -3.71134 -1.79815 0
M  V30 5394 H 518.314 -0.662024 -0.0511917 0
M  V30 5395 H 520.844 -1.99079 0.472073 0
M  V30 5396 H 520.854 -3.96094 -0.978434 0
M  V30 5397 H 519.529 -4.15602 0.157287 0
M  V30 5398 H 518.106 -3.40768 -1.51431 0
M  V30 5399 N 520.291 -0.0518155 -1.57515 0
M  V30 5400 C 521.221 0.920283 -2.146 0
M  V30 5401 C 522.202 1.32406 -1.06783 0
M  V30 5402 O 523.387 1.39866 -1.34726 0
M  V30 5403 C 520.517 2.1949 -2.6915 0
M  V30 5404 C 519.471 1.93116 -3.81956 0
M  V30 5405 C 518.797 3.27037 -4.23026 0
M  V30 5406 C 520.097 1.25225 -5.07066 0
M  V30 5407 H 521.791 0.444801 -2.96077 0
M  V30 5408 H 519.337 0.212508 -1.42423 0
M  V30 5409 H 521.29 2.87894 -3.07725 0
M  V30 5410 H 520.014 2.69244 -1.84865 0
M  V30 5411 H 518.673 1.27123 -3.43854 0
M  V30 5412 H 518.321 3.74595 -3.3569 0
M  V30 5413 H 518.021 3.10189 -4.99056 0
M  V30 5414 H 519.545 3.96673 -4.64202 0
M  V30 5415 H 520.959 1.83666 -5.43083 0
M  V30 5416 H 519.356 1.18702 -5.88243 0
M  V30 5417 H 520.426 0.228382 -4.84362 0
M  V30 5418 N 521.769 1.56035 0.221574 0
M  V30 5419 C 522.732 1.91584 1.2581 0
M  V30 5420 C 523.732 0.794425 1.39805 0
M  V30 5421 O 524.922 1.06217 1.38071 0
M  V30 5422 C 522.054 2.16663 2.63192 0
M  V30 5423 H 523.247 2.8429 0.954935 0
M  V30 5424 H 520.8 1.49316 0.461988 0
M  V30 5425 H 521.535 1.26508 2.98607 0
M  V30 5426 H 521.32 2.98358 2.5441 0
M  V30 5427 H 522.81 2.45262 3.37988 0
M  V30 5428 N 523.247 -0.488276 1.49845 0
M  V30 5429 C 524.472 -1.26997 1.63971 0
M  V30 5430 C 524.897 -1.85427 0.315994 0
M  V30 5431 O 524.255 -1.66475 -0.718032 0
M  V30 5432 C 524.303 -2.36689 2.72049 0
M  V30 5433 O 523.407 -3.40882 2.32107 0
M  V30 5434 H 522.748 -0.374376 0.548396 0
M  V30 5435 H 525.278 -0.583104 1.96115 0
M  V30 5436 H 525.288 -2.82262 2.94605 0
M  V30 5437 H 523.963 -1.93529 3.68129 0
M  V30 5438 H 522.54 -3.01139 2.19931 0
M  V30 5439 N 524.725 -1.39134 -0.740242 0
M  V30 5440 C 525.971 -1.36273 -1.50192 0
M  V30 5441 C 526.304 0.0430136 -1.94152 0
M  V30 5442 O 525.579 1.00691 -1.66408 0
M  V30 5443 C 525.862 -2.33041 -2.74525 0
M  V30 5444 C 525.715 -3.82535 -2.36617 0
M  V30 5445 C 527.034 -2.27723 -3.76604 0
M  V30 5446 H 524.153 -0.496323 -0.544823 0
M  V30 5447 H 526.795 -1.70085 -0.846815 0
M  V30 5448 H 524.945 -2.04337 -3.30422 0
M  V30 5449 H 526.617 -4.21967 -1.86391 0
M  V30 5450 H 524.86 -3.99565 -1.68909 0
M  V30 5451 H 525.531 -4.45723 -3.2563 0
M  V30 5452 H 528.007 -2.53091 -3.30279 0
M  V30 5453 H 526.883 -2.97519 -4.61274 0
M  V30 5454 H 527.144 -1.28049 -4.2315 0
M  V30 5455 N 526.204 0.969867 -1.24223 0
M  V30 5456 C 527.134 2.08191 -1.05729 0
M  V30 5457 C 528.115 1.70075 0.0290765 0
M  V30 5458 O 529.3 1.93712 -0.137583 0
M  V30 5459 C 526.43 3.40991 -0.658995 0
M  V30 5460 C 525.384 3.93054 -1.69389 0
M  V30 5461 C 524.71 5.22171 -1.15072 0
M  V30 5462 C 526.01 4.21137 -3.08935 0
M  V30 5463 H 527.704 2.23921 -1.98746 0
M  V30 5464 H 525.25 1.07602 -0.956967 0
M  V30 5465 H 527.203 4.18221 -0.51662 0
M  V30 5466 H 525.927 3.25155 0.30686 0
M  V30 5467 H 524.586 3.17977 -1.82444 0
M  V30 5468 H 524.234 5.02694 -0.175539 0
M  V30 5469 H 523.934 5.57973 -1.84229 0
M  V30 5470 H 525.458 6.02013 -1.02042 0
M  V30 5471 H 526.872 4.8908 -2.99121 0
M  V30 5472 H 525.269 4.68163 -3.75425 0
M  V30 5473 H 526.339 3.27996 -3.57137 0
M  V30 5474 N 527.682 1.05563 1.17022 0
M  V30 5475 C 528.645 0.664098 2.19368 0
M  V30 5476 C 529.645 -0.286358 1.5823 0
M  V30 5477 O 530.835 -0.069728 1.7406 0
M  V30 5478 C 527.967 -0.0239932 3.40892 0
M  V30 5479 H 529.16 1.57 2.55521 0
M  V30 5480 H 526.713 0.849964 1.31169 0
M  V30 5481 H 527.448 -0.942988 3.10287 0
M  V30 5482 H 527.233 0.659351 3.86516 0
M  V30 5483 H 528.723 -0.283909 4.16634 0
M  V30 5484 N 529.16 -1.33526 0.837174 0
M  V30 5485 C 530.092 -2.28077 0.226579 0
M  V30 5486 C 531.105 -1.51666 -0.591717 0
M  V30 5487 O 532.294 -1.73511 -0.419064 0
M  V30 5488 C 529.394 -3.31597 -0.69978 0
M  V30 5489 C 528.567 -4.37329 0.0788067 0
M  V30 5490 C 527.626 -5.20526 -0.770637 0
M  V30 5491 O 526.652 -5.68811 -0.210453 0
M  V30 5492 N 527.854 -5.41639 -2.08825 0
M  V30 5493 H 530.619 -2.81115 1.03897 0
M  V30 5494 H 528.18 -1.46201 0.695476 0
M  V30 5495 H 530.172 -3.84158 -1.27298 0
M  V30 5496 H 528.742 -2.78848 -1.41288 0
M  V30 5497 H 527.962 -3.8529 0.833381 0
M  V30 5498 H 529.25 -5.05079 0.614238 0
M  V30 5499 H 528.648 -5.04108 -2.56693 0
M  V30 5500 H 527.205 -5.97263 -2.60998 0
M  V30 5501 N 530.638 -0.59345 -1.46 0
M  V30 5502 C 531.868 -0.0889642 -2.06408 0
M  V30 5503 C 532.276 1.22597 -1.44106 0
M  V30 5504 O 531.619 1.75448 -0.544398 0
M  V30 5505 C 531.681 0.139902 -3.59228 0
M  V30 5506 C 531.345 -1.09107 -4.43784 0
M  V30 5507 C 532.342 -2.00577 -4.79651 0
M  V30 5508 C 530.027 -1.31593 -4.84756 0
M  V30 5509 C 532.021 -3.12873 -5.55328 0
M  V30 5510 C 529.708 -2.44192 -5.60191 0
M  V30 5511 C 530.706 -3.34661 -5.95392 0
M  V30 5512 O 530.394 -4.45302 -6.69299 0
M  V30 5513 H 530.126 -0.0594613 -0.67338 0
M  V30 5514 H 532.68 -0.817 -1.88452 0
M  V30 5515 H 530.91 0.922672 -3.75531 0
M  V30 5516 H 532.599 0.594228 -4.01527 0
M  V30 5517 H 533.365 -1.84425 -4.48567 0
M  V30 5518 H 529.244 -0.620801 -4.56801 0
M  V30 5519 H 532.788 -3.83511 -5.82722 0
M  V30 5520 H 528.685 -2.60303 -5.90688 0
M  V30 5521 H 529.453 -4.43805 -6.87735 0
M  V30 5522 N 532.116 1.54067 -0.331816 0
M  V30 5523 C 533.341 2.05599 0.272705 0
M  V30 5524 C 533.766 1.2059 1.44359 0
M  V30 5525 O 533.124 0.216907 1.79998 0
M  V30 5526 C 533.172 3.54188 0.677021 0
M  V30 5527 O 532.276 3.72082 1.77844 0
M  V30 5528 H 531.617 0.662286 0.0476801 0
M  V30 5529 H 534.147 1.98826 -0.482624 0
M  V30 5530 H 534.157 3.96608 0.957415 0
M  V30 5531 H 532.832 4.15513 -0.179325 0
M  V30 5532 H 531.409 3.41566 1.49622 0
M  V30 5533 N 533.594 0.0601682 1.57485 0
M  V30 5534 C 535.005 -0.474217 1.80577 0
M  V30 5535 C 535.356 -1.70365 0.973147 0
M  V30 5536 O 534.481 -2.15544 0.192306 0
M  V30 5537 C 535.076 -0.867102 3.27516 0
M  V30 5538 C 533.635 -1.34642 3.51495 0
M  V30 5539 C 532.782 -0.32594 2.75378 0
M  V30 5540 H 535.733 0.285973 1.56102 0
M  V30 5541 H 535.754 -1.72938 3.38929 0
M  V30 5542 H 535.266 0.0278927 3.8809 0
M  V30 5543 H 533.367 -2.2603 2.96212 0
M  V30 5544 H 533.48 -1.33237 4.60201 0
M  V30 5545 H 531.844 -0.800749 2.41785 0
M  V30 5546 H 532.627 0.561125 3.38683 0
M  V30 5547 N 535.072 -1.5615 -0.213296 0
M  V30 5548 C 536.004 -1.89586 -1.28802 0
M  V30 5549 C 537.017 -0.784844 -1.42633 0
M  V30 5550 O 538.206 -1.06319 -1.43383 0
M  V30 5551 C 535.306 -2.09665 -2.66259 0
M  V30 5552 C 534.479 -3.40726 -2.7427 0
M  V30 5553 C 533.538 -3.50137 -3.92798 0
M  V30 5554 O 532.564 -4.23105 -3.8075 0
M  V30 5555 N 533.766 -2.81886 -5.07465 0
M  V30 5556 H 536.531 -2.82368 -1.00442 0
M  V30 5557 H 534.092 -1.56796 -0.403302 0
M  V30 5558 H 536.084 -2.13268 -3.43946 0
M  V30 5559 H 534.654 -1.23469 -2.87183 0
M  V30 5560 H 533.874 -3.4915 -1.82997 0
M  V30 5561 H 535.162 -4.27048 -2.76599 0
M  V30 5562 H 534.56 -2.22397 -5.2015 0
M  V30 5563 H 533.117 -2.91139 -5.83165 0
M  V30 5564 N 536.55 0.480323 -1.50102 0
M  V30 5565 C 537.482 1.59669 -1.64433 0
M  V30 5566 C 538.495 1.54063 -0.52615 0
M  V30 5567 O 539.684 1.59619 -0.798992 0
M  V30 5568 C 536.784 2.98527 -1.6042 0
M  V30 5569 C 535.957 3.291 -2.88117 0
M  V30 5570 C 535.016 4.47468 -2.76873 0
M  V30 5571 O 534.042 4.4823 -3.50825 0
M  V30 5572 N 535.244 5.48593 -1.89806 0
M  V30 5573 H 538.009 1.47795 -2.60723 0
M  V30 5574 H 535.57 0.66858 -1.4745 0
M  V30 5575 H 537.562 3.75666 -1.50523 0
M  V30 5576 H 536.132 3.04218 -0.719036 0
M  V30 5577 H 535.352 2.40662 -3.12211 0
M  V30 5578 H 536.64 3.46334 -3.72734 0
M  V30 5579 H 536.038 5.50791 -1.2902 0
M  V30 5580 H 534.595 6.24752 -1.85819 0
M  V30 5581 N 538.028 1.39524 0.732853 0
M  V30 5582 C 538.958 1.41153 1.86005 0
M  V30 5583 C 539.939 0.274614 1.67869 0
M  V30 5584 O 541.124 0.480745 1.88155 0
M  V30 5585 C 538.254 1.25638 3.23778 0
M  V30 5586 C 537.208 2.36752 3.56556 0
M  V30 5587 C 536.534 2.06326 4.93289 0
M  V30 5588 C 537.834 3.79069 3.5931 0
M  V30 5589 H 539.528 2.35484 1.84899 0
M  V30 5590 H 537.074 1.13348 0.888162 0
M  V30 5591 H 539.027 1.25398 4.0231 0
M  V30 5592 H 537.751 0.277772 3.25417 0
M  V30 5593 H 536.41 2.36213 2.80355 0
M  V30 5594 H 536.058 1.06897 4.9151 0
M  V30 5595 H 535.758 2.80757 5.16187 0
M  V30 5596 H 537.282 2.07739 5.74175 0
M  V30 5597 H 538.696 3.81526 4.27914 0
M  V30 5598 H 537.093 4.52878 3.93728 0
M  V30 5599 H 538.163 4.09893 2.59068 0
M  V30 5600 N 539.506 -0.963266 1.24736 0
M  V30 5601 C 540.469 -2.04013 1.04457 0
M  V30 5602 C 541.469 -1.608 0.000335555 0
M  V30 5603 O 542.659 -1.72515 0.241719 0
M  V30 5604 C 539.791 -3.35858 0.584162 0
M  V30 5605 H 540.984 -2.23436 2.00041 0
M  V30 5606 H 538.537 -1.13914 1.07021 0
M  V30 5607 H 539.272 -3.22128 -0.374673 0
M  V30 5608 H 539.057 -3.68568 1.3379 0
M  V30 5609 H 540.547 -4.1502 0.463451 0
M  V30 5610 N 540.985 -1.06182 -1.16461 0
M  V30 5611 C 542.233 -0.776326 -1.86595 0
M  V30 5612 C 542.554 0.69921 -1.82033 0
M  V30 5613 O 541.824 1.50579 -1.2531 0
M  V30 5614 H 540.404 -0.284184 -0.690832 0
M  V30 5615 H 543.066 -1.34308 -1.41235 0
M  V30 5616 H 542.162 -1.10022 -2.92064 0
M  V30 5617 N 542.463 1.3308 -0.844243 0
M  V30 5618 C 543.41 2.29104 -0.279323 0
M  V30 5619 C 544.38 1.54577 0.607882 0
M  V30 5620 O 545.565 1.8285 0.545009 0
M  V30 5621 C 542.705 3.40927 0.53508 0
M  V30 5622 C 541.818 4.30354 -0.376749 0
M  V30 5623 C 540.953 5.29297 0.449276 0
M  V30 5624 C 539.992 6.10365 -0.460606 0
M  V30 5625 N 539.129 7.01335 0.327612 0
M  V30 5626 H 543.969 2.76817 -1.10346 0
M  V30 5627 H 541.506 1.36203 -0.555611 0
M  V30 5628 H 543.464 4.04469 1.02278 0
M  V30 5629 H 542.094 2.94391 1.32414 0
M  V30 5630 H 541.146 3.67485 -0.982791 0
M  V30 5631 H 542.458 4.87067 -1.07549 0
M  V30 5632 H 541.612 5.98392 1.00058 0
M  V30 5633 H 540.351 4.73174 1.18143 0
M  V30 5634 H 539.356 5.40182 -1.02388 0
M  V30 5635 H 540.581 6.68571 -1.1912 0
M  V30 5636 H 538.527 6.47655 1.04305 0
M  V30 5637 H 538.444 7.55355 -0.3123 0
M  V30 5638 H 539.712 7.74731 0.86098 0
M  V30 5639 N 543.941 0.601185 1.45683 0
M  V30 5640 C 545.357 0.264315 1.57396 0
M  V30 5641 C 545.557 -1.23324 1.59353 0
M  V30 5642 O 544.613 -2.01594 1.52039 0
M  V30 5643 C 545.926 0.929839 2.85962 0
M  V30 5644 C 547.474 0.905156 2.99626 0
M  V30 5645 C 547.949 1.55057 4.30954 0
M  V30 5646 N 549.44 1.51576 4.37697 0
M  V30 5647 C 550.175 1.98436 5.37969 0
M  V30 5648 N 549.671 2.53352 6.44813 0
M  V30 5649 N 551.464 1.89242 5.29286 0
M  V30 5650 H 543.615 1.57363 1.42656 0
M  V30 5651 H 545.878 0.658831 0.681649 0
M  V30 5652 H 545.584 1.98404 2.90394 0
M  V30 5653 H 545.458 0.449224 3.74515 0
M  V30 5654 H 547.845 -0.14048 2.94765 0
M  V30 5655 H 547.926 1.42397 2.12501 0
M  V30 5656 H 547.57 2.5955 4.36573 0
M  V30 5657 H 547.5 1.00682 5.16886 0
M  V30 5658 H 549.991 1.11452 3.61091 0
M  V30 5659 H 550.304 2.86918 7.17564 0
M  V30 5660 H 548.649 2.57388 6.45582 0
M  V30 5661 H 551.84 1.46083 4.44722 0
M  V30 5662 H 552.013 2.26075 6.07284 0
M  V30 5663 N 545.419 -1.53889 0.339982 0
M  V30 5664 C 546.668 -2.00035 -0.258604 0
M  V30 5665 C 546.981 -1.23179 -1.51942 0
M  V30 5666 O 548.187 -1.59784 -2.19503 0
M  V30 5667 C 546.643 -3.56249 -0.511359 0
M  V30 5668 C 546.251 -4.41957 0.733349 0
M  V30 5669 C 547.995 -4.1082 -1.069 0
M  V30 5670 C 545.902 -5.89673 0.451591 0
M  V30 5671 H 544.832 -0.747284 -0.10041 0
M  V30 5672 H 547.483 -1.77776 0.454758 0
M  V30 5673 H 545.865 -3.7456 -1.28533 0
M  V30 5674 H 547.039 -4.35421 1.50815 0
M  V30 5675 H 545.354 -3.9836 1.21237 0
M  V30 5676 H 547.951 -5.18789 -1.2947 0
M  V30 5677 H 548.294 -3.63817 -2.02343 0
M  V30 5678 H 548.827 -3.96205 -0.355817 0
M  V30 5679 H 545.566 -6.40903 1.37565 0
M  V30 5680 H 545.086 -5.99122 -0.285193 0
M  V30 5681 H 546.765 -6.46965 0.0675067 0
M  V30 5682 N 546.897 -0.0685191 -1.57451 0
M  V30 5683 C 548.145 0.60016 -1.92983 0
M  V30 5684 C 548.466 1.70348 -0.949028 0
M  V30 5685 O 547.736 1.959 0.00335647 0
M  V30 5686 H 546.316 0.224682 -0.712409 0
M  V30 5687 H 548.978 -0.125605 -1.94495 0
M  V30 5688 H 548.074 1.02759 -2.94698 0
M  V30 5689 N 548.375 1.56261 0.205012 0
M  V30 5690 C 549.621 1.80306 0.9283 0
M  V30 5691 C 549.954 0.640932 1.83319 0
M  V30 5692 O 549.229 -0.359032 1.91158 0
M  V30 5693 C 549.512 3.14547 1.75306 0
M  V30 5694 C 549.365 4.41236 0.873562 0
M  V30 5695 C 550.684 3.45382 2.72762 0
M  V30 5696 H 547.803 0.655929 0.336044 0
M  V30 5697 H 550.445 1.88984 0.196211 0
M  V30 5698 H 548.595 3.0728 2.37721 0
M  V30 5699 H 550.267 4.60539 0.264887 0
M  V30 5700 H 548.51 4.33427 0.179773 0
M  V30 5701 H 549.181 5.31639 1.48541 0
M  V30 5702 H 551.657 3.52884 2.20481 0
M  V30 5703 H 550.533 4.40449 3.2756 0
M  V30 5704 H 550.794 2.68377 3.51321 0
M  V30 5705 N 549.853 -0.472356 1.50355 0
M  V30 5706 C 551.1 -1.22453 1.61281 0
M  V30 5707 C 551.428 -1.91972 0.31256 0
M  V30 5708 O 550.683 -1.82696 -0.701475 0
M  V30 5709 C 550.982 -2.29257 2.74182 0
M  V30 5710 C 550.648 -1.76999 4.14708 0
M  V30 5711 C 549.31 -1.62467 4.52944 0
M  V30 5712 C 551.662 -1.38215 5.0254 0
M  V30 5713 C 548.99 -1.07574 5.76754 0
M  V30 5714 C 551.342 -0.847638 6.26895 0
M  V30 5715 C 550.006 -0.688946 6.63935 0
M  V30 5716 H 549.276 -0.448087 0.590168 0
M  V30 5717 H 551.923 -0.520744 1.84284 0
M  V30 5718 H 550.228 -3.05538 2.45263 0
M  V30 5719 H 551.925 -2.87212 2.7984 0
M  V30 5720 H 548.515 -1.89276 3.84542 0
M  V30 5721 H 552.699 -1.48276 4.73633 0
M  V30 5722 H 547.955 -0.940237 6.04127 0
M  V30 5723 H 552.129 -0.538455 6.94315 0
M  V30 5724 H 549.756 -0.261435 7.5975 0
M  V30 5725 N 551.331 -1.39911 -0.725443 0
M  V30 5726 C 552.556 -1.41137 -1.5197 0
M  V30 5727 C 552.981 -0.010262 -1.88097 0
M  V30 5728 O 552.339 0.979184 -1.52583 0
M  V30 5729 C 552.387 -2.2994 -2.77777 0
M  V30 5730 O 551.491 -1.73586 -3.74088 0
M  V30 5731 H 550.832 -0.480219 -0.458569 0
M  V30 5732 H 553.362 -1.84023 -0.894249 0
M  V30 5733 H 553.372 -2.44785 -3.26411 0
M  V30 5734 H 552.047 -3.31759 -2.50816 0
M  V30 5735 H 550.624 -1.68035 -3.32894 0
M  V30 5736 N 552.809 0.956637 -1.25245 0
M  V30 5737 C 554.039 1.7332 -1.12445 0
M  V30 5738 C 554.447 1.86392 0.324732 0
M  V30 5739 O 553.79 1.35967 1.23526 0
M  V30 5740 C 553.852 3.16603 -1.70303 0
M  V30 5741 C 553.516 3.26966 -3.19284 0
M  V30 5742 C 554.513 3.11434 -4.16299 0
M  V30 5743 C 552.198 3.50851 -3.59456 0
M  V30 5744 C 554.192 3.1963 -5.51467 0
M  V30 5745 C 551.879 3.58684 -4.94761 0
M  V30 5746 C 552.877 3.43087 -5.90576 0
M  V30 5747 O 552.565 3.50598 -7.2342 0
M  V30 5748 H 552.297 0.549981 -0.393061 0
M  V30 5749 H 554.851 1.20892 -1.66055 0
M  V30 5750 H 553.081 3.70385 -1.11138 0
M  V30 5751 H 554.77 3.76109 -1.52632 0
M  V30 5752 H 555.536 2.92853 -3.86604 0
M  V30 5753 H 551.415 3.62053 -2.85375 0
M  V30 5754 H 554.959 3.07373 -6.26233 0
M  V30 5755 H 550.856 3.76782 -5.24124 0
M  V30 5756 H 551.624 3.67242 -7.31489 0
M  V30 5757 N 554.287 1.06798 1.15896 0
M  V30 5758 C 555.535 0.786211 1.8618 0
M  V30 5759 C 555.856 -0.689547 1.82401 0
M  V30 5760 O 555.126 -1.49913 1.26107 0
M  V30 5761 H 553.706 0.287843 0.689315 0
M  V30 5762 H 556.368 1.35055 1.40521 0
M  V30 5763 H 555.464 1.1157 2.91477 0
M  V30 5764 N 555.766 -1.3263 0.851289 0
M  V30 5765 C 556.991 -2.02097 0.466006 0
M  V30 5766 C 557.416 -1.63574 -0.928709 0
M  V30 5767 O 556.774 -0.834665 -1.60944 0
M  V30 5768 C 556.822 -3.55425 0.608737 0
M  V30 5769 O 555.926 -4.10827 -0.359878 0
M  V30 5770 H 555.267 -0.636911 0.187724 0
M  V30 5771 H 557.797 -1.69253 1.14955 0
M  V30 5772 H 557.807 -4.04986 0.495006 0
M  V30 5773 H 556.482 -3.82806 1.62581 0
M  V30 5774 H 555.059 -3.72349 -0.202666 0
M  V30 5775 N 557.244 -0.608902 -1.45362 0
M  V30 5776 C 558.492 -0.104401 -2.0183 0
M  V30 5777 C 558.813 1.27007 -1.47967 0
M  V30 5778 O 558.083 1.83924 -0.674455 0
M  V30 5779 H 556.663 -0.0356042 -0.746151 0
M  V30 5780 H 559.325 -0.790596 -1.78145 0
M  V30 5781 H 558.421 -0.0551793 -3.12051 0
M  V30 5782 N 558.722 1.53707 -0.348139 0
M  V30 5783 C 559.652 2.28111 0.498766 0
M  V30 5784 C 560.633 1.29851 1.09876 0
M  V30 5785 O 561.818 1.587 1.11928 0
M  V30 5786 C 558.948 3.05735 1.64753 0
M  V30 5787 C 557.902 4.11537 1.17565 0
M  V30 5788 C 557.228 4.77142 2.4133 0
M  V30 5789 C 558.528 5.21587 0.272844 0
M  V30 5790 H 560.222 2.99152 -0.121934 0
M  V30 5791 H 557.768 1.43875 -0.0600842 0
M  V30 5792 H 559.721 3.56526 2.24649 0
M  V30 5793 H 558.445 2.32354 2.2952 0
M  V30 5794 H 557.104 3.61665 0.599483 0
M  V30 5795 H 556.752 4.0035 3.04514 0
M  V30 5796 H 556.452 5.48626 2.10436 0
M  V30 5797 H 557.976 5.30719 3.01943 0
M  V30 5798 H 559.39 5.67986 0.778779 0
M  V30 5799 H 557.787 6.00074 0.0555849 0
M  V30 5800 H 558.857 4.79969 -0.689785 0
M  V30 5801 N 560.2 0.0768682 1.57412 0
M  V30 5802 C 561.163 -0.873949 2.11884 0
M  V30 5803 C 562.163 -1.22301 1.04398 0
M  V30 5804 O 563.353 -1.15545 1.30365 0
M  V30 5805 C 560.485 -2.17575 2.62438 0
M  V30 5806 H 561.678 -0.401278 2.97203 0
M  V30 5807 H 559.231 -0.171904 1.55352 0
M  V30 5808 H 559.966 -2.69368 1.80587 0
M  V30 5809 H 559.751 -1.93534 3.41009 0
M  V30 5810 H 561.241 -2.85631 3.04639 0
M  V30 5811 N 561.678 -1.56367 -0.196722 0
M  V30 5812 C 562.641 -1.93561 -1.22746 0
M  V30 5813 C 563.641 -0.816566 -1.38524 0
M  V30 5814 O 564.831 -1.084 -1.36363 0
M  V30 5815 C 561.963 -2.20823 -2.59712 0
M  V30 5816 H 563.156 -2.85774 -0.909586 0
M  V30 5817 H 560.709 -1.50032 -0.438174 0
M  V30 5818 H 561.444 -1.31243 -2.96557 0
M  V30 5819 H 561.229 -3.02368 -2.49632 0
M  V30 5820 H 562.719 -2.50608 -3.34044 0
M  V30 5821 N 563.156 0.464375 -1.50603 0
M  V30 5822 C 564.384 1.23907 -1.65695 0
M  V30 5823 C 564.799 1.85658 -0.343027 0
M  V30 5824 O 564.156 1.69529 0.675739 0
M  V30 5825 C 564.207 2.3429 -2.75301 0
M  V30 5826 O 563.928 1.7507 -4.01599 0
M  V30 5827 C 565.429 3.25051 -3.01424 0
M  V30 5828 H 562.649 0.374485 -0.556778 0
M  V30 5829 H 565.193 0.55353 -1.96866 0
M  V30 5830 H 563.348 2.98607 -2.46804 0
M  V30 5831 H 563.762 2.47812 -4.62266 0
M  V30 5832 H 565.236 3.98699 -3.81763 0
M  V30 5833 H 565.713 3.84227 -2.12758 0
M  V30 5834 H 566.319 2.66463 -3.31477 0
M  V30 5835 N 564.634 1.40294 0.718013 0
M  V30 5836 C 565.564 1.43118 1.84498 0
M  V30 5837 C 566.545 0.292403 1.67568 0
M  V30 5838 O 567.73 0.500675 1.87635 0
M  V30 5839 C 564.86 1.29065 3.22427 0
M  V30 5840 C 563.814 2.40521 3.54025 0
M  V30 5841 C 563.14 2.11546 4.91073 0
M  V30 5842 C 564.44 3.82859 3.55269 0
M  V30 5843 H 566.134 2.37432 1.82391 0
M  V30 5844 H 563.68 1.14283 0.87609 0
M  V30 5845 H 565.633 1.29658 4.00957 0
M  V30 5846 H 564.357 0.312271 3.25104 0
M  V30 5847 H 563.016 2.39173 2.77834 0
M  V30 5848 H 562.664 1.12104 4.90348 0
M  V30 5849 H 562.364 2.86216 5.1318 0
M  V30 5850 H 563.888 2.13817 5.71939 0
M  V30 5851 H 565.302 3.86044 4.23843 0
M  V30 5852 H 563.699 4.57029 3.88902 0
M  V30 5853 H 564.769 4.12617 2.54706 0
M  V30 5854 N 566.112 -0.949982 1.2575 0
M  V30 5855 C 567.342 -1.72721 1.13363 0
M  V30 5856 C 567.75 -1.86562 -0.314842 0
M  V30 5857 O 567.093 -1.36621 -1.22803 0
M  V30 5858 C 567.155 -3.15695 1.7198 0
M  V30 5859 C 566.819 -3.25268 3.21014 0
M  V30 5860 C 567.816 -3.09222 4.17945 0
M  V30 5861 C 565.501 -3.4894 3.61312 0
M  V30 5862 C 567.495 -3.16701 5.53154 0
M  V30 5863 C 565.182 -3.56055 4.96657 0
M  V30 5864 C 566.18 -3.3995 5.92387 0
M  V30 5865 O 565.868 -3.46757 7.25269 0
M  V30 5866 H 565.6 -0.547888 0.395973 0
M  V30 5867 H 568.154 -1.20009 1.66694 0
M  V30 5868 H 566.384 -3.69791 1.13101 0
M  V30 5869 H 568.073 -3.75295 1.54624 0
M  V30 5870 H 568.839 -2.90798 3.88151 0
M  V30 5871 H 564.718 -3.60534 2.87291 0
M  V30 5872 H 568.262 -3.04048 6.27854 0
M  V30 5873 H 564.159 -3.73997 5.26115 0
M  V30 5874 H 564.927 -3.63358 7.33426 0
M  V30 5875 N 567.59 -1.07411 -1.15328 0
M  V30 5876 C 568.815 -0.818856 -1.90551 0
M  V30 5877 C 569.24 0.622194 -1.77512 0
M  V30 5878 O 568.598 1.43484 -1.10824 0
M  V30 5879 C 568.646 -1.23267 -3.38877 0
M  V30 5880 O 567.75 -0.378345 -4.10661 0
M  V30 5881 H 567.091 -0.29827 -0.593238 0
M  V30 5882 H 569.621 -1.43289 -1.46046 0
M  V30 5883 H 569.631 -1.20912 -3.89672 0
M  V30 5884 H 568.306 -2.28226 -3.47686 0
M  V30 5885 H 566.883 -0.464437 -3.69996 0
M  V30 5886 N 569.068 1.32177 -0.85831 0
M  V30 5887 C 569.998 2.31282 -0.321041 0
M  V30 5888 C 570.979 1.59841 0.581786 0
M  V30 5889 O 572.164 1.87619 0.501262 0
M  V30 5890 C 569.294 3.4385 0.48832 0
M  V30 5891 C 568.248 4.26799 -0.320391 0
M  V30 5892 C 567.574 5.31164 0.613934 0
M  V30 5893 C 568.874 4.98829 -1.54813 0
M  V30 5894 H 570.568 2.76469 -1.14915 0
M  V30 5895 H 568.114 1.32916 -0.554028 0
M  V30 5896 H 570.067 4.12224 0.874626 0
M  V30 5897 H 568.791 2.97401 1.34983 0
M  V30 5898 H 567.45 3.60077 -0.688497 0
M  V30 5899 H 567.098 4.80967 1.47239 0
M  V30 5900 H 566.798 5.8755 0.0768097 0
M  V30 5901 H 568.322 6.024 0.997336 0
M  V30 5902 H 569.736 5.59864 -1.23392 0
M  V30 5903 H 568.133 5.64957 -2.02346 0
M  V30 5904 H 569.203 4.26483 -2.30739 0
M  V30 5905 N 570.547 0.616602 1.45037 0
M  V30 5906 C 571.494 -0.0969439 2.30596 0
M  V30 5907 C 572.464 -0.851151 1.42635 0
M  V30 5908 O 573.649 -0.835092 1.71554 0
M  V30 5909 C 570.789 -1.08234 3.27688 0
M  V30 5910 C 569.902 -0.328072 4.30752 0
M  V30 5911 C 569.037 -1.30399 5.14946 0
M  V30 5912 C 568.076 -0.538049 6.09731 0
M  V30 5913 N 567.213 -1.46371 6.86673 0
M  V30 5914 H 572.053 0.63864 2.91076 0
M  V30 5915 H 569.59 0.326733 1.43425 0
M  V30 5916 H 571.548 -1.66688 3.82454 0
M  V30 5917 H 570.178 -1.78523 2.68941 0
M  V30 5918 H 569.23 0.372136 3.78575 0
M  V30 5919 H 570.542 0.269142 4.98073 0
M  V30 5920 H 569.696 -1.96032 5.74157 0
M  V30 5921 H 568.435 -1.93514 4.47665 0
M  V30 5922 H 567.44 0.131852 5.49642 0
M  V30 5923 H 568.665 0.0881732 6.79043 0
M  V30 5924 H 566.611 -2.08233 6.22073 0
M  V30 5925 H 566.528 -0.920152 7.50379 0
M  V30 5926 H 567.796 -2.10932 7.50418 0
M  V30 5927 N 572.025 -1.5352 0.356285 0
M  V30 5928 C 573.271 -2.01414 -0.236653 0
M  V30 5929 C 573.604 -1.24339 -1.49176 0
M  V30 5930 O 572.879 -0.334496 -1.91602 0
M  V30 5931 C 573.162 -3.56059 -0.537982 0
M  V30 5932 C 573.015 -4.43835 0.730112 0
M  V30 5933 C 574.334 -4.19127 -1.34239 0
M  V30 5934 H 571.453 -0.732135 -0.0845386 0
M  V30 5935 H 574.095 -1.83854 0.479341 0
M  V30 5936 H 572.245 -3.71153 -1.14795 0
M  V30 5937 H 573.917 -4.40555 1.36782 0
M  V30 5938 H 572.16 -4.1218 1.3524 0
M  V30 5939 H 572.831 -5.49958 0.474358 0
M  V30 5940 H 575.307 -4.07809 -0.826498 0
M  V30 5941 H 574.183 -5.27378 -1.52198 0
M  V30 5942 H 574.444 -3.74581 -2.34822 0
M  V30 5943 N 573.503 -0.0852151 -1.57369 0
M  V30 5944 C 574.731 0.58946 -1.98325 0
M  V30 5945 C 575.146 1.62333 -0.96403 0
M  V30 5946 O 574.503 1.82438 0.0476395 0
M  V30 5947 C 574.554 1.24604 -3.39347 0
M  V30 5948 O 574.275 0.253532 -4.37366 0
M  V30 5949 C 575.776 2.00726 -3.95252 0
M  V30 5950 H 572.996 0.158783 -0.651942 0
M  V30 5951 H 575.54 -0.161584 -2.03861 0
M  V30 5952 H 573.695 1.94808 -3.34856 0
M  V30 5953 H 574.109 0.726207 -5.19448 0
M  V30 5954 H 575.583 2.42039 -4.96106 0
M  V30 5955 H 576.06 2.86919 -3.32527 0
M  V30 5956 H 576.666 1.3536 -4.03185 0
M  V30 5957 N 574.981 1.5647 0.188427 0
M  V30 5958 C 575.913 1.91611 1.25769 0
M  V30 5959 C 576.926 0.807436 1.41366 0
M  V30 5960 O 578.115 1.08586 1.41673 0
M  V30 5961 C 575.215 2.13874 2.6289 0
M  V30 5962 C 574.388 3.45047 2.68815 0
M  V30 5963 C 573.447 3.56342 3.87178 0
M  V30 5964 O 572.473 4.29109 3.73971 0
M  V30 5965 N 573.675 2.89924 5.02916 0
M  V30 5966 H 576.44 2.8393 0.959373 0
M  V30 5967 H 574.001 1.57418 0.378306 0
M  V30 5968 H 575.993 2.18713 3.4051 0
M  V30 5969 H 574.563 1.28022 2.85183 0
M  V30 5970 H 573.783 3.52017 1.77419 0
M  V30 5971 H 575.071 4.31395 2.6977 0
M  V30 5972 H 574.469 2.30644 5.16546 0
M  V30 5973 H 573.026 3.0038 5.78459 0
M  V30 5974 N 576.459 -0.456382 1.50847 0
M  V30 5975 C 577.736 -1.21739 1.53098 0
M  V30 5976 C 578.116 -2.09179 0.284132 0
M  V30 5977 O 577.464 -2.16466 -0.731773 0
M  V30 5978 C 577.674 -2.03573 2.83477 0
M  V30 5979 C 579.022 -2.61264 3.34703 0
M  V30 5980 O 580.046 -2.13802 2.84898 0
M  V30 5981 O 578.905 -3.47779 4.21559 0
M  V30 5982 H 575.999 -0.553219 0.614718 0
M  V30 5983 H 578.545 -0.467003 1.63148 0
M  V30 5984 H 577.317 -1.39232 3.65691 0
M  V30 5985 H 576.94 -2.85716 2.76499 0
M  V30 5986 N 577.937 -1.40673 -0.710563 0
M  V30 5987 C 578.9 -1.4108 -1.80635 0
M  V30 5988 C 579.9 -0.303783 -1.57904 0
M  V30 5989 O 581.09 -0.562937 -1.64853 0
M  V30 5990 C 578.222 -1.20748 -3.18799 0
M  V30 5991 H 579.415 -2.38612 -1.81671 0
M  V30 5992 H 576.968 -1.26595 -0.916704 0
M  V30 5993 H 577.703 -0.239964 -3.23411 0
M  V30 5994 H 577.488 -2.00941 -3.36698 0
M  V30 5995 H 578.978 -1.23833 -3.98817 0
M  V30 5996 N 579.415 0.9433 -1.26252 0
M  V30 5997 C 580.643 1.72367 -1.14443 0
M  V30 5998 C 581.058 1.86392 0.300572 0
M  V30 5999 O 580.415 1.36978 1.20596 0
M  V30 6000 C 580.466 3.13155 -1.806 0
M  V30 6001 O 580.187 2.99803 -3.19452 0
M  V30 6002 C 581.688 4.07417 -1.74717 0
M  V30 6003 H 578.908 0.539758 -0.398626 0
M  V30 6004 H 581.452 1.18268 -1.66832 0
M  V30 6005 H 579.607 3.64162 -1.32154 0
M  V30 6006 H 580.021 3.88697 -3.52158 0
M  V30 6007 H 581.495 5.03773 -2.25647 0
M  V30 6008 H 581.972 4.3337 -0.713244 0
M  V30 6009 H 582.578 3.6233 -2.22704 0
M  V30 6010 N 580.893 1.08022 1.14757 0
M  V30 6011 C 582.304 0.829144 1.67279 0
M  V30 6012 C 582.655 -0.644721 1.85305 0
M  V30 6013 O 581.78 -1.49838 1.56133 0
M  V30 6014 C 582.375 1.49855 3.03857 0
M  V30 6015 C 580.934 1.29482 3.53428 0
M  V30 6016 C 580.081 1.56386 2.28995 0
M  V30 6017 H 583.032 1.24134 0.988762 0
M  V30 6018 H 583.053 0.923572 3.69121 0
M  V30 6019 H 582.565 2.57123 2.90705 0
M  V30 6020 H 580.666 0.242669 3.71809 0
M  V30 6021 H 580.779 2.01974 4.34446 0
M  V30 6022 H 579.143 0.985217 2.34874 0
M  V30 6023 H 579.926 2.64851 2.18423 0
M  V30 6024 N 582.371 -1.3172 0.865308 0
M  V30 6025 C 583.619 -1.96487 0.472995 0
M  V30 6026 C 583.94 -1.68761 -0.976975 0
M  V30 6027 O 583.21 -1.00051 -1.68424 0
M  V30 6028 H 581.79 -0.726947 0.171922 0
M  V30 6029 H 584.452 -1.60612 1.10407 0
M  V30 6030 H 583.548 -3.0574 0.62687 0
M  V30 6031 N 583.85 -0.624285 -1.44708 0
M  V30 6032 C 585.075 -0.131171 -2.06985 0
M  V30 6033 C 585.5 1.18234 -1.46295 0
M  V30 6034 O 584.858 1.72375 -0.561842 0
M  V30 6035 C 584.906 -0.0226724 -3.60593 0
M  V30 6036 O 584.01 1.02314 -3.99507 0
M  V30 6037 H 583.351 -0.0816556 -0.65896 0
M  V30 6038 H 585.88 -0.859027 -1.85693 0
M  V30 6039 H 585.891 0.170138 -4.07645 0
M  V30 6040 H 584.566 -0.981685 -4.04148 0
M  V30 6041 H 583.143 0.805452 -3.64097 0
M  V30 6042 N 585.328 1.53329 -0.364422 0
M  V30 6043 C 586.291 2.24323 0.470292 0
M  V30 6044 C 587.291 1.25068 1.01067 0
M  V30 6045 O 588.481 1.49354 0.896605 0
M  V30 6046 C 585.613 2.97908 1.65722 0
M  V30 6047 H 586.806 2.9952 -0.150917 0
M  V30 6048 H 584.359 1.55868 -0.116092 0
M  V30 6049 H 585.094 2.2695 2.31655 0
M  V30 6050 H 584.879 3.70732 1.27671 0
M  V30 6051 H 586.369 3.5188 2.24878 0
M  V30 6052 N 586.806 0.0935595 1.57322 0
M  V30 6053 C 587.736 -0.863062 2.16964 0
M  V30 6054 C 588.717 -1.29528 1.10256 0
M  V30 6055 O 589.902 -1.36245 1.38387 0
M  V30 6056 C 587.032 -2.12276 2.74875 0
M  V30 6057 C 585.986 -1.82921 3.86942 0
M  V30 6058 C 585.312 -3.15707 4.31548 0
M  V30 6059 C 586.612 -1.11737 5.10208 0
M  V30 6060 H 588.306 -0.366145 2.97153 0
M  V30 6061 H 585.852 -0.174673 1.42937 0
M  V30 6062 H 587.805 -2.79634 3.1525 0
M  V30 6063 H 586.529 -2.64248 1.91938 0
M  V30 6064 H 585.188 -1.17961 3.47103 0
M  V30 6065 H 584.836 -3.65563 3.45504 0
M  V30 6066 H 584.536 -2.96849 5.07104 0
M  V30 6067 H 586.06 -3.84226 4.74555 0
M  V30 6068 H 587.474 -1.69203 5.47762 0
M  V30 6069 H 585.871 -1.03064 5.91183 0
M  V30 6070 H 586.941 -0.0998818 4.84797 0
M  V30 6071 N 588.284 -1.56567 -0.180126 0
M  V30 6072 C 589.561 -1.7235 -0.924931 0
M  V30 6073 C 589.941 -0.652523 -2.00762 0
M  V30 6074 O 589.289 0.334115 -2.26044 0
M  V30 6075 C 589.499 -3.1523 -1.49771 0
M  V30 6076 C 590.847 -3.75921 -1.97405 0
M  V30 6077 O 591.871 -3.18452 -1.59583 0
M  V30 6078 O 590.73 -4.7681 -2.67048 0
M  V30 6079 H 587.824 -0.703502 -0.434758 0
M  V30 6080 H 590.37 -1.6886 -0.168647 0
M  V30 6081 H 589.142 -3.84656 -0.718027 0
M  V30 6082 H 588.765 -3.23009 -2.31842 0
M  V30 6083 N 589.762 0.448376 -1.51087 0
M  V30 6084 C 590.709 1.54341 -1.71603 0
M  V30 6085 C 591.679 1.56463 -0.557536 0
M  V30 6086 O 592.864 1.73644 -0.79072 0
M  V30 6087 C 590.004 2.92148 -1.83695 0
M  V30 6088 C 589.117 2.99639 -3.11192 0
M  V30 6089 C 588.252 4.285 -3.13944 0
M  V30 6090 C 587.291 4.29819 -4.35801 0
M  V30 6091 N 586.428 5.50186 -4.36164 0
M  V30 6092 H 591.268 1.36151 -2.65079 0
M  V30 6093 H 588.805 0.661585 -1.31383 0
M  V30 6094 H 590.763 3.72093 -1.88687 0
M  V30 6095 H 589.393 3.0892 -0.936374 0
M  V30 6096 H 588.445 2.12425 -3.15562 0
M  V30 6097 H 589.757 2.96474 -4.01129 0
M  V30 6098 H 588.911 5.16811 -3.17791 0
M  V30 6099 H 587.65 4.34307 -2.21876 0
M  V30 6100 H 586.655 3.39902 -4.32142 0
M  V30 6101 H 587.88 4.25685 -5.29121 0
M  V30 6102 H 585.826 5.56735 -3.46961 0
M  V30 6103 H 585.743 5.48856 -5.19897 0
M  V30 6104 H 587.011 6.40559 -4.44189 0
M  V30 6105 N 591.24 1.41047 0.703093 0
M  V30 6106 C 592.489 1.39301 1.4587 0
M  V30 6107 C 592.802 0.00267077 1.956 0
M  V30 6108 O 594.008 -0.137414 2.71152 0
M  V30 6109 C 592.464 2.44891 2.63735 0
M  V30 6110 C 592.072 3.89796 2.20824 0
M  V30 6111 C 593.816 2.5227 3.41409 0
M  V30 6112 C 591.723 4.86955 3.35602 0
M  V30 6113 H 590.653 0.518005 0.547893 0
M  V30 6114 H 593.304 1.66839 0.764009 0
M  V30 6115 H 591.686 2.10472 3.35436 0
M  V30 6116 H 592.86 4.33424 1.56461 0
M  V30 6117 H 591.175 3.86008 1.56163 0
M  V30 6118 H 593.772 3.22044 4.26839 0
M  V30 6119 H 594.115 1.55714 3.86081 0
M  V30 6120 H 594.648 2.85742 2.7676 0
M  V30 6121 H 591.387 5.84888 2.9595 0
M  V30 6122 H 590.907 4.47982 3.98839 0
M  V30 6123 H 592.586 5.07361 4.01489 0
M  V30 6124 N 592.718 -0.936591 1.26751 0
M  V30 6125 C 593.946 -1.71758 1.15355 0
M  V30 6126 C 594.361 -1.86549 -0.290683 0
M  V30 6127 O 593.718 -1.37616 -1.19868 0
M  V30 6128 C 593.769 -3.12193 1.82258 0
M  V30 6129 O 593.49 -2.98105 3.21038 0
M  V30 6130 C 594.991 -4.06485 1.76875 0
M  V30 6131 H 592.211 -0.537636 0.401483 0
M  V30 6132 H 594.755 -1.17382 1.67457 0
M  V30 6133 H 592.91 -3.63456 1.34083 0
M  V30 6134 H 593.324 -3.86824 3.54214 0
M  V30 6135 H 594.798 -5.02569 2.28316 0
M  V30 6136 H 595.275 -4.32986 0.736216 0
M  V30 6137 H 595.881 -3.61144 2.24623 0
M  V30 6138 N 594.196 -1.08629 -1.14182 0
M  V30 6139 C 595.159 -0.722027 -2.1753 0
M  V30 6140 C 596.159 0.244305 -1.58933 0
M  V30 6141 O 597.349 0.0235545 -1.74184 0
M  V30 6142 C 594.481 -0.0663966 -3.40835 0
M  V30 6143 H 595.674 -1.63719 -2.51269 0
M  V30 6144 H 593.227 -0.884442 -1.28869 0
M  V30 6145 H 593.962 0.860389 -3.12678 0
M  V30 6146 H 593.747 -0.761598 -3.84632 0
M  V30 6147 H 595.237 0.173346 -4.1724 0
M  V30 6148 N 595.674 1.31259 -0.872281 0
M  V30 6149 C 596.899 2.0133 -0.498099 0
M  V30 6150 C 597.324 1.65031 0.902568 0
M  V30 6151 O 596.682 0.860164 1.59596 0
M  V30 6152 C 596.73 3.54411 -0.665205 0
M  V30 6153 O 595.834 4.11347 0.294473 0
M  V30 6154 H 595.175 0.633844 -0.197832 0
M  V30 6155 H 597.705 1.67402 -1.17633 0
M  V30 6156 H 597.715 4.04147 -0.559373 0
M  V30 6157 H 596.39 3.80171 -1.68651 0
M  V30 6158 H 594.967 3.72624 0.143403 0
M  V30 6159 N 597.152 0.631951 1.44375 0
M  V30 6160 C 598.082 -0.0593243 2.33425 0
M  V30 6161 C 599.063 -0.833964 1.48253 0
M  V30 6162 O 600.248 -0.799682 1.76971 0
M  V30 6163 C 597.378 -1.04096 3.31333 0
M  V30 6164 C 596.332 -0.377899 4.26328 0
M  V30 6165 C 595.658 -1.4695 5.14111 0
M  V30 6166 C 596.958 0.716371 5.17364 0
M  V30 6167 H 598.652 0.684287 2.91475 0
M  V30 6168 H 596.198 0.330518 1.40156 0
M  V30 6169 H 598.151 -1.53331 3.92514 0
M  V30 6170 H 596.875 -1.81547 2.71493 0
M  V30 6171 H 595.534 0.0938054 3.6648 0
M  V30 6172 H 595.182 -2.2349 4.50623 0
M  V30 6173 H 594.882 -1.03121 5.78481 0
M  V30 6174 H 596.406 -1.96363 5.78164 0
M  V30 6175 H 597.82 0.307089 5.72477 0
M  V30 6176 H 596.217 1.07784 5.90341 0
M  V30 6177 H 597.287 1.58316 4.58327 0
M  V30 6178 N 598.631 -1.53133 0.372548 0
M  V30 6179 C 599.871 -2.03267 -0.214943 0
M  V30 6180 C 600.235 -1.25362 -1.45425 0
M  V30 6181 O 601.436 -1.65536 -2.11781 0
M  V30 6182 C 599.707 -3.53985 -0.492897 0
M  V30 6183 S 601.266 -4.25977 -1.05307 0
M  V30 6184 H 598.084 -0.708289 -0.062029 0
M  V30 6185 H 600.686 -1.88539 0.517025 0
M  V30 6186 H 599.39 -4.08282 0.416442 0
M  V30 6187 H 598.921 -3.72887 -1.25375 0
M  V30 6188 H 600.936 -4.37731 -2.33679 0
M  V30 6189 N 600.109 -0.101901 -1.5727 0
M  V30 6190 C 601.386 0.602832 -1.86079 0
M  V30 6191 C 601.766 1.85912 -1 0
M  V30 6192 O 601.114 2.28379 -0.0742488 0
M  V30 6193 C 601.324 0.911694 -3.36881 0
M  V30 6194 C 602.672 1.2722 -4.05093 0
M  V30 6195 O 603.696 1.0025 -3.41802 0
M  V30 6196 O 602.555 1.7776 -5.16782 0
M  V30 6197 H 599.649 0.302366 -0.769743 0
M  V30 6198 H 602.195 -0.135113 -1.69161 0
M  V30 6199 H 600.967 0.0207256 -3.91295 0
M  V30 6200 H 600.59 1.70538 -3.59169 0
M  V30 6201 N 601.587 1.56661 0.17182 0
M  V30 6202 C 602.517 1.99401 1.21498 0
M  V30 6203 C 603.498 0.869516 1.46197 0
M  V30 6204 O 604.683 1.13556 1.57539 0
M  V30 6205 C 601.813 2.35346 2.55401 0
M  V30 6206 C 600.767 3.5075 2.45272 0
M  V30 6207 C 600.093 3.72437 3.8366 0
M  V30 6208 C 601.393 4.84216 1.95787 0
M  V30 6209 H 603.087 2.86792 0.859699 0
M  V30 6210 H 600.633 1.37977 0.412103 0
M  V30 6211 H 602.586 2.63843 3.2858 0
M  V30 6212 H 601.31 1.44864 2.92715 0
M  V30 6213 H 599.969 3.2238 1.74547 0
M  V30 6214 H 599.617 2.79246 4.18367 0
M  V30 6215 H 599.317 4.50087 3.77751 0
M  V30 6216 H 600.841 4.03334 4.58426 0
M  V30 6217 H 602.255 5.11592 2.5874 0
M  V30 6218 H 600.652 5.65498 2.00827 0
M  V30 6219 H 601.722 4.76243 0.912159 0
M  V30 6220 N 603.065 -0.440357 1.51323 0
M  V30 6221 C 604.012 -1.53429 1.72419 0
M  V30 6222 C 604.982 -1.56165 0.565826 0
M  V30 6223 O 606.167 -1.73222 0.799917 0
M  V30 6224 C 603.307 -2.91169 1.85242 0
M  V30 6225 C 602.42 -2.97985 3.12777 0
M  V30 6226 C 601.555 -4.26829 3.16212 0
M  V30 6227 C 600.594 -4.27501 4.38074 0
M  V30 6228 N 599.731 -5.47866 4.39076 0
M  V30 6229 H 604.571 -1.34743 2.65797 0
M  V30 6230 H 602.108 -0.654608 1.31732 0
M  V30 6231 H 604.066 -3.71087 1.90658 0
M  V30 6232 H 602.696 -3.0842 0.952744 0
M  V30 6233 H 601.748 -2.10749 3.16685 0
M  V30 6234 H 603.06 -2.94342 4.02696 0
M  V30 6235 H 602.214 -5.15118 3.20527 0
M  V30 6236 H 600.953 -4.33124 2.24176 0
M  V30 6237 H 599.958 -3.37606 4.33938 0
M  V30 6238 H 601.183 -4.22873 5.31371 0
M  V30 6239 H 599.129 -5.54887 3.49909 0
M  V30 6240 H 599.046 -5.46091 5.22801 0
M  V30 6241 H 600.314 -6.38195 4.4758 0
M  V30 6242 N 604.543 -1.41418 -0.695603 0
M  V30 6243 C 605.768 -1.44329 -1.48942 0
M  V30 6244 C 606.193 -0.0501579 -1.88033 0
M  V30 6245 O 605.551 0.946598 -1.54626 0
M  V30 6246 C 605.599 -2.3578 -2.72837 0
M  V30 6247 O 604.703 -1.81482 -3.70322 0
M  V30 6248 H 604.044 -0.489838 -0.44828 0
M  V30 6249 H 606.574 -1.85878 -0.855014 0
M  V30 6250 H 606.584 -2.51654 -3.21145 0
M  V30 6251 H 605.259 -3.37005 -2.43722 0
M  V30 6252 H 603.836 -1.75058 -3.29255 0
M  V30 6253 N 606.021 0.929856 -1.27246 0
M  V30 6254 C 607.437 1.20542 -1.04603 0
M  V30 6255 C 607.637 2.00276 0.221754 0
M  V30 6256 O 606.693 2.34835 0.927833 0
M  V30 6257 C 608.006 1.95566 -2.28417 0
M  V30 6258 C 609.554 2.08513 -2.33433 0
M  V30 6259 C 610.029 2.86943 -3.5697 0
M  V30 6260 N 611.52 2.94512 -3.57515 0
M  V30 6261 C 612.255 3.55656 -4.49774 0
M  V30 6262 N 611.751 4.18209 -5.52334 0
M  V30 6263 N 613.544 3.53038 -4.37402 0
M  V30 6264 H 605.695 0.397113 -2.08655 0
M  V30 6265 H 607.958 0.238277 -0.917566 0
M  V30 6266 H 607.664 1.44395 -3.20691 0
M  V30 6267 H 607.538 2.9619 -2.33563 0
M  V30 6268 H 609.925 2.58872 -1.41666 0
M  V30 6269 H 610.006 1.07117 -2.32292 0
M  V30 6270 H 609.65 2.37268 -4.49072 0
M  V30 6271 H 609.58 3.8862 -3.55362 0
M  V30 6272 H 612.071 2.50053 -2.83341 0
M  V30 6273 H 612.384 4.62796 -6.18902 0
M  V30 6274 H 610.729 4.16761 -5.56179 0
M  V30 6275 H 613.92 3.0337 -3.56489 0
M  V30 6276 H 614.093 4.004 -5.09493 0
M  V30 6277 N 607.499 1.09233 1.13605 0
M  V30 6278 C 608.429 0.751738 2.21068 0
M  V30 6279 C 609.41 -0.269688 1.67948 0
M  V30 6280 O 610.595 -0.13819 1.93708 0
M  V30 6281 C 607.725 0.16935 3.46887 0
M  V30 6282 C 606.679 1.12007 4.13084 0
M  V30 6283 C 606.005 0.399483 5.33206 0
M  V30 6284 C 607.305 2.46168 4.6065 0
M  V30 6285 H 608.999 1.65024 2.49815 0
M  V30 6286 H 606.545 0.794905 1.20072 0
M  V30 6287 H 608.498 -0.0809824 4.21322 0
M  V30 6288 H 607.222 -0.764335 3.1753 0
M  V30 6289 H 605.881 1.35564 3.40614 0
M  V30 6290 H 605.529 -0.538277 5.00112 0
M  V30 6291 H 605.229 1.03337 5.78442 0
M  V30 6292 H 606.753 0.157403 6.10397 0
M  V30 6293 H 608.167 2.26829 5.26518 0
M  V30 6294 H 606.564 3.05326 5.1662 0
M  V30 6295 H 607.634 3.07076 3.75276 0
M  V30 6296 N 608.977 -1.30795 0.87923 0
M  V30 6297 C 610.254 -1.91145 0.415086 0
M  V30 6298 C 610.634 -1.7995 -1.10368 0
M  V30 6299 O 609.982 -1.21305 -1.93642 0
M  V30 6300 C 610.192 -3.37014 0.906778 0
M  V30 6301 C 611.54 -4.14101 0.938358 0
M  V30 6302 O 612.564 -3.45834 0.853053 0
M  V30 6303 O 611.423 -5.36054 1.06342 0
M  V30 6304 H 608.517 -0.81736 0.125905 0
M  V30 6305 H 611.063 -1.39401 0.967753 0
M  V30 6306 H 609.835 -3.3922 1.95053 0
M  V30 6307 H 609.458 -3.96204 0.332948 0
M  V30 6308 N 610.455 -0.639598 -1.44038 0
M  V30 6309 C 611.68 -0.153117 -2.06834 0
M  V30 6310 C 612.105 1.16676 -1.47541 0
M  V30 6311 O 611.463 1.71769 -0.580093 0
M  V30 6312 C 611.511 -0.0609169 -3.60549 0
M  V30 6313 O 610.615 0.98071 -4.00569 0
M  V30 6314 H 609.956 -0.0886402 -0.658057 0
M  V30 6315 H 612.486 -0.878674 -1.84771 0
M  V30 6316 H 612.496 0.126892 -4.07803 0
M  V30 6317 H 611.171 -1.0245 -4.03084 0
M  V30 6318 H 609.748 0.766789 -3.64931 0
M  V30 6319 N 611.933 1.52934 -0.380664 0
M  V30 6320 C 613.349 1.59571 -0.0302429 0
M  V30 6321 C 613.549 1.39509 1.45394 0
M  V30 6322 O 612.605 1.20777 2.21741 0
M  V30 6323 C 613.918 2.96519 -0.499691 0
M  V30 6324 C 615.466 3.09672 -0.455204 0
M  V30 6325 C 615.941 4.49056 -0.900703 0
M  V30 6326 N 617.432 4.55215 -0.856367 0
M  V30 6327 C 618.167 5.61282 -1.17259 0
M  V30 6328 N 617.663 6.75035 -1.55885 0
M  V30 6329 N 619.456 5.51343 -1.0944 0
M  V30 6330 H 611.607 1.64224 -1.347 0
M  V30 6331 H 613.87 0.771033 -0.551554 0
M  V30 6332 H 613.576 3.16388 -1.53595 0
M  V30 6333 H 613.45 3.77052 0.105789 0
M  V30 6334 H 615.837 2.89504 0.571949 0
M  V30 6335 H 615.918 2.31113 -1.09638 0
M  V30 6336 H 615.562 4.69964 -1.92604 0
M  V30 6337 H 615.492 5.26068 -0.236629 0
M  V30 6338 H 617.983 3.73546 -0.572013 0
M  V30 6339 H 618.296 7.51926 -1.784 0
M  V30 6340 H 616.641 6.76388 -1.59764 0
M  V30 6341 H 619.832 4.61356 -0.791713 0
M  V30 6342 H 620.005 6.33905 -1.34417 0
M  V30 6343 N 613.412 0.11024 1.57214 0
M  V30 6344 C 614.64 -0.557834 1.99238 0
M  V30 6345 C 615.055 -1.60778 0.989734 0
M  V30 6346 O 614.412 -1.82491 -0.0186092 0
M  V30 6347 C 614.463 -1.19189 3.41286 0
M  V30 6348 O 614.184 -0.183919 4.37714 0
M  V30 6349 C 615.685 -1.94413 3.98395 0
M  V30 6350 H 612.905 -0.148392 0.654386 0
M  V30 6351 H 615.449 0.193996 2.03578 0
M  V30 6352 H 613.604 -1.89456 3.37913 0
M  V30 6353 H 614.018 -0.643475 5.20538 0
M  V30 6354 H 615.492 -2.34116 4.99894 0
M  V30 6355 H 615.969 -2.81592 3.3705 0
M  V30 6356 H 616.575 -1.28928 4.05287 0
M  V30 6357 N 614.89 -1.56749 -0.16351 0
M  V30 6358 C 616.138 -1.82074 -0.87713 0
M  V30 6359 C 616.459 -0.688503 -1.82441 0
M  V30 6360 O 615.729 0.291085 -1.93725 0
M  V30 6361 H 614.309 -0.671677 -0.326893 0
M  V30 6362 H 616.971 -1.9423 -0.161459 0
M  V30 6363 H 616.067 -2.76407 -1.44934 0
M  V30 6364 N 616.368 0.432326 -1.51554 0
M  V30 6365 C 617.614 1.18309 -1.64714 0
M  V30 6366 C 617.947 1.90745 -0.364696 0
M  V30 6367 O 617.222 1.8381 0.635936 0
M  V30 6368 C 617.505 2.1961 -2.85383 0
M  V30 6369 C 617.358 1.51223 -4.23617 0
M  V30 6370 C 618.677 3.20538 -3.01569 0
M  V30 6371 H 615.796 0.428751 -0.599451 0
M  V30 6372 H 618.438 0.471689 -1.84052 0
M  V30 6373 H 616.588 2.8028 -2.69027 0
M  V30 6374 H 618.26 0.938516 -4.51652 0
M  V30 6375 H 616.503 0.814501 -4.26085 0
M  V30 6376 H 617.174 2.25024 -5.04052 0
M  V30 6377 H 619.65 2.69926 -3.16669 0
M  V30 6378 H 618.526 3.88706 -3.87555 0
M  V30 6379 H 618.787 3.86933 -2.13859 0
M  V30 6380 N 617.846 1.41785 0.688094 0
M  V30 6381 C 618.809 1.43936 1.78368 0
M  V30 6382 C 619.809 0.328866 1.57401 0
M  V30 6383 O 620.999 0.589093 1.63937 0
M  V30 6384 C 618.131 1.25804 3.16838 0
M  V30 6385 H 619.324 2.41472 1.77852 0
M  V30 6386 H 616.877 1.28037 0.896448 0
M  V30 6387 H 617.612 0.291386 3.22988 0
M  V30 6388 H 617.397 2.06272 3.33458 0
M  V30 6389 H 618.887 1.30162 3.96797 0
M  V30 6390 N 619.324 -0.923095 1.27737 0
M  V30 6391 C 620.735 -1.48626 1.12993 0
M  V30 6392 C 621.086 -1.94142 -0.283439 0
M  V30 6393 O 620.211 -1.81605 -1.17681 0
M  V30 6394 C 620.806 -2.70117 2.04505 0
M  V30 6395 C 619.365 -3.22642 1.93853 0
M  V30 6396 C 618.512 -1.95368 1.96791 0
M  V30 6397 H 621.463 -0.736737 1.40563 0
M  V30 6398 H 621.484 -3.4506 1.60356 0
M  V30 6399 H 620.996 -2.36959 3.07363 0
M  V30 6400 H 619.097 -3.60549 0.939968 0
M  V30 6401 H 619.21 -3.88525 2.80331 0
M  V30 6402 H 617.574 -2.12061 1.41076 0
M  V30 6403 H 618.357 -1.64517 3.01312 0
M  V30 6404 N 620.802 -1.09834 -1.13024 0
M  V30 6405 C 622.079 -0.749225 -1.80682 0
M  V30 6406 C 622.459 0.765171 -1.96744 0
M  V30 6407 O 621.807 1.68912 -1.53886 0
M  V30 6408 C 622.017 -1.49311 -3.15448 0
M  V30 6409 C 623.365 -1.66162 -3.90737 0
M  V30 6410 O 624.389 -1.45597 -3.25085 0
M  V30 6411 O 623.248 -2.00211 -5.08505 0
M  V30 6412 H 620.342 -0.269614 -0.781817 0
M  V30 6413 H 622.888 -1.20078 -1.19914 0
M  V30 6414 H 621.66 -2.52407 -2.99009 0
M  V30 6415 H 621.283 -1.034 -3.8392 0
M  V30 6416 N 622.28 1.30327 -0.886154 0
M  V30 6417 C 623.526 1.96388 -0.505941 0
M  V30 6418 C 623.859 1.69784 0.942712 0
M  V30 6419 O 623.134 1.00322 1.6663 0
M  V30 6420 C 623.417 3.51488 -0.782826 0
M  V30 6421 C 623.27 3.87603 -2.28219 0
M  V30 6422 C 624.589 4.39331 -0.260128 0
M  V30 6423 H 621.708 0.713327 -0.185292 0
M  V30 6424 H 624.35 1.54178 -1.11036 0
M  V30 6425 H 622.5 3.87572 -0.268399 0
M  V30 6426 H 624.172 3.61537 -2.86512 0
M  V30 6427 H 622.415 3.3563 -2.74837 0
M  V30 6428 H 623.086 4.95806 -2.42653 0
M  V30 6429 H 625.562 4.10162 -0.700444 0
M  V30 6430 H 624.438 5.46769 -0.483179 0
M  V30 6431 H 624.699 4.34072 0.838674 0
M  V30 6432 N 623.758 0.647228 1.43697 0
M  V30 6433 C 625.005 0.158188 2.01881 0
M  V30 6434 C 625.333 -1.22573 1.51017 0
M  V30 6435 O 624.588 -1.83086 0.69122 0
M  V30 6436 C 624.887 0.111481 3.57226 0
M  V30 6437 C 624.553 1.43633 4.27411 0
M  V30 6438 C 623.215 1.79915 4.463 0
M  V30 6439 C 625.567 2.31011 4.67208 0
M  V30 6440 C 622.895 3.03251 5.02251 0
M  V30 6441 C 625.247 3.53633 5.24525 0
M  V30 6442 C 623.911 3.90118 5.41631 0
M  V30 6443 H 623.181 0.0578851 0.738736 0
M  V30 6444 H 625.828 0.836746 1.72252 0
M  V30 6445 H 624.133 -0.650507 3.86362 0
M  V30 6446 H 625.83 -0.283682 3.99995 0
M  V30 6447 H 622.42 1.14403 4.1305 0
M  V30 6448 H 626.604 2.04272 4.52313 0
M  V30 6449 H 621.86 3.31575 5.13681 0
M  V30 6450 H 626.034 4.21561 5.5431 0
M  V30 6451 H 623.661 4.85768 5.84751 0
M  V30 6452 N 625.236 -1.5273 0.388769 0
M  V30 6453 C 626.199 -2.25043 -0.434544 0
M  V30 6454 C 627.199 -1.26661 -0.990644 0
M  V30 6455 O 628.389 -1.50762 -0.872731 0
M  V30 6456 C 625.521 -3.00507 -1.60961 0
M  V30 6457 H 626.714 -2.99242 0.198549 0
M  V30 6458 H 624.267 -1.55664 0.140875 0
M  V30 6459 H 625.002 -2.30607 -2.28015 0
M  V30 6460 H 624.787 -3.72716 -1.21757 0
M  V30 6461 H 626.277 -3.55413 -2.19251 0
M  V30 6462 N 626.714 -0.118576 -1.57153 0
M  V30 6463 C 627.624 0.845484 -2.18835 0
M  V30 6464 C 628.64 1.29299 -1.16438 0
M  V30 6465 O 629.816 1.35607 -1.48905 0
M  V30 6466 C 626.881 2.07795 -2.77529 0
M  V30 6467 C 625.942 1.6824 -3.9496 0
M  V30 6468 C 625.175 2.85612 -4.50845 0
M  V30 6469 O 625.398 4.01025 -4.05629 0
M  V30 6470 O 624.332 2.62721 -5.41536 0
M  V30 6471 H 628.158 0.350568 -3.0167 0
M  V30 6472 H 625.743 0.107013 -1.49016 0
M  V30 6473 H 627.625 2.79978 -3.14945 0
M  V30 6474 H 626.3 2.56294 -1.97725 0
M  V30 6475 H 625.207 0.931663 -3.62313 0
M  V30 6476 H 626.54 1.24484 -4.76198 0
M  V30 6477 N 628.193 1.56834 0.155195 0
M  V30 6478 C 629.141 1.98584 1.21107 0
M  V30 6479 C 630.135 0.876987 1.44932 0
M  V30 6480 O 631.341 1.06215 1.45322 0
M  V30 6481 H 627.716 0.632039 0.407469 0
M  V30 6482 H 629.687 2.86561 0.832195 0
M  V30 6483 C 628.436 2.37555 2.53895 0
M  V30 6484 H 627.759 3.22428 2.3639 0
M  V30 6485 H 629.199 2.70598 3.26424 0
M  V30 6486 C 627.658 1.22507 3.13837 0
M  V30 6487 O 628.188 0.521388 3.98302 0
M  V30 6488 N 626.394 0.991444 2.73164 0
M  V30 6489 H 625.941 1.56544 2.04577 0
M  V30 6490 H 625.899 0.223546 3.13604 0
M  V30 6491 N 629.671 -0.424282 1.51781 0
M  V30 6492 C 630.604 -1.53633 1.68737 0
M  V30 6493 C 631.582 -1.53549 0.534915 0
M  V30 6494 O 632.766 -1.72483 0.760391 0
M  V30 6495 C 629.893 -2.92195 1.71288 0
M  V30 6496 C 628.939 -3.10251 2.92654 0
M  V30 6497 S 629.772 -2.85166 4.53256 0
M  V30 6498 C 630.928 -4.25986 4.58571 0
M  V30 6499 H 631.161 -1.39018 2.62795 0
M  V30 6500 H 628.694 -0.614854 1.41629 0
M  V30 6501 H 630.652 -3.72059 1.73443 0
M  V30 6502 H 629.313 -3.04162 0.783847 0
M  V30 6503 H 628.506 -4.1159 2.90877 0
M  V30 6504 H 628.108 -2.38231 2.88308 0
M  V30 6505 H 630.4 -5.19392 4.35015 0
M  V30 6506 H 631.343 -4.32792 5.60444 0
M  V30 6507 H 631.751 -4.1025 3.87757 0
M  V30 6508 N 631.149 -1.42148 -0.680565 0
M  V30 6509 C 632.096 -1.45175 -1.79424 0
M  V30 6510 C 633.066 -0.304352 -1.63288 0
M  V30 6511 O 634.251 -0.507591 -1.83924 0
M  V30 6512 C 631.391 -1.35429 -3.17416 0
M  V30 6513 C 630.504 -2.60158 -3.4488 0
M  V30 6514 C 629.639 -2.42596 -4.72568 0
M  V30 6515 C 628.678 -3.62727 -4.93047 0
M  V30 6516 N 627.815 -3.44143 -6.11973 0
M  V30 6517 H 632.655 -2.40349 -1.76172 0
M  V30 6518 H 630.192 -1.19334 -0.860107 0
M  V30 6519 H 632.15 -1.27777 -3.97151 0
M  V30 6520 H 630.78 -0.438536 -3.19807 0
M  V30 6521 H 629.832 -2.78199 -2.5944 0
M  V30 6522 H 631.144 -3.49473 -3.55908 0
M  V30 6523 H 630.298 -2.32497 -5.60384 0
M  V30 6524 H 629.037 -1.50761 -4.63813 0
M  V30 6525 H 628.042 -3.73264 -4.03676 0
M  V30 6526 H 629.267 -4.55534 -5.03652 0
M  V30 6527 H 627.213 -2.5502 -6.04401 0
M  V30 6528 H 627.13 -4.27041 -6.23836 0
M  V30 6529 H 628.398 -3.37845 -7.02482 0
M  V30 6530 N 632.627 0.916307 -1.28225 0
M  V30 6531 C 633.557 2.0352 -1.14464 0
M  V30 6532 C 634.538 1.70045 -0.0430844 0
M  V30 6533 O 635.723 1.92954 -0.219619 0
M  V30 6534 C 632.853 3.37889 -0.803027 0
M  V30 6535 C 631.807 3.85516 -1.85908 0
M  V30 6536 C 631.133 5.1682 -1.37116 0
M  V30 6537 C 632.433 4.07655 -3.26519 0
M  V30 6538 H 634.127 2.1529 -2.08064 0
M  V30 6539 H 631.673 1.03446 -1.00174 0
M  V30 6540 H 633.626 4.15654 -0.693537 0
M  V30 6541 H 632.35 3.26164 0.168674 0
M  V30 6542 H 631.009 3.09953 -1.95767 0
M  V30 6543 H 630.657 5.01497 -0.38859 0
M  V30 6544 H 630.357 5.49657 -2.07728 0
M  V30 6545 H 631.881 5.97143 -1.27484 0
M  V30 6546 H 633.295 4.75953 -3.19596 0
M  V30 6547 H 631.692 4.51818 -3.94943 0
M  V30 6548 H 632.762 3.12553 -3.70727 0
M  V30 6549 N 634.105 1.10431 1.1244 0
M  V30 6550 C 635.521 0.836096 1.35947 0
M  V30 6551 C 635.721 -0.544475 1.94004 0
M  V30 6552 O 634.777 -1.29735 2.16622 0
M  V30 6553 C 636.09 1.93575 2.30107 0
M  V30 6554 C 637.638 1.9642 2.43697 0
M  V30 6555 C 638.113 3.05559 3.41171 0
M  V30 6556 N 639.604 3.04865 3.48728 0
M  V30 6557 C 640.339 3.85954 4.24061 0
M  V30 6558 N 639.835 4.76977 5.02458 0
M  V30 6559 N 641.628 3.74172 4.19466 0
M  V30 6560 H 633.779 1.9942 0.731124 0
M  V30 6561 H 636.042 0.866607 0.384312 0
M  V30 6562 H 635.748 2.92943 1.94621 0
M  V30 6563 H 635.622 1.8229 3.30227 0
M  V30 6564 H 638.009 0.97685 2.78463 0
M  V30 6565 H 638.09 2.11782 1.43465 0
M  V30 6566 H 637.734 4.04513 3.07135 0
M  V30 6567 H 637.664 2.87438 4.41234 0
M  V30 6568 H 640.155 2.38908 2.92799 0
M  V30 6569 H 640.468 5.35409 5.57277 0
M  V30 6570 H 638.813 4.81006 5.01655 0
M  V30 6571 H 642.004 3.02412 3.57302 0
M  V30 6572 H 642.177 4.37602 4.77921 0
M  V30 6573 N 635.583 -1.29855 0.893053 0
M  V30 6574 C 636.493 -2.31661 0.370157 0
M  V30 6575 C 637.509 -1.65677 -0.531723 0
M  V30 6576 O 638.685 -1.9691 -0.422902 0
M  V30 6577 C 635.75 -3.44388 -0.399741 0
M  V30 6578 C 634.811 -4.2598 0.532861 0
M  V30 6579 C 634.044 -5.33324 -0.200388 0
M  V30 6580 O 634.267 -5.52305 -1.42531 0
M  V30 6581 O 633.201 -6.00188 0.453668 0
M  V30 6582 H 637.027 -2.78354 1.2146 0
M  V30 6583 H 634.612 -1.34171 0.657153 0
M  V30 6584 H 636.494 -4.13037 -0.835358 0
M  V30 6585 H 635.169 -2.99815 -1.22035 0
M  V30 6586 H 634.076 -3.59998 1.01746 0
M  V30 6587 H 635.409 -4.74178 1.3197 0
M  V30 6588 N 637.061 -0.65484 -1.43351 0
M  V30 6589 C 638.338 -0.0987371 -1.95351 0
M  V30 6590 C 638.718 1.38161 -1.59608 0
M  V30 6591 O 638.066 2.10791 -0.882021 0
M  V30 6592 C 638.276 -0.346684 -3.47274 0
M  V30 6593 C 639.624 -0.25249 -4.23849 0
M  V30 6594 O 640.648 -0.279332 -3.55103 0
M  V30 6595 O 639.507 -0.177584 -5.46211 0
M  V30 6596 H 636.601 0.0086829 -0.826954 0
M  V30 6597 H 639.147 -0.728189 -1.53282 0
M  V30 6598 H 637.919 -1.37296 -3.66423 0
M  V30 6599 H 637.542 0.315757 -3.96344 0
M  V30 6600 N 638.539 1.52521 -0.396863 0
M  V30 6601 C 639.767 2.06091 0.18275 0
M  V30 6602 C 640.182 1.26796 1.39886 0
M  V30 6603 O 639.539 0.316585 1.79733 0
M  V30 6604 C 639.59 3.57362 0.545377 0
M  V30 6605 O 639.311 4.33656 -0.622428 0
M  V30 6606 C 640.812 4.27305 1.18004 0
M  V30 6607 H 638.032 0.670504 0.025789 0
M  V30 6608 H 640.576 1.96561 -0.564276 0
M  V30 6609 H 638.731 3.66941 1.2423 0
M  V30 6610 H 639.145 5.23507 -0.322662 0
M  V30 6611 H 640.619 5.34366 1.38408 0
M  V30 6612 H 641.096 3.83 2.1496 0
M  V30 6613 H 641.702 4.22064 0.523671 0
M  V30 6614 N 640.017 0.126909 1.57088 0
M  V30 6615 C 640.967 -0.831678 2.1229 0
M  V30 6616 C 641.951 -1.22292 1.04564 0
M  V30 6617 O 643.143 -1.19269 1.30782 0
M  V30 6618 C 640.272 -2.07866 2.73215 0
M  V30 6619 C 639.358 -1.71143 3.88035 0
M  V30 6620 N 639.749 -1.05136 4.94753 0
M  V30 6621 C 638.047 -2.00549 3.98367 0
M  V30 6622 C 638.748 -0.877257 5.75047 0
M  V30 6623 N 637.724 -1.40477 5.25135 0
M  V30 6624 H 641.526 -0.317926 2.92175 0
M  V30 6625 H 639.04 -0.0753052 1.62225 0
M  V30 6626 H 641.037 -2.77516 3.11111 0
M  V30 6627 H 639.697 -2.59778 1.94796 0
M  V30 6628 H 640.708 -0.71442 5.12949 0
M  V30 6629 H 637.385 -2.54452 3.30999 0
M  V30 6630 H 638.775 -0.358536 6.70943 0
M  V30 6631 N 641.495 -1.56914 -0.146875 0
M  V30 6632 C 642.445 -1.94693 -1.18653 0
M  V30 6633 C 643.429 -0.81821 -1.38543 0
M  V30 6634 O 644.621 -1.08167 -1.40103 0
M  V30 6635 C 641.75 -2.33117 -2.52014 0
M  V30 6636 C 640.836 -3.5256 -2.35717 0
M  V30 6637 N 641.227 -4.69091 -1.89175 0
M  V30 6638 C 639.525 -3.57647 -2.66467 0
M  V30 6639 C 640.226 -5.51187 -1.85924 0
M  V30 6640 N 639.202 -4.92899 -2.29242 0
M  V30 6641 H 643.004 -2.82264 -0.81879 0
M  V30 6642 H 640.518 -1.58474 -0.354929 0
M  V30 6643 H 642.515 -2.58387 -3.27172 0
M  V30 6644 H 641.175 -1.46898 -2.89571 0
M  V30 6645 H 642.186 -4.92844 -1.59139 0
M  V30 6646 H 638.863 -2.81967 -3.07898 0
M  V30 6647 H 640.253 -6.54613 -1.51431 0
M  V30 6648 N 642.974 0.416227 -1.52004 0
M  V30 6649 C 643.904 1.51365 -1.77795 0
M  V30 6650 C 644.885 1.58059 -0.628601 0
M  V30 6651 O 646.07 1.73447 -0.873478 0
M  V30 6652 C 643.2 2.89256 -1.92219 0
M  V30 6653 C 642.154 2.97415 -3.0778 0
M  V30 6654 C 641.48 4.37492 -3.07417 0
M  V30 6655 C 642.78 2.69551 -4.47369 0
M  V30 6656 H 644.474 1.30033 -2.69688 0
M  V30 6657 H 642.02 0.624112 -1.29772 0
M  V30 6658 H 643.973 3.66008 -2.08845 0
M  V30 6659 H 642.697 3.11866 -0.969917 0
M  V30 6660 H 641.356 2.23107 -2.90893 0
M  V30 6661 H 641.004 4.571 -2.09925 0
M  V30 6662 H 640.704 4.43877 -3.85029 0
M  V30 6663 H 642.228 5.16188 -3.26162 0
M  V30 6664 H 643.642 3.36028 -4.64497 0
M  V30 6665 H 642.039 2.87321 -5.26846 0
M  V30 6666 H 643.109 1.65029 -4.55953 0
M  V30 6667 N 644.452 1.42507 0.673017 0
M  V30 6668 C 645.698 1.43284 1.43519 0
M  V30 6669 C 646.031 0.049668 1.94136 0
M  V30 6670 O 645.306 -0.926369 1.71022 0
M  V30 6671 C 645.589 2.45874 2.63093 0
M  V30 6672 C 645.442 3.93388 2.18096 0
M  V30 6673 C 646.761 2.45431 3.6531 0
M  V30 6674 H 643.88 0.521752 0.520522 0
M  V30 6675 H 646.522 1.73932 0.764701 0
M  V30 6676 H 644.672 2.19869 3.20296 0
M  V30 6677 H 646.344 4.30379 1.66046 0
M  V30 6678 H 644.587 4.07169 1.49652 0
M  V30 6679 H 645.258 4.60752 3.03993 0
M  V30 6680 H 647.734 2.68561 3.17827 0
M  V30 6681 H 646.61 3.19189 4.46553 0
M  V30 6682 H 646.871 1.48092 4.16559 0
M  V30 6683 N 645.93 -0.909495 1.28709 0
M  V30 6684 C 646.878 -2.03381 1.12866 0
M  V30 6685 C 647.872 -1.69335 0.0468074 0
M  V30 6686 O 649.078 -1.78819 0.205891 0
M  V30 6687 H 645.453 -0.666452 0.348348 0
M  V30 6688 H 647.424 -2.13885 2.08077 0
M  V30 6689 C 646.173 -3.38092 0.811742 0
M  V30 6690 H 645.496 -3.64786 1.63619 0
M  V30 6691 H 646.936 -4.17477 0.740869 0
M  V30 6692 C 645.395 -3.33395 -0.484679 0
M  V30 6693 O 645.925 -3.72089 -1.5137 0
M  V30 6694 N 644.131 -2.86491 -0.486961 0
M  V30 6695 H 643.678 -2.55199 0.350877 0
M  V30 6696 H 643.636 -2.83731 -1.3544 0
M  V30 6697 N 647.408 -1.11026 -1.11852 0
M  V30 6698 C 648.638 -0.877544 -1.87037 0
M  V30 6699 C 649.046 0.575925 -1.80221 0
M  V30 6700 O 648.389 1.40916 -1.17849 0
M  V30 6701 C 648.451 -1.25529 -3.36872 0
M  V30 6702 C 648.115 -2.71704 -3.67459 0
M  V30 6703 C 649.112 -3.69931 -3.65304 0
M  V30 6704 C 646.797 -3.08243 -3.966 0
M  V30 6705 C 648.791 -5.02717 -3.9186 0
M  V30 6706 C 646.478 -4.41215 -4.22815 0
M  V30 6707 C 647.476 -5.38262 -4.20432 0
M  V30 6708 O 647.164 -6.68839 -4.45992 0
M  V30 6709 H 646.896 -0.314374 -0.598452 0
M  V30 6710 H 649.45 -1.48015 -1.42411 0
M  V30 6711 H 647.68 -0.595808 -3.82082 0
M  V30 6712 H 649.369 -0.999064 -3.93413 0
M  V30 6713 H 650.135 -3.43047 -3.42846 0
M  V30 6714 H 646.014 -2.33326 -3.97593 0
M  V30 6715 H 649.558 -5.78456 -3.89916 0
M  V30 6716 H 645.455 -4.67835 -4.44748 0
M  V30 6717 H 646.223 -6.74563 -4.63581 0
M  V30 6718 N 648.886 1.2938 -0.899927 0
M  V30 6719 C 650.135 1.9483 -0.521937 0
M  V30 6720 C 650.448 1.71725 0.936473 0
M  V30 6721 O 651.654 2.31282 1.42199 0
M  V30 6722 C 650.11 3.48911 -0.88255 0
M  V30 6723 C 649.718 3.80815 -2.35974 0
M  V30 6724 C 651.462 4.20595 -0.57448 0
M  V30 6725 C 649.369 5.28142 -2.66121 0
M  V30 6726 H 648.299 0.729285 -0.191468 0
M  V30 6727 H 650.95 1.47103 -1.09695 0
M  V30 6728 H 649.332 3.95293 -0.236459 0
M  V30 6729 H 650.506 3.45291 -3.05141 0
M  V30 6730 H 648.821 3.22271 -2.63686 0
M  V30 6731 H 651.418 5.29031 -0.776556 0
M  V30 6732 H 651.761 4.13442 0.487005 0
M  V30 6733 H 652.294 3.79945 -1.17842 0
M  V30 6734 H 649.033 5.4036 -3.71068 0
M  V30 6735 H 648.553 5.64913 -2.01578 0
M  V30 6736 H 650.232 5.95738 -2.52399 0
M  V30 6737 N 650.364 0.662433 1.43002 0
M  V30 6738 C 651.775 0.258315 1.84904 0
M  V30 6739 C 652.126 -1.19703 1.55453 0
M  V30 6740 O 651.251 -1.91484 1.00811 0
M  V30 6741 C 651.846 0.462047 3.35635 0
M  V30 6742 C 650.405 0.112165 3.76233 0
M  V30 6743 C 649.552 0.760479 2.66668 0
M  V30 6744 H 652.503 0.865467 1.33024 0
M  V30 6745 H 652.524 -0.289646 3.79396 0
M  V30 6746 H 652.036 1.52135 3.57039 0
M  V30 6747 H 650.137 -0.944179 3.60439 0
M  V30 6748 H 650.25 0.544058 4.76001 0
M  V30 6749 H 648.614 0.192887 2.53969 0
M  V30 6750 H 649.397 1.82299 2.90898 0
M  V30 6751 N 651.842 -1.52309 0.404946 0
M  V30 6752 C 652.774 -2.24579 -0.45791 0
M  V30 6753 C 653.787 -1.2739 -1.01369 0
M  V30 6754 O 654.976 -1.53363 -0.91335 0
M  V30 6755 C 652.076 -2.9608 -1.64893 0
M  V30 6756 C 651.249 -4.20106 -1.21777 0
M  V30 6757 C 650.308 -4.74468 -2.27523 0
M  V30 6758 O 649.334 -5.37157 -1.88285 0
M  V30 6759 N 650.536 -4.55678 -3.59635 0
M  V30 6760 H 653.301 -2.99265 0.161341 0
M  V30 6761 H 650.862 -1.60228 0.232107 0
M  V30 6762 H 652.854 -3.29344 -2.35191 0
M  V30 6763 H 651.424 -2.24606 -2.17419 0
M  V30 6764 H 650.644 -3.92704 -0.343071 0
M  V30 6765 H 651.932 -5.00658 -0.906596 0
M  V30 6766 H 651.33 -4.05673 -3.94266 0
M  V30 6767 H 649.887 -4.9339 -4.25922 0
M  V30 6768 N 653.32 -0.135238 -1.57019 0
M  V30 6769 C 654.568 0.51777 -1.95355 0
M  V30 6770 C 654.889 1.6617 -1.02042 0
M  V30 6771 O 654.159 1.95738 -0.0797343 0
M  V30 6772 H 652.739 0.194264 -0.721298 0
M  V30 6773 H 655.401 -0.207983 -1.93787 0
M  V30 6774 H 654.497 0.901675 -2.98791 0
M  V30 6775 N 654.798 1.5699 0.138552 0
M  V30 6776 C 656.023 1.88344 0.86841 0
M  V30 6777 C 656.448 0.725159 1.7356 0
M  V30 6778 O 655.806 -0.324992 1.78363 0
M  V30 6779 C 655.854 3.18334 1.69398 0
M  V30 6780 O 654.958 3.02863 2.79907 0
M  V30 6781 H 654.299 0.618577 0.241367 0
M  V30 6782 H 656.829 2.04207 0.126826 0
M  V30 6783 H 656.839 3.50567 2.08726 0
M  V30 6784 H 655.514 4.02238 1.05725 0
M  V30 6785 H 654.091 2.82056 2.43924 0
M  V30 6786 N 656.276 -0.40816 1.52223 0
M  V30 6787 C 657.525 -1.15212 1.65557 0
M  V30 6788 C 657.838 -1.9163 0.392096 0
M  V30 6789 O 659.044 -2.68458 0.405256 0
M  V30 6790 C 657.5 -2.09691 2.92502 0
M  V30 6791 C 657.108 -1.38785 4.25961 0
M  V30 6792 C 658.852 -2.8434 3.152 0
M  V30 6793 C 656.759 -2.31919 5.44029 0
M  V30 6794 H 655.689 -0.433776 0.616729 0
M  V30 6795 H 658.34 -0.4165 1.78711 0
M  V30 6796 H 656.722 -2.8681 2.7305 0
M  V30 6797 H 657.896 -0.670248 4.55899 0
M  V30 6798 H 656.211 -0.761741 4.09373 0
M  V30 6799 H 658.808 -3.54166 4.00587 0
M  V30 6800 H 659.151 -3.47344 2.29473 0
M  V30 6801 H 659.684 -2.14321 3.35129 0
M  V30 6802 H 656.423 -1.7356 6.32105 0
M  V30 6803 H 655.943 -3.0165 5.18428 0
M  V30 6804 H 657.622 -2.92424 5.77146 0
M  V30 6805 N 657.755 -1.42862 -0.66545 0
M  V30 6806 C 659.032 -1.3431 -1.42197 0
M  V30 6807 C 659.412 0.0150265 -2.11095 0
M  V30 6808 O 658.76 1.03101 -2.03918 0
M  V30 6809 C 658.97 -2.51783 -2.41674 0
M  V30 6810 C 660.318 -2.94321 -3.0604 0
M  V30 6811 O 661.342 -2.51741 -2.52001 0
M  V30 6812 O 660.201 -3.68047 -4.03985 0
M  V30 6813 H 657.295 -0.530159 -0.634713 0
M  V30 6814 H 659.841 -1.54888 -0.693386 0
M  V30 6815 H 658.613 -3.42282 -1.89627 0
M  V30 6816 H 658.236 -2.33241 -3.22001 0
M  V30 6817 N 659.233 0.902656 -1.29189 0
M  V30 6818 C 660.458 1.69167 -1.19989 0
M  V30 6819 C 660.883 1.86607 0.236495 0
M  V30 6820 O 660.241 1.38425 1.17082 0
M  V30 6821 C 660.289 3.05532 -1.91527 0
M  V30 6822 O 659.393 3.93621 -1.2303 0
M  V30 6823 H 658.734 0.517584 -0.415936 0
M  V30 6824 H 661.264 1.12785 -1.70706 0
M  V30 6825 H 661.274 3.55693 -1.99866 0
M  V30 6826 H 659.949 2.92156 -2.96003 0
M  V30 6827 H 658.526 3.52055 -1.22928 0
M  V30 6828 N 660.711 1.11618 1.11262 0
M  V30 6829 C 661.641 0.79846 2.19424 0
M  V30 6830 C 662.622 -0.234003 1.68483 0
M  V30 6831 O 663.807 -0.0970704 1.93957 0
M  V30 6832 C 660.937 0.242892 3.4645 0
M  V30 6833 C 659.891 1.20744 4.10615 0
M  V30 6834 C 659.217 0.512494 5.32238 0
M  V30 6835 C 660.517 2.55884 4.55325 0
M  V30 6836 H 662.211 1.70286 2.46258 0
M  V30 6837 H 659.757 0.820195 1.18359 0
M  V30 6838 H 661.71 0.00840447 4.21399 0
M  V30 6839 H 660.434 -0.696811 3.1908 0
M  V30 6840 H 659.093 1.42759 3.37662 0
M  V30 6841 H 658.741 -0.432075 5.01141 0
M  V30 6842 H 658.441 1.15583 5.7612 0
M  V30 6843 H 659.965 0.286842 6.09926 0
M  V30 6844 H 661.379 2.37946 5.21588 0
M  V30 6845 H 659.776 3.16216 5.10027 0
M  V30 6846 H 660.846 3.14968 3.68678 0
M  V30 6847 N 662.189 -1.289 0.906776 0
M  V30 6848 C 663.436 -1.95269 0.536326 0
M  V30 6849 C 663.764 -1.71435 -0.918711 0
M  V30 6850 O 663.019 -1.02431 -1.66752 0
M  V30 6851 C 663.318 -3.48704 0.783617 0
M  V30 6852 C 662.984 -3.92626 2.21711 0
M  V30 6853 C 661.646 -4.04329 2.60906 0
M  V30 6854 C 663.998 -4.15218 3.15029 0
M  V30 6855 C 661.326 -4.35998 3.92584 0
M  V30 6856 C 663.678 -4.48365 4.46264 0
M  V30 6857 C 662.342 -4.58278 4.85322 0
M  V30 6858 H 661.612 -0.714538 0.196256 0
M  V30 6859 H 664.259 -1.53366 1.14678 0
M  V30 6860 H 662.564 -3.91696 0.0903048 0
M  V30 6861 H 664.261 -3.98162 0.476267 0
M  V30 6862 H 660.851 -3.84038 1.90296 0
M  V30 6863 H 665.035 -4.05636 2.8596 0
M  V30 6864 H 660.291 -4.41878 4.22557 0
M  V30 6865 H 664.465 -4.64795 5.18593 0
M  V30 6866 H 662.092 -4.82573 5.87391 0
M  V30 6867 N 663.667 -0.670007 -1.42649 0
M  V30 6868 C 664.577 0.0114788 -2.34597 0
M  V30 6869 C 665.593 0.794055 -1.54825 0
M  V30 6870 O 666.769 0.737472 -1.87412 0
M  V30 6871 C 663.834 0.954436 -3.33304 0
M  V30 6872 C 662.895 0.166925 -4.28975 0
M  V30 6873 C 662.128 1.06497 -5.22967 0
M  V30 6874 O 662.351 2.30446 -5.21777 0
M  V30 6875 O 661.285 0.528347 -5.99577 0
M  V30 6876 H 665.111 -0.745794 -2.944 0
M  V30 6877 H 662.696 -0.430228 -1.43071 0
M  V30 6878 H 664.578 1.49589 -3.93956 0
M  V30 6879 H 663.253 1.69164 -2.7598 0
M  V30 6880 H 662.16 -0.418515 -3.71752 0
M  V30 6881 H 663.493 -0.531067 -4.89327 0
M  V30 6882 N 665.145 1.52092 -0.413018 0
M  V30 6883 C 666.393 2.01456 0.161178 0
M  V30 6884 C 666.714 1.30034 1.45314 0
M  V30 6885 O 665.984 0.427435 1.9118 0
M  V30 6886 H 664.564 0.744376 0.0625526 0
M  V30 6887 H 667.226 1.86974 -0.550151 0
M  V30 6888 H 666.322 3.1008 0.354517 0
M  V30 6889 N 666.623 0.143563 1.56945 0
M  V30 6890 C 667.851 -0.515447 2.00377 0
M  V30 6891 C 668.266 -1.58643 1.02361 0
M  V30 6892 O 667.623 -1.82489 0.0201039 0
M  V30 6893 C 667.674 -1.11923 3.43737 0
M  V30 6894 O 667.395 -0.0910318 4.38005 0
M  V30 6895 C 668.896 -1.85918 4.02429 0
M  V30 6896 H 666.116 -0.134478 0.657386 0
M  V30 6897 H 668.66 0.237135 2.0312 0
M  V30 6898 H 666.815 -1.82245 3.41856 0
M  V30 6899 H 667.229 -0.532916 5.21786 0
M  V30 6900 H 668.703 -2.2346 5.04747 0
M  V30 6901 H 669.18 -2.7438 3.42947 0
M  V30 6902 H 669.786 -1.20303 4.07931 0
M  V30 6903 N 668.101 -1.57061 -0.130224 0
M  V30 6904 C 669.347 -1.85412 -0.836295 0
M  V30 6905 C 669.702 -0.729831 -1.7802 0
M  V30 6906 O 668.995 0.271021 -1.89673 0
M  V30 6907 C 669.189 -3.17878 -1.63365 0
M  V30 6908 C 669.018 -4.43086 -0.768453 0
M  V30 6909 C 667.788 -5.03488 -0.427598 0
M  V30 6910 C 669.986 -5.14219 -0.0911495 0
M  V30 6911 N 667.968 -6.12253 0.449439 0
M  V30 6912 C 669.339 -6.16632 0.645341 0
M  V30 6913 C 671.394 -4.97898 -0.0135625 0
M  V30 6914 C 670.097 -7.0449 1.45212 0
M  V30 6915 C 672.123 -5.86234 0.780001 0
M  V30 6916 C 671.485 -6.88141 1.50472 0
M  V30 6917 H 667.584 -0.728875 -0.283311 0
M  V30 6918 H 670.168 -1.9444 -0.100662 0
M  V30 6919 H 668.339 -3.09967 -2.3404 0
M  V30 6920 H 670.071 -3.34076 -2.28419 0
M  V30 6921 H 666.826 -4.67344 -0.767264 0
M  V30 6922 H 667.25 -6.71263 0.879476 0
M  V30 6923 H 671.892 -4.19082 -0.559511 0
M  V30 6924 H 669.61 -7.82722 2.00926 0
M  V30 6925 H 673.196 -5.75671 0.842246 0
M  V30 6926 H 672.076 -7.55311 2.1089 0
M  V30 6927 N 669.579 0.400081 -1.52437 0
M  V30 6928 C 670.809 1.16598 -1.70553 0
M  V30 6929 C 671.217 1.8451 -0.418665 0
M  V30 6930 O 670.56 1.73069 0.615855 0
M  V30 6931 C 670.622 2.26517 -2.7916 0
M  V30 6932 C 670.286 1.78666 -4.20628 0
M  V30 6933 C 671.283 1.26946 -5.04163 0
M  V30 6934 C 668.968 1.85225 -4.66902 0
M  V30 6935 C 670.962 0.824187 -6.32049 0
M  V30 6936 C 668.649 1.40309 -5.94774 0
M  V30 6937 C 669.647 0.889922 -6.77178 0
M  V30 6938 O 669.335 0.447281 -8.02655 0
M  V30 6939 H 669.067 0.356023 -0.574651 0
M  V30 6940 H 671.621 0.475598 -1.99818 0
M  V30 6941 H 669.851 2.98946 -2.45292 0
M  V30 6942 H 671.54 2.88237 -2.85787 0
M  V30 6943 H 672.306 1.21244 -4.69601 0
M  V30 6944 H 668.185 2.24111 -4.02859 0
M  V30 6945 H 671.729 0.422958 -6.96317 0
M  V30 6946 H 667.626 1.45693 -6.28843 0
M  V30 6947 H 668.394 0.569768 -8.16514 0
M  V30 6948 N 671.057 1.43213 0.657864 0
M  V30 6949 C 671.987 1.50815 1.78262 0
M  V30 6950 C 672.968 0.363211 1.66177 0
M  V30 6951 O 674.153 0.579806 1.85343 0
M  V30 6952 C 671.283 1.42625 3.16663 0
M  V30 6953 C 670.237 2.5532 3.43505 0
M  V30 6954 C 669.563 2.32184 4.81658 0
M  V30 6955 C 670.863 3.97583 3.38711 0
M  V30 6956 H 672.557 2.44954 1.72157 0
M  V30 6957 H 670.103 1.17896 0.82683 0
M  V30 6958 H 672.056 1.46548 3.95097 0
M  V30 6959 H 670.78 0.449877 3.23487 0
M  V30 6960 H 669.439 2.50742 2.6744 0
M  V30 6961 H 669.087 1.32801 4.85153 0
M  V30 6962 H 668.787 3.07724 5.00579 0
M  V30 6963 H 670.311 2.37883 5.62356 0
M  V30 6964 H 671.725 4.03673 4.07089 0
M  V30 6965 H 670.122 4.73112 3.69168 0
M  V30 6966 H 671.192 4.23049 2.36976 0
M  V30 6967 N 672.536 -0.895792 1.29666 0
M  V30 6968 C 673.782 -1.64908 1.18039 0
M  V30 6969 C 674.115 -1.9236 -0.266682 0
M  V30 6970 O 673.39 -1.53682 -1.19214 0
M  V30 6971 C 673.673 -2.99574 1.99819 0
M  V30 6972 C 673.526 -2.79163 3.52687 0
M  V30 6973 C 674.845 -4.00358 1.82761 0
M  V30 6974 H 671.964 -0.598437 0.430165 0
M  V30 6975 H 674.606 -1.03736 1.59182 0
M  V30 6976 H 672.756 -3.51786 1.64859 0
M  V30 6977 H 674.428 -2.33821 3.9765 0
M  V30 6978 H 672.671 -2.13871 3.77414 0
M  V30 6979 H 673.342 -3.74871 4.05186 0
M  V30 6980 H 675.818 -3.57268 2.13304 0
M  V30 6981 H 674.694 -4.92514 2.42325 0
M  V30 6982 H 674.955 -4.35096 0.783839 0
M  V30 6983 N 674.014 -1.12206 -1.10668 0
M  V30 6984 C 675.43 -0.857619 -1.346 0
M  V30 6985 C 675.63 0.513542 -1.94846 0
M  V30 6986 O 674.686 1.26273 -2.18658 0
M  V30 6987 C 675.999 -1.97212 -2.26998 0
M  V30 6988 C 677.547 -2.00272 -2.40542 0
M  V30 6989 C 678.022 -3.10948 -3.36267 0
M  V30 6990 N 679.513 -3.10375 -3.43834 0
M  V30 6991 C 680.248 -3.92651 -4.17867 0
M  V30 6992 N 679.744 -4.84911 -4.94807 0
M  V30 6993 N 681.537 -3.80798 -4.1346 0
M  V30 6994 H 673.688 -2.00558 -0.699306 0
M  V30 6995 H 675.951 -0.872612 -0.370477 0
M  V30 6996 H 675.657 -2.96002 -1.89936 0
M  V30 6997 H 675.531 -1.87521 -3.27286 0
M  V30 6998 H 677.918 -1.02103 -2.76874 0
M  V30 6999 H 677.999 -2.14037 -1.40077 0
M  V30 7000 H 677.643 -4.09348 -3.00661 0
M  V30 7001 H 677.573 -2.94421 -4.36605 0
M  V30 7002 H 680.064 -2.43536 -2.88961 0
M  V30 7003 H 680.377 -5.44207 -5.48688 0
M  V30 7004 H 678.722 -4.88926 -4.93939 0
M  V30 7005 H 681.913 -3.08058 -3.52445 0
M  V30 7006 H 682.086 -4.4515 -4.70898 0
M  V30 7007 N 675.492 1.28418 -0.913599 0
M  V30 7008 C 676.738 1.9527 -0.547484 0
M  V30 7009 C 677.071 1.71745 0.906486 0
M  V30 7010 O 676.346 1.03834 1.64465 0
M  V30 7011 C 676.629 3.49748 -0.857205 0
M  V30 7012 C 676.482 3.82675 -2.3639 0
M  V30 7013 C 677.801 4.3868 -0.353258 0
M  V30 7014 H 674.92 0.709236 -0.200381 0
M  V30 7015 H 677.562 1.51789 -1.14281 0
M  V30 7016 H 675.712 3.86915 -0.350548 0
M  V30 7017 H 677.384 3.55378 -2.94116 0
M  V30 7018 H 675.627 3.29724 -2.81894 0
M  V30 7019 H 676.298 4.90547 -2.53115 0
M  V30 7020 H 678.774 4.08584 -0.787288 0
M  V30 7021 H 677.65 5.45621 -0.599049 0
M  V30 7022 H 677.911 4.35753 0.746413 0
M  V30 7023 N 676.97 0.677563 1.42291 0
M  V30 7024 C 678.247 0.129803 1.95169 0
M  V30 7025 C 678.627 -1.35605 1.61786 0
M  V30 7026 O 677.975 -2.09361 0.915444 0
M  V30 7027 C 678.185 0.401889 3.46678 0
M  V30 7028 C 679.533 0.319889 4.23393 0
M  V30 7029 O 680.557 0.33579 3.54614 0
M  V30 7030 O 679.416 0.264459 5.4586 0
M  V30 7031 H 676.51 0.00447433 0.826988 0
M  V30 7032 H 679.056 0.752483 1.52105 0
M  V30 7033 H 677.828 1.43108 3.64192 0
M  V30 7034 H 677.451 -0.252662 3.96796 0
M  V30 7035 N 678.448 -1.51871 0.421078 0
M  V30 7036 C 679.358 -2.31077 -0.405069 0
M  V30 7037 C 680.374 -1.39301 -1.04265 0
M  V30 7038 O 681.55 -1.72376 -1.04157 0
M  V30 7039 C 678.615 -3.12556 -1.50032 0
M  V30 7040 C 677.676 -4.20088 -0.884559 0
M  V30 7041 C 676.909 -4.97673 -1.92762 0
M  V30 7042 O 677.132 -4.75696 -3.14753 0
M  V30 7043 O 676.066 -5.82203 -1.52719 0
M  V30 7044 H 679.892 -3.02742 0.241086 0
M  V30 7045 H 677.477 -1.48263 0.183991 0
M  V30 7046 H 679.359 -3.6326 -2.13589 0
M  V30 7047 H 678.034 -2.43672 -2.13086 0
M  V30 7048 H 676.941 -3.73502 -0.211379 0
M  V30 7049 H 678.274 -4.91298 -0.297763 0
M  V30 7050 N 679.926 -0.151884 -1.56866 0
M  V30 7051 C 680.873 0.785936 -2.17006 0
M  V30 7052 C 681.843 1.2407 -1.10435 0
M  V30 7053 O 683.028 1.31235 -1.38499 0
M  V30 7054 C 680.168 2.01771 -2.79969 0
M  V30 7055 C 679.281 1.6083 -4.00946 0
M  V30 7056 C 678.416 2.79224 -4.51893 0
M  V30 7057 C 677.455 2.3468 -5.65324 0
M  V30 7058 N 676.592 3.461 -6.10867 0
M  V30 7059 H 681.432 0.266286 -2.96808 0
M  V30 7060 H 678.969 0.11972 -1.46612 0
M  V30 7061 H 680.927 2.73989 -3.14621 0
M  V30 7062 H 679.557 2.51139 -2.02803 0
M  V30 7063 H 678.609 0.783592 -3.72242 0
M  V30 7064 H 679.921 1.24119 -4.83111 0
M  V30 7065 H 679.075 3.59625 -4.88625 0
M  V30 7066 H 677.814 3.19183 -3.68746 0
M  V30 7067 H 676.819 1.52721 -5.28163 0
M  V30 7068 H 678.044 1.95801 -6.5026 0
M  V30 7069 H 675.99 3.85671 -5.30654 0
M  V30 7070 H 675.907 3.1342 -6.87971 0
M  V30 7071 H 677.175 4.26844 -6.52246 0
M  V30 7072 N 681.404 1.57128 0.121893 0
M  V30 7073 C 682.354 1.96556 1.15541 0
M  V30 7074 C 683.338 0.840147 1.37224 0
M  V30 7075 O 684.53 1.10382 1.38365 0
M  V30 7076 C 681.659 2.37097 2.48274 0
M  V30 7077 C 680.745 3.56265 2.30078 0
M  V30 7078 N 681.136 4.72041 1.81688 0
M  V30 7079 C 679.434 3.61841 2.60744 0
M  V30 7080 C 680.135 5.54075 1.77132 0
M  V30 7081 N 679.111 4.96483 2.21371 0
M  V30 7082 H 682.913 2.83531 0.77378 0
M  V30 7083 H 680.427 1.59019 0.329672 0
M  V30 7084 H 682.424 2.6356 3.2302 0
M  V30 7085 H 681.084 1.51486 2.87197 0
M  V30 7086 H 682.095 4.95313 1.51278 0
M  V30 7087 H 678.772 2.8683 3.03373 0
M  V30 7088 H 680.162 6.56939 1.40998 0
M  V30 7089 N 682.882 -0.391992 1.52647 0
M  V30 7090 C 684.298 -0.731848 1.41831 0
M  V30 7091 C 684.498 -1.9423 0.536361 0
M  V30 7092 O 683.554 -2.52499 0.00866571 0
M  V30 7093 C 684.867 -0.969743 2.84634 0
M  V30 7094 C 686.415 -1.0714 2.94092 0
M  V30 7095 C 686.89 -1.34195 4.37899 0
M  V30 7096 N 688.381 -1.41023 4.41211 0
M  V30 7097 C 689.116 -1.63616 5.49561 0
M  V30 7098 N 688.612 -1.83699 6.68002 0
M  V30 7099 N 690.405 -1.65771 5.371 0
M  V30 7100 H 682.556 0.404547 2.08512 0
M  V30 7101 H 684.819 0.11879 0.940528 0
M  V30 7102 H 684.525 -0.152465 3.51369 0
M  V30 7103 H 684.399 -1.88523 3.26709 0
M  V30 7104 H 686.786 -1.87925 2.27526 0
M  V30 7105 H 686.867 -0.133887 2.55449 0
M  V30 7106 H 686.511 -0.539207 5.0503 0
M  V30 7107 H 686.441 -2.29226 4.74092 0
M  V30 7108 H 688.932 -1.27223 3.55841 0
M  V30 7109 H 689.245 -2.00437 7.46354 0
M  V30 7110 H 687.59 -1.8093 6.71036 0
M  V30 7111 H 690.781 -1.4963 4.43541 0
M  V30 7112 H 690.954 -1.83038 6.21612 0
M  V30 7113 N 684.36 -1.4356 -0.65026 0
M  V30 7114 C 685.776 -1.27025 -0.966269 0
M  V30 7115 C 685.976 -0.192117 -2.00582 0
M  V30 7116 O 685.032 0.428459 -2.48838 0
M  V30 7117 C 686.345 -2.63556 -1.44772 0
M  V30 7118 C 687.893 -2.71111 -1.56421 0
M  V30 7119 C 688.368 -4.08067 -2.07956 0
M  V30 7120 N 689.859 -4.10146 -2.15254 0
M  V30 7121 C 690.594 -5.12952 -2.56258 0
M  V30 7122 N 690.09 -6.26129 -2.96537 0
M  V30 7123 N 691.883 -5.00306 -2.56224 0
M  V30 7124 H 684.034 -2.12367 0.0375758 0
M  V30 7125 H 686.297 -0.946894 -0.0457782 0
M  V30 7126 H 686.003 -3.43429 -0.758271 0
M  V30 7127 H 685.877 -2.89152 -2.42221 0
M  V30 7128 H 688.264 -1.91569 -2.24467 0
M  V30 7129 H 688.345 -2.49277 -0.573967 0
M  V30 7130 H 687.989 -4.88077 -1.40511 0
M  V30 7131 H 687.919 -4.27266 -3.07817 0
M  V30 7132 H 690.41 -3.28453 -1.86887 0
M  V30 7133 H 690.723 -7.00403 -3.26582 0
M  V30 7134 H 689.068 -6.29597 -2.94334 0
M  V30 7135 H 692.259 -4.10952 -2.24135 0
M  V30 7136 H 692.432 -5.80553 -2.87857 0
M  V30 7137 N 685.838 0.888903 -1.30139 0
M  V30 7138 C 687.066 1.67358 -1.21651 0
M  V30 7139 C 687.481 1.87499 0.221246 0
M  V30 7140 O 686.838 1.41969 1.14677 0
M  V30 7141 C 686.889 3.05213 -1.93719 0
M  V30 7142 O 686.61 2.85984 -3.31881 0
M  V30 7143 C 688.111 3.9964 -1.9184 0
M  V30 7144 H 685.331 0.522365 -0.42116 0
M  V30 7145 H 687.875 1.11086 -1.71698 0
M  V30 7146 H 686.03 3.5823 -1.4748 0
M  V30 7147 H 686.444 3.73411 -3.68327 0
M  V30 7148 H 687.918 4.93749 -2.46811 0
M  V30 7149 H 688.395 4.29955 -0.896409 0
M  V30 7150 H 689.001 3.52558 -2.37872 0
M  V30 7151 N 687.317 1.12792 1.10072 0
M  V30 7152 C 688.547 0.907189 1.85617 0
M  V30 7153 C 688.955 -0.547181 1.81115 0
M  V30 7154 O 688.298 -1.39024 1.20075 0
M  V30 7155 C 688.36 1.30872 3.34832 0
M  V30 7156 C 688.024 2.77516 3.6309 0
M  V30 7157 C 689.021 3.75696 3.59373 0
M  V30 7158 C 686.706 3.14513 3.91646 0
M  V30 7159 C 688.7 5.08888 3.83812 0
M  V30 7160 C 686.387 4.47886 4.15742 0
M  V30 7161 C 687.385 5.44882 4.11816 0
M  V30 7162 O 687.073 6.7585 4.35295 0
M  V30 7163 H 686.805 0.323855 0.593375 0
M  V30 7164 H 689.359 1.50262 1.40038 0
M  V30 7165 H 687.589 0.656518 3.81086 0
M  V30 7166 H 689.278 1.06153 3.91773 0
M  V30 7167 H 690.044 3.48458 3.37345 0
M  V30 7168 H 685.923 2.39622 3.93831 0
M  V30 7169 H 689.467 5.84586 3.80663 0
M  V30 7170 H 685.364 4.74851 4.37249 0
M  V30 7171 H 686.132 6.81853 4.52791 0
M  V30 7172 N 688.795 -1.27931 0.920396 0
M  V30 7173 C 689.758 -2.25345 0.41858 0
M  V30 7174 C 690.758 -1.54116 -0.458798 0
M  V30 7175 O 691.948 -1.72235 -0.260912 0
M  V30 7176 C 689.08 -3.38556 -0.399104 0
M  V30 7177 H 690.273 -2.71251 1.27918 0
M  V30 7178 H 687.826 -1.39728 0.700406 0
M  V30 7179 H 688.561 -2.98021 -1.27882 0
M  V30 7180 H 688.346 -3.91426 0.229863 0
M  V30 7181 H 689.836 -4.10976 -0.740817 0
M  V30 7182 N 690.273 -0.685099 -1.4193 0
M  V30 7183 C 691.689 -0.355632 -1.55587 0
M  V30 7184 C 691.889 1.13823 -1.66273 0
M  V30 7185 O 690.945 1.92387 -1.63534 0
M  V30 7186 C 692.258 -1.09498 -2.80055 0
M  V30 7187 C 693.806 -1.07831 -2.93839 0
M  V30 7188 C 694.281 -1.79919 -4.21181 0
M  V30 7189 N 695.772 -1.76837 -4.28115 0
M  V30 7190 C 696.507 -2.29463 -5.25485 0
M  V30 7191 N 696.003 -2.90516 -6.28945 0
M  V30 7192 N 697.796 -2.19779 -5.17353 0
M  V30 7193 H 689.947 -1.65412 -1.33239 0
M  V30 7194 H 692.21 -0.697453 -0.642078 0
M  V30 7195 H 691.916 -2.14997 -2.78333 0
M  V30 7196 H 691.79 -0.666813 -3.71259 0
M  V30 7197 H 694.177 -0.0316152 -2.95083 0
M  V30 7198 H 694.258 -1.54545 -2.03837 0
M  V30 7199 H 693.902 -2.84562 -4.20698 0
M  V30 7200 H 693.832 -1.30647 -5.10136 0
M  V30 7201 H 696.323 -1.32315 -3.53979 0
M  V30 7202 H 696.636 -3.28266 -6.99615 0
M  V30 7203 H 694.981 -2.94589 -6.29478 0
M  V30 7204 H 698.172 -1.71763 -4.35448 0
M  V30 7205 H 698.345 -2.61097 -5.9307 0
M  V30 7206 N 691.751 1.51645 -0.429126 0
M  V30 7207 C 693.167 1.59394 -0.080994 0
M  V30 7208 C 693.367 1.44064 1.40882 0
M  V30 7209 O 692.423 1.27771 2.17786 0
M  V30 7210 C 693.736 2.94779 -0.593773 0
M  V30 7211 C 695.284 3.08067 -0.553494 0
M  V30 7212 C 695.759 4.45963 -1.04311 0
M  V30 7213 N 697.25 4.5226 -1.00076 0
M  V30 7214 C 697.985 5.57268 -1.35056 0
M  V30 7215 N 697.481 6.69734 -1.77282 0
M  V30 7216 N 699.274 5.47582 -1.26925 0
M  V30 7217 H 691.425 1.59856 -1.39857 0
M  V30 7218 H 693.688 0.753095 -0.575805 0
M  V30 7219 H 693.394 3.11342 -1.63583 0
M  V30 7220 H 693.268 3.77197 -0.0142202 0
M  V30 7221 H 695.655 2.91177 0.479556 0
M  V30 7222 H 695.736 2.27508 -1.16935 0
M  V30 7223 H 695.38 4.63598 -2.07459 0
M  V30 7224 H 695.31 5.25049 -0.403873 0
M  V30 7225 H 697.801 3.71537 -0.690564 0
M  V30 7226 H 698.114 7.4587 -2.02232 0
M  V30 7227 H 696.459 6.70963 -1.81202 0
M  V30 7228 H 699.65 4.58604 -0.93809 0
M  V30 7229 H 699.823 6.29308 -1.54516 0
M  V30 7230 N 693.229 0.160201 1.56784 0
M  V30 7231 C 694.64 -0.358417 1.83227 0
M  V30 7232 C 694.991 -1.63831 1.07952 0
M  V30 7233 O 694.116 -2.13885 0.328995 0
M  V30 7234 C 694.711 -0.657058 3.32368 0
M  V30 7235 C 693.27 -1.12015 3.59346 0
M  V30 7236 C 692.417 -0.15015 2.76893 0
M  V30 7237 H 695.368 0.384669 1.53967 0
M  V30 7238 H 695.389 -1.51033 3.49241 0
M  V30 7239 H 694.901 0.274647 3.87127 0
M  V30 7240 H 693.002 -2.06734 3.09987 0
M  V30 7241 H 693.115 -1.037 4.67743 0
M  V30 7242 H 691.479 -0.645361 2.46388 0
M  V30 7243 H 692.262 0.775379 3.34429 0
M  V30 7244 N 694.707 -1.5719 -0.113559 0
M  V30 7245 C 695.935 -1.89328 -0.834422 0
M  V30 7246 C 696.35 -0.752018 -1.73177 0
M  V30 7247 O 695.707 0.276912 -1.80387 0
M  V30 7248 C 695.758 -3.20962 -1.66329 0
M  V30 7249 O 695.479 -4.30695 -0.802069 0
M  V30 7250 C 696.98 -3.6684 -2.48884 0
M  V30 7251 H 694.2 -0.626769 -0.239587 0
M  V30 7252 H 696.744 -2.04273 -0.0963195 0
M  V30 7253 H 694.899 -3.0767 -2.35409 0
M  V30 7254 H 695.313 -5.06175 -1.37431 0
M  V30 7255 H 696.787 -4.61692 -3.02563 0
M  V30 7256 H 697.264 -2.93765 -3.26495 0
M  V30 7257 H 697.87 -3.82938 -1.85036 0
M  V30 7258 N 696.185 0.383891 -1.52853 0
M  V30 7259 C 697.596 0.961591 -1.60032 0
M  V30 7260 C 697.947 1.90819 -0.456333 0
M  V30 7261 O 697.072 2.12288 0.419873 0
M  V30 7262 C 697.667 1.75078 -2.90057 0
M  V30 7263 C 696.226 2.2781 -2.99632 0
M  V30 7264 C 695.373 1.08512 -2.55187 0
M  V30 7265 H 698.324 0.163269 -1.57858 0
M  V30 7266 H 698.345 2.61046 -2.7683 0
M  V30 7267 H 697.857 1.06157 -3.73299 0
M  V30 7268 H 695.958 3.00028 -2.20939 0
M  V30 7269 H 696.071 2.56947 -4.0437 0
M  V30 7270 H 694.435 1.44667 -2.09627 0
M  V30 7271 H 695.218 0.41118 -3.40829 0
M  V30 7272 N 697.663 1.43903 0.642637 0
M  V30 7273 C 698.611 1.50164 1.77634 0
M  V30 7274 C 699.605 0.374294 1.65213 0
M  V30 7275 O 700.811 0.548748 1.71431 0
M  V30 7276 H 697.186 0.470974 0.586249 0
M  V30 7277 H 699.157 2.45603 1.69474 0
M  V30 7278 C 697.906 1.45196 3.15933 0
M  V30 7279 H 697.229 2.31253 3.26132 0
M  V30 7280 H 698.669 1.53638 3.95185 0
M  V30 7281 C 697.128 0.171043 3.36466 0
M  V30 7282 O 697.658 -0.763413 3.94379 0
M  V30 7283 N 695.864 0.077847 2.90496 0
M  V30 7284 H 695.411 0.8391 2.43551 0
M  V30 7285 H 695.369 -0.778473 3.0461 0
M  V30 7286 N 699.141 -0.881989 1.30609 0
M  V30 7287 C 700.418 -1.61563 1.10258 0
M  V30 7288 C 700.798 -2.08228 -0.347053 0
M  V30 7289 O 700.146 -1.85151 -1.33908 0
M  V30 7290 C 700.356 -2.78287 2.10612 0
M  V30 7291 C 701.704 -3.48545 2.4249 0
M  V30 7292 O 702.728 -2.88479 2.08945 0
M  V30 7293 O 701.587 -4.56873 2.99883 0
M  V30 7294 H 698.681 -0.710238 0.423663 0
M  V30 7295 H 701.227 -0.928503 1.42045 0
M  V30 7296 H 699.999 -2.41131 3.08174 0
M  V30 7297 H 699.622 -3.54695 1.79659 0
M  V30 7298 N 700.619 -1.13374 -1.09472 0
M  V30 7299 C 701.896 -0.806329 -1.78207 0
M  V30 7300 C 702.276 0.702191 -1.99079 0
M  V30 7301 O 701.624 1.63931 -1.59182 0
M  V30 7302 C 701.834 -1.59271 -3.10538 0
M  V30 7303 C 703.182 -1.78509 -3.85253 0
M  V30 7304 O 704.206 -1.55866 -3.20288 0
M  V30 7305 O 703.065 -2.16287 -5.01879 0
M  V30 7306 H 700.159 -0.29435 -0.772843 0
M  V30 7307 H 702.705 -1.23833 -1.16033 0
M  V30 7308 H 701.477 -2.61792 -2.90828 0
M  V30 7309 H 701.1 -1.15562 -3.80436 0
M  V30 7310 N 702.098 1.27442 -0.927168 0
M  V30 7311 C 703.326 1.98498 -0.583622 0
M  V30 7312 C 703.741 1.69171 0.838241 0
M  V30 7313 O 703.098 0.951969 1.55704 0
M  V30 7314 C 703.149 3.52552 -0.799341 0
M  V30 7315 O 702.87 3.80851 -2.16527 0
M  V30 7316 C 704.371 4.4086 -0.464436 0
M  V30 7317 H 701.591 0.633487 -0.221213 0
M  V30 7318 H 704.135 1.62308 -1.24404 0
M  V30 7319 H 702.29 3.86955 -0.185728 0
M  V30 7320 H 702.704 4.75441 -2.21487 0
M  V30 7321 H 704.178 5.47967 -0.666075 0
M  V30 7322 H 704.655 4.35082 0.599995 0
M  V30 7323 H 705.261 4.11977 -1.05617 0
M  V30 7324 N 703.576 0.692616 1.41565 0
M  V30 7325 C 704.506 0.0397325 2.33466 0
M  V30 7326 C 705.487 -0.770334 1.51657 0
M  V30 7327 O 706.672 -0.723903 1.80203 0
M  V30 7328 C 703.802 -0.899495 3.3545 0
M  V30 7329 C 702.756 -0.196738 4.27548 0
M  V30 7330 C 702.082 -1.25012 5.19881 0
M  V30 7331 C 703.382 0.935158 5.1386 0
M  V30 7332 H 705.076 0.807296 2.88311 0
M  V30 7333 H 702.622 0.389665 1.38628 0
M  V30 7334 H 704.575 -1.36545 3.98665 0
M  V30 7335 H 703.299 -1.69869 2.78948 0
M  V30 7336 H 701.958 0.249158 3.65752 0
M  V30 7337 H 701.606 -2.04177 4.59696 0
M  V30 7338 H 701.306 -0.784931 5.82334 0
M  V30 7339 H 702.83 -1.71665 5.85972 0
M  V30 7340 H 704.244 0.549619 5.70659 0
M  V30 7341 H 702.641 1.32726 5.85238 0
M  V30 7342 H 703.711 1.77613 4.512 0
M  V30 7343 N 705.054 -1.51416 0.437162 0
M  V30 7344 C 706.331 -1.94682 -0.189292 0
M  V30 7345 C 706.711 -1.37581 -1.60108 0
M  V30 7346 O 706.059 -0.562815 -2.2146 0
M  V30 7347 C 706.269 -3.48599 -0.167201 0
M  V30 7348 C 707.617 -4.2296 -0.372856 0
M  V30 7349 O 708.641 -3.55354 -0.245323 0
M  V30 7350 O 707.5 -5.42895 -0.626693 0
M  V30 7351 H 704.594 -0.816708 -0.130063 0
M  V30 7352 H 707.14 -1.62316 0.495128 0
M  V30 7353 H 705.912 -3.82616 0.81981 0
M  V30 7354 H 705.535 -3.87406 -0.894537 0
M  V30 7355 N 706.532 -0.168513 -1.56696 0
M  V30 7356 C 707.442 0.775435 -2.21414 0
M  V30 7357 C 708.458 1.25529 -1.20492 0
M  V30 7358 O 709.634 1.30801 -1.53144 0
M  V30 7359 C 706.699 1.9886 -2.83999 0
M  V30 7360 C 705.76 1.5559 -4.00113 0
M  V30 7361 C 704.993 2.71124 -4.59704 0
M  V30 7362 O 705.216 3.87917 -4.18182 0
M  V30 7363 O 704.15 2.4536 -5.4962 0
M  V30 7364 H 707.976 0.254416 -3.02632 0
M  V30 7365 H 705.561 0.0595507 -1.49281 0
M  V30 7366 H 707.443 2.69816 -3.23693 0
M  V30 7367 H 706.118 2.49874 -2.05779 0
M  V30 7368 H 705.025 0.815924 -3.65094 0
M  V30 7369 H 706.358 1.09271 -4.79917 0
M  V30 7370 N 708.01 1.57248 0.105221 0
M  V30 7371 C 709.258 1.85204 0.808951 0
M  V30 7372 C 709.579 0.75574 1.7976 0
M  V30 7373 O 708.849 -0.218984 1.94672 0
M  V30 7374 H 707.429 0.683346 0.301739 0
M  V30 7375 H 710.091 1.94695 0.0892605 0
M  V30 7376 H 709.187 2.81595 1.34575 0
M  V30 7377 N 709.488 -0.375779 1.53054 0
M  V30 7378 C 710.734 -1.12114 1.68992 0
M  V30 7379 C 711.067 -1.8926 0.435238 0
M  V30 7380 O 710.342 -1.86044 -0.567278 0
M  V30 7381 C 710.625 -2.08867 2.93337 0
M  V30 7382 C 710.478 -1.35397 4.28938 0
M  V30 7383 C 711.797 -3.09124 3.13257 0
M  V30 7384 H 708.916 -0.406207 0.614951 0
M  V30 7385 H 711.558 -0.403054 1.85676 0
M  V30 7386 H 709.708 -2.70102 2.79244 0
M  V30 7387 H 711.38 -0.770242 4.54824 0
M  V30 7388 H 709.623 -0.655801 4.28814 0
M  V30 7389 H 710.294 -2.06161 5.12056 0
M  V30 7390 H 712.77 -2.57987 3.26469 0
M  V30 7391 H 711.646 -3.74054 4.01715 0
M  V30 7392 H 711.907 -3.78729 2.28072 0
M  V30 7393 N 710.966 -1.44241 -0.634997 0
M  V30 7394 C 712.214 -1.46531 -1.39187 0
M  V30 7395 C 712.535 -0.0976441 -1.94755 0
M  V30 7396 O 711.805 0.869528 -1.75545 0
M  V30 7397 H 710.385 -0.539544 -0.516625 0
M  V30 7398 H 713.047 -1.79989 -0.747655 0
M  V30 7399 H 712.143 -2.18848 -2.22513 0
M  V30 7400 N 712.444 0.87505 -1.31075 0
M  V30 7401 C 713.374 1.99775 -1.20881 0
M  V30 7402 C 714.355 1.69822 -0.0971612 0
M  V30 7403 O 715.54 1.92158 -0.280895 0
M  V30 7404 C 712.67 3.35163 -0.910118 0
M  V30 7405 C 711.624 3.79406 -1.98078 0
M  V30 7406 C 710.95 5.12197 -1.53488 0
M  V30 7407 C 712.25 3.97061 -3.39323 0
M  V30 7408 H 713.944 2.08562 -2.14808 0
M  V30 7409 H 711.49 1.00207 -1.03415 0
M  V30 7410 H 713.443 4.13237 -0.825423 0
M  V30 7411 H 712.167 3.26536 0.064822 0
M  V30 7412 H 710.826 3.03568 -2.05528 0
M  V30 7413 H 710.474 5.00007 -0.547941 0
M  V30 7414 H 710.174 5.4277 -2.2511 0
M  V30 7415 H 711.698 5.92785 -1.46417 0
M  V30 7416 H 713.112 4.65545 -3.34576 0
M  V30 7417 H 711.509 4.39025 -4.09118 0
M  V30 7418 H 712.579 3.00601 -3.80483 0
M  V30 7419 N 713.922 1.13953 1.08869 0
M  V30 7420 C 715.168 0.906151 1.8143 0
M  V30 7421 C 715.501 -0.566089 1.85766 0
M  V30 7422 O 714.776 -1.41915 1.33006 0
M  V30 7423 C 715.059 1.50183 3.27287 0
M  V30 7424 C 714.912 3.04359 3.31189 0
M  V30 7425 C 716.231 1.17477 4.24131 0
M  V30 7426 H 713.35 0.330624 0.658678 0
M  V30 7427 H 715.992 1.40873 1.27495 0
M  V30 7428 H 714.142 1.07442 3.73348 0
M  V30 7429 H 715.814 3.55896 2.93488 0
M  V30 7430 H 714.057 3.39053 2.70602 0
M  V30 7431 H 714.728 3.41141 4.33966 0
M  V30 7432 H 717.204 1.5442 3.86385 0
M  V30 7433 H 716.08 1.61795 5.24513 0
M  V30 7434 H 716.341 0.0893312 4.4201 0
M  V30 7435 N 715.4 -1.26948 0.933913 0
M  V30 7436 C 716.35 -2.24306 0.408779 0
M  V30 7437 C 717.334 -1.53243 -0.490435 0
M  V30 7438 O 718.526 -1.73956 -0.326866 0
M  V30 7439 C 715.655 -3.41695 -0.331578 0
M  V30 7440 C 714.741 -4.20053 0.58451 0
M  V30 7441 N 715.132 -4.76122 1.70709 0
M  V30 7442 C 713.43 -4.44303 0.388703 0
M  V30 7443 C 714.131 -5.35267 2.27737 0
M  V30 7444 N 713.107 -5.20548 1.56622 0
M  V30 7445 H 716.909 -2.65244 1.26582 0
M  V30 7446 H 714.423 -1.4195 0.788919 0
M  V30 7447 H 716.42 -4.10552 -0.724774 0
M  V30 7448 H 715.08 -3.02286 -1.18547 0
M  V30 7449 H 716.091 -4.73884 2.08937 0
M  V30 7450 H 712.768 -4.15341 -0.424016 0
M  V30 7451 H 714.158 -5.89563 3.22282 0
M  V30 7452 N 716.879 -0.700114 -1.41195 0
M  V30 7453 C 718.104 -0.240704 -2.05998 0
M  V30 7454 C 718.529 1.10313 -1.52357 0
M  V30 7455 O 717.887 1.69154 -0.652424 0
M  V30 7456 C 717.935 -0.213783 -3.59966 0
M  V30 7457 O 717.039 0.809933 -4.04368 0
M  V30 7458 H 716.38 -0.116471 -0.653705 0
M  V30 7459 H 718.91 -0.956251 -1.80878 0
M  V30 7460 H 718.92 -0.0461852 -4.07974 0
M  V30 7461 H 717.595 -1.19454 -3.98376 0
M  V30 7462 H 716.172 0.611319 -3.67855 0
M  V30 7463 N 718.357 1.51182 -0.445186 0
M  V30 7464 C 719.305 2.29531 0.376597 0
M  V30 7465 C 720.299 1.35711 1.01385 0
M  V30 7466 O 721.505 1.53018 0.947922 0
M  V30 7467 H 717.88 0.738803 0.140267 0
M  V30 7468 H 719.851 2.96838 -0.304958 0
M  V30 7469 C 718.6 3.1552 1.4609 0
M  V30 7470 H 717.923 3.87605 0.979912 0
M  V30 7471 H 719.363 3.73384 2.009 0
M  V30 7472 C 717.822 2.31406 2.44852 0
M  V30 7473 O 718.352 1.97912 3.49562 0
M  V30 7474 N 716.558 1.94478 2.15932 0
M  V30 7475 H 716.105 2.21917 1.30808 0
M  V30 7476 H 716.063 1.38498 2.82251 0
M  V30 7477 N 719.835 0.176821 1.56605 0
M  V30 7478 C 721.084 -0.466833 1.96223 0
M  V30 7479 C 721.397 -1.64015 1.06576 0
M  V30 7480 O 722.603 -2.3504 1.35898 0
M  V30 7481 C 721.059 -0.881921 3.48927 0
M  V30 7482 C 720.667 0.266102 4.47209 0
M  V30 7483 C 722.411 -1.49368 3.97353 0
M  V30 7484 C 720.318 -0.168923 5.91159 0
M  V30 7485 H 719.248 -0.178178 0.732645 0
M  V30 7486 H 721.899 0.265929 1.81563 0
M  V30 7487 H 720.281 -1.67082 3.59026 0
M  V30 7488 H 721.455 1.04349 4.4883 0
M  V30 7489 H 719.77 0.788178 4.08872 0
M  V30 7490 H 722.367 -1.8313 5.02362 0
M  V30 7491 H 722.71 -2.3936 3.40606 0
M  V30 7492 H 723.243 -0.769114 3.90294 0
M  V30 7493 H 719.982 0.696351 6.51791 0
M  V30 7494 H 719.502 -0.911552 5.92833 0
M  V30 7495 H 721.181 -0.610938 6.44109 0
M  V30 7496 N 721.313 -1.57302 -0.09688 0
M  V30 7497 C 722.276 -2.00976 -1.10188 0
M  V30 7498 C 723.276 -0.903009 -1.3305 0
M  V30 7499 O 724.466 -1.16853 -1.29194 0
M  V30 7500 C 721.598 -2.36893 -2.45142 0
M  V30 7501 H 722.791 -2.9098 -0.726003 0
M  V30 7502 H 720.344 -1.52515 -0.341872 0
M  V30 7503 H 721.079 -1.49837 -2.8761 0
M  V30 7504 H 720.864 -3.17632 -2.29897 0
M  V30 7505 H 722.354 -2.71345 -3.1743 0
M  V30 7506 N 722.791 0.367657 -1.53252 0
M  V30 7507 C 724.019 1.13119 -1.73239 0
M  V30 7508 C 724.434 1.831 -0.460404 0
M  V30 7509 O 723.791 1.73483 0.566557 0
M  V30 7510 C 723.842 2.16308 -2.89643 0
M  V30 7511 O 723.563 1.49175 -4.1192 0
M  V30 7512 C 725.064 3.05224 -3.21486 0
M  V30 7513 H 722.284 0.338318 -0.579467 0
M  V30 7514 H 724.828 0.42721 -1.99988 0
M  V30 7515 H 722.983 2.82307 -2.65295 0
M  V30 7516 H 723.397 2.17912 -4.7709 0
M  V30 7517 H 724.871 3.73613 -4.06346 0
M  V30 7518 H 725.348 3.69919 -2.36763 0
M  V30 7519 H 725.954 2.44843 -3.47753 0
M  V30 7520 N 724.269 1.44576 0.627338 0
M  V30 7521 C 725.179 1.54232 1.76776 0
M  V30 7522 C 726.195 0.427782 1.6866 0
M  V30 7523 O 727.371 0.685671 1.89369 0
M  V30 7524 C 724.436 1.48738 3.13174 0
M  V30 7525 C 723.497 2.71074 3.32893 0
M  V30 7526 C 722.73 2.65832 4.62784 0
M  V30 7527 O 722.953 1.72048 5.43834 0
M  V30 7528 O 721.887 3.56742 4.84787 0
M  V30 7529 H 725.713 2.50586 1.71582 0
M  V30 7530 H 723.298 1.26865 0.789028 0
M  V30 7531 H 725.18 1.48211 3.94476 0
M  V30 7532 H 723.855 0.555292 3.18902 0
M  V30 7533 H 722.762 2.77168 2.51254 0
M  V30 7534 H 724.095 3.63342 3.32029 0
M  V30 7535 N 725.747 -0.868086 1.31537 0
M  V30 7536 C 726.697 -1.96321 1.1594 0
M  V30 7537 C 727.681 -1.60748 0.0698962 0
M  V30 7538 O 728.873 -1.74524 0.295011 0
M  V30 7539 C 726.002 -3.32073 0.870789 0
M  V30 7540 C 725.088 -3.73907 2.00136 0
M  V30 7541 N 725.479 -3.87685 3.24859 0
M  V30 7542 C 723.777 -4.03433 1.90152 0
M  V30 7543 C 724.478 -4.23454 3.98825 0
M  V30 7544 N 723.454 -4.34242 3.27009 0
M  V30 7545 H 727.256 -2.05088 2.10514 0
M  V30 7546 H 724.77 -1.059 1.23122 0
M  V30 7547 H 726.767 -4.10279 0.740034 0
M  V30 7548 H 725.427 -3.24631 -0.0667068 0
M  V30 7549 H 726.438 -3.72363 3.59953 0
M  V30 7550 H 723.115 -4.0437 1.03879 0
M  V30 7551 H 724.505 -4.41696 5.06314 0
M  V30 7552 N 727.225 -1.14528 -1.08264 0
M  V30 7553 C 728.474 -0.908992 -1.80056 0
M  V30 7554 C 728.787 0.565859 -1.87236 0
M  V30 7555 O 729.993 0.919454 -2.55457 0
M  V30 7556 C 728.449 -1.57681 -3.23519 0
M  V30 7557 C 728.057 -3.08803 -3.24569 0
M  V30 7558 C 729.801 -1.4217 -3.99985 0
M  V30 7559 C 727.708 -3.68414 -4.62629 0
M  V30 7560 H 726.638 -0.336432 -0.674781 0
M  V30 7561 H 729.289 -1.37437 -1.21587 0
M  V30 7562 H 727.671 -1.03911 -3.82124 0
M  V30 7563 H 728.845 -3.69252 -2.75663 0
M  V30 7564 H 727.16 -3.23968 -2.61598 0
M  V30 7565 H 729.757 -1.84106 -5.02005 0
M  V30 7566 H 730.1 -0.367989 -4.1467 0
M  V30 7567 H 730.633 -1.92984 -3.47853 0
M  V30 7568 H 727.372 -4.73644 -4.53147 0
M  V30 7569 H 726.892 -3.12746 -5.11811 0
M  V30 7570 H 728.571 -3.68793 -5.31602 0
M  V30 7571 N 728.703 1.26451 -0.940633 0
M  V30 7572 C 730.114 1.75726 -0.630653 0
M  V30 7573 C 730.465 1.76631 0.854167 0
M  V30 7574 O 729.59 1.37807 1.66848 0
M  V30 7575 C 730.185 3.19114 -1.13805 0
M  V30 7576 C 728.744 3.66005 -0.878497 0
M  V30 7577 C 727.891 2.45505 -1.28928 0
M  V30 7578 H 730.842 1.12535 -1.119 0
M  V30 7579 H 730.863 3.77311 -0.491625 0
M  V30 7580 H 730.375 3.18424 -2.21874 0
M  V30 7581 H 728.476 3.72126 0.187833 0
M  V30 7582 H 728.589 4.54844 -1.50512 0
M  V30 7583 H 726.953 2.4467 -0.707713 0
M  V30 7584 H 727.736 2.47516 -2.37888 0
M  V30 7585 N 730.181 0.707592 1.40822 0
M  V30 7586 C 731.406 0.251626 2.05868 0
M  V30 7587 C 731.831 -1.09503 1.5294 0
M  V30 7588 O 731.189 -1.68806 0.661385 0
M  V30 7589 C 731.237 0.23287 3.59847 0
M  V30 7590 O 730.341 -0.788477 4.04792 0
M  V30 7591 H 729.682 0.119936 0.653078 0
M  V30 7592 H 732.212 0.96583 1.80369 0
M  V30 7593 H 732.222 0.0678204 4.07944 0
M  V30 7594 H 730.897 1.21565 3.97737 0
M  V30 7595 H 729.474 -0.591802 3.68174 0
M  V30 7596 N 731.66 -1.50943 0.453197 0
M  V30 7597 C 733.071 -1.86699 -0.00619892 0
M  V30 7598 C 733.422 -1.3693 -1.40515 0
M  V30 7599 O 732.547 -0.726715 -2.03833 0
M  V30 7600 C 733.142 -3.38795 -0.018025 0
M  V30 7601 C 731.701 -3.74028 -0.421885 0
M  V30 7602 C 730.848 -2.74752 0.375087 0
M  V30 7603 H 733.799 -1.43942 0.668317 0
M  V30 7604 H 733.82 -3.71468 -0.824125 0
M  V30 7605 H 733.332 -3.74988 1.00028 0
M  V30 7606 H 731.433 -3.43431 -1.44521 0
M  V30 7607 H 731.546 -4.78908 -0.135664 0
M  V30 7608 H 729.91 -2.5414 -0.168794 0
M  V30 7609 H 730.693 -3.13787 1.39256 0
M  V30 7610 N 733.138 -0.185124 -1.56509 0
M  V30 7611 C 734.101 0.72591 -2.17401 0
M  V30 7612 C 735.101 1.14819 -1.12575 0
M  V30 7613 O 736.291 1.0629 -1.38015 0
M  V30 7614 C 733.423 1.98979 -2.76803 0
M  V30 7615 H 734.616 0.195588 -2.99262 0
M  V30 7616 H 732.169 0.0644772 -1.56167 0
M  V30 7617 H 732.904 2.56287 -1.98714 0
M  V30 7618 H 732.689 1.69583 -3.53531 0
M  V30 7619 H 734.179 2.63966 -3.23592 0
M  V30 7620 N 734.616 1.57351 0.0885366 0
M  V30 7621 C 735.563 2.02523 1.10693 0
M  V30 7622 C 736.533 0.902736 1.39427 0
M  V30 7623 O 737.718 1.16921 1.50779 0
M  V30 7624 C 734.858 2.46013 2.42016 0
M  V30 7625 C 733.971 3.7181 2.19957 0
M  V30 7626 C 733.106 4.04152 3.44724 0
M  V30 7627 C 732.145 5.2304 3.17956 0
M  V30 7628 N 731.282 5.51102 4.35007 0
M  V30 7629 H 736.122 2.89302 0.714742 0
M  V30 7630 H 733.659 1.43084 0.341378 0
M  V30 7631 H 735.617 2.69274 3.18665 0
M  V30 7632 H 734.247 1.62235 2.79069 0
M  V30 7633 H 733.299 3.55987 1.34079 0
M  V30 7634 H 734.611 4.58604 1.96173 0
M  V30 7635 H 733.765 4.28225 4.29777 0
M  V30 7636 H 732.504 3.15893 3.71568 0
M  V30 7637 H 731.509 4.98781 2.31296 0
M  V30 7638 H 732.734 6.12902 2.92451 0
M  V30 7639 H 730.68 4.65802 4.61914 0
M  V30 7640 H 730.597 6.3228 4.14437 0
M  V30 7641 H 731.865 5.79714 5.21106 0
M  V30 7642 N 736.094 -0.359525 1.53444 0
M  V30 7643 C 737.041 -1.44073 1.8031 0
M  V30 7644 C 738.011 -1.52946 0.647811 0
M  V30 7645 O 739.196 -1.68739 0.890614 0
M  V30 7646 C 736.336 -2.80941 2.00416 0
M  V30 7647 C 735.449 -2.80986 3.28132 0
M  V30 7648 C 734.584 -4.09468 3.38393 0
M  V30 7649 C 733.623 -4.03679 4.60119 0
M  V30 7650 N 732.76 -5.23821 4.675 0
M  V30 7651 H 737.6 -1.20464 2.72566 0
M  V30 7652 H 735.137 -0.583859 1.35017 0
M  V30 7653 H 737.095 -3.60459 2.1006 0
M  V30 7654 H 735.725 -3.02936 1.11489 0
M  V30 7655 H 734.777 -1.93666 3.27411 0
M  V30 7656 H 736.089 -2.72583 4.17732 0
M  V30 7657 H 735.243 -4.97404 3.47382 0
M  V30 7658 H 733.982 -4.20632 2.4682 0
M  V30 7659 H 732.987 -3.14129 4.51224 0
M  V30 7660 H 734.212 -3.94112 5.5304 0
M  V30 7661 H 732.158 -5.35559 3.7883 0
M  V30 7662 H 732.075 -5.17611 5.51013 0
M  V30 7663 H 733.343 -6.13572 4.8078 0
M  V30 7664 N 737.572 -1.44907 -0.619662 0
M  V30 7665 C 738.818 -1.48512 -1.38102 0
M  V30 7666 C 739.151 -0.121686 -1.93818 0
M  V30 7667 O 738.426 0.862256 -1.74343 0
M  V30 7668 C 738.709 -2.55469 -2.53787 0
M  V30 7669 C 738.562 -4.01212 -2.03345 0
M  V30 7670 C 739.881 -2.58821 -3.55949 0
M  V30 7671 H 737 -0.540712 -0.500799 0
M  V30 7672 H 739.642 -1.7665 -0.69962 0
M  V30 7673 H 737.792 -2.31606 -3.11915 0
M  V30 7674 H 739.464 -4.36245 -1.49959 0
M  V30 7675 H 737.707 -4.12443 -1.34438 0
M  V30 7676 H 738.378 -4.71717 -2.86683 0
M  V30 7677 H 740.854 -2.80172 -3.07641 0
M  V30 7678 H 739.73 -3.35542 -4.34399 0
M  V30 7679 H 739.991 -1.63451 -4.10775 0
M  V30 7680 N 739.05 0.861098 -1.31996 0
M  V30 7681 C 740.461 1.43065 -1.19955 0
M  V30 7682 C 740.812 1.95273 0.190489 0
M  V30 7683 O 739.937 1.87012 1.08882 0
M  V30 7684 C 740.532 2.60052 -2.1716 0
M  V30 7685 C 739.091 3.13026 -2.09026 0
M  V30 7686 C 738.238 1.85756 -2.05888 0
M  V30 7687 H 741.189 0.668834 -1.43918 0
M  V30 7688 H 741.21 3.37016 -1.76637 0
M  V30 7689 H 740.722 2.22024 -3.18319 0
M  V30 7690 H 738.823 3.55653 -1.11092 0
M  V30 7691 H 738.936 3.74707 -2.98549 0
M  V30 7692 H 737.3 2.05088 -1.51033 0
M  V30 7693 H 738.083 1.49954 -3.08818 0
M  V30 7694 N 740.528 1.15101 1.07655 0
M  V30 7695 C 741.944 0.893004 1.32279 0
M  V30 7696 C 742.144 -0.461701 1.96139 0
M  V30 7697 O 741.2 -1.20431 2.21929 0
M  V30 7698 C 742.513 2.03161 2.21689 0
M  V30 7699 C 744.061 2.06579 2.35147 0
M  V30 7700 C 744.536 3.19754 3.27905 0
M  V30 7701 N 746.027 3.19382 3.35484 0
M  V30 7702 C 746.762 4.03592 4.07309 0
M  V30 7703 N 746.258 4.97859 4.81776 0
M  V30 7704 N 748.051 3.91626 4.03219 0
M  V30 7705 H 740.202 2.02341 0.645886 0
M  V30 7706 H 742.465 0.882127 0.347211 0
M  V30 7707 H 742.171 3.00934 1.82021 0
M  V30 7708 H 742.045 1.96132 3.22199 0
M  V30 7709 H 744.432 1.09408 2.74069 0
M  V30 7710 H 744.513 2.17676 1.34353 0
M  V30 7711 H 744.157 4.17175 2.89702 0
M  V30 7712 H 744.087 3.05893 4.28645 0
M  V30 7713 H 746.578 2.51112 2.82403 0
M  V30 7714 H 746.891 5.58563 5.34067 0
M  V30 7715 H 745.236 5.0185 4.80803 0
M  V30 7716 H 748.427 3.17295 3.44154 0
M  V30 7717 H 748.6 4.57479 4.5893 0
M  V30 7718 N 742.006 -1.2595 0.947325 0
M  V30 7719 C 742.936 -2.28521 0.479604 0
M  V30 7720 C 743.917 -1.63469 -0.470293 0
M  V30 7721 O 745.102 -1.90627 -0.370824 0
M  V30 7722 C 742.232 -3.46397 -0.250289 0
M  V30 7723 C 741.186 -4.23578 0.613643 0
M  V30 7724 C 740.512 -5.34131 -0.246568 0
M  V30 7725 C 741.812 -4.86979 1.88809 0
M  V30 7726 H 743.506 -2.67895 1.33688 0
M  V30 7727 H 741.052 -1.28783 0.644274 0
M  V30 7728 H 743.005 -4.17269 -0.588576 0
M  V30 7729 H 741.729 -3.05993 -1.14175 0
M  V30 7730 H 740.388 -3.54478 0.93491 0
M  V30 7731 H 740.036 -4.89968 -1.13756 0
M  V30 7732 H 739.736 -5.86683 0.328123 0
M  V30 7733 H 741.26 -6.07839 -0.579986 0
M  V30 7734 H 742.674 -5.50034 1.61666 0
M  V30 7735 H 741.071 -5.49675 2.40784 0
M  V30 7736 H 742.141 -4.09575 2.5957 0
M  V30 7737 N 743.484 -0.715051 -1.40445 0
M  V30 7738 C 744.895 -0.326763 -1.83818 0
M  V30 7739 C 745.246 1.13851 -1.59789 0
M  V30 7740 O 744.371 1.87611 -1.07848 0
M  V30 7741 C 744.966 -0.586297 -3.33688 0
M  V30 7742 C 743.525 -0.251724 -3.75557 0
M  V30 7743 C 742.672 -0.858928 -2.63662 0
M  V30 7744 H 745.623 -0.914241 -1.2972 0
M  V30 7745 H 745.644 0.148636 -3.8021 0
M  V30 7746 H 745.156 -1.65281 -3.51146 0
M  V30 7747 H 743.257 0.809754 -3.63695 0
M  V30 7748 H 743.37 -0.720348 -4.73654 0
M  V30 7749 H 741.734 -0.287013 -2.53078 0
M  V30 7750 H 742.517 -1.9297 -2.83932 0
M  V30 7751 N 744.962 1.50701 -0.461195 0
M  V30 7752 C 745.925 2.2686 0.326679 0
M  V30 7753 C 746.925 1.31243 0.929085 0
M  V30 7754 O 748.115 1.54754 0.799807 0
M  V30 7755 C 745.247 3.07844 1.46441 0
M  V30 7756 H 746.44 2.97954 -0.341095 0
M  V30 7757 H 743.993 1.54814 -0.214984 0
M  V30 7758 H 744.728 2.41223 2.16753 0
M  V30 7759 H 744.513 3.78101 1.03836 0
M  V30 7760 H 746.003 3.65469 2.02044 0
M  V30 7761 N 746.441 0.193421 1.56409 0
M  V30 7762 C 747.669 -0.451438 2.01915 0
M  V30 7763 C 748.084 -1.55306 1.07357 0
M  V30 7764 O 747.441 -1.82333 0.0781512 0
M  V30 7765 C 747.492 -1.00931 3.47124 0
M  V30 7766 O 747.213 0.0483623 4.38073 0
M  V30 7767 C 748.714 -1.73021 4.0814 0
M  V30 7768 H 745.934 -0.113495 0.661332 0
M  V30 7769 H 748.478 0.301636 2.02263 0
M  V30 7770 H 746.633 -1.71277 3.47481 0
M  V30 7771 H 747.047 -0.366644 5.23217 0
M  V30 7772 H 748.521 -2.07289 5.11601 0
M  V30 7773 H 748.998 -2.6333 3.51502 0
M  V30 7774 H 749.604 -1.07264 4.11551 0
M  V30 7775 N 747.919 -1.57396 -0.0801906 0
M  V30 7776 C 748.882 -2.02133 -1.0805 0
M  V30 7777 C 749.882 -0.91707 -1.32085 0
M  V30 7778 O 751.072 -1.18217 -1.27947 0
M  V30 7779 C 748.204 -2.39479 -2.42616 0
M  V30 7780 H 749.397 -2.91733 -0.6951 0
M  V30 7781 H 746.95 -1.52869 -0.325677 0
M  V30 7782 H 747.685 -1.52879 -2.86004 0
M  V30 7783 H 747.47 -3.20052 -2.26515 0
M  V30 7784 H 748.96 -2.74697 -3.14534 0
M  V30 7785 N 749.397 0.351382 -1.53633 0
M  V30 7786 C 750.36 1.41403 -1.80383 0
M  V30 7787 C 751.36 1.45963 -0.674635 0
M  V30 7788 O 752.55 1.46476 -0.942895 0
M  V30 7789 C 749.682 2.80401 -1.93876 0
M  V30 7790 H 750.875 1.18951 -2.75301 0
M  V30 7791 H 748.428 0.58533 -1.44926 0
M  V30 7792 H 749.163 3.08147 -1.01074 0
M  V30 7793 H 748.948 2.78488 -2.7602 0
M  V30 7794 H 750.438 3.57329 -2.16116 0
M  V30 7795 N 750.875 1.45233 0.611969 0
M  V30 7796 C 751.785 1.56098 1.7513 0
M  V30 7797 C 752.801 0.445646 1.68196 0
M  V30 7798 O 753.977 0.705718 1.88631 0
M  V30 7799 C 751.042 1.52052 3.11579 0
M  V30 7800 C 750.103 2.74589 3.29999 0
M  V30 7801 C 749.336 2.70726 4.59938 0
M  V30 7802 O 749.559 1.77806 5.41979 0
M  V30 7803 O 748.493 3.61864 4.80976 0
M  V30 7804 H 752.319 2.52392 1.68914 0
M  V30 7805 H 749.904 1.27695 0.775528 0
M  V30 7806 H 751.786 1.52387 3.92882 0
M  V30 7807 H 750.461 0.589085 3.18295 0
M  V30 7808 H 749.368 2.79817 2.48301 0
M  V30 7809 H 750.701 3.66843 3.28157 0
M  V30 7810 N 752.353 -0.854086 1.3245 0
M  V30 7811 C 753.764 -1.42427 1.20712 0
M  V30 7812 C 754.115 -1.95371 -0.18013 0
M  V30 7813 O 753.24 -1.87587 -1.07889 0
M  V30 7814 C 753.835 -2.58897 2.18536 0
M  V30 7815 C 752.394 -3.11913 2.10683 0
M  V30 7816 C 751.541 -1.84661 2.06871 0
M  V30 7817 H 754.492 -0.661192 1.4427 0
M  V30 7818 H 754.513 -3.36074 1.78422 0
M  V30 7819 H 754.025 -2.20333 3.19492 0
M  V30 7820 H 752.126 -3.55059 1.12977 0
M  V30 7821 H 752.239 -3.73119 3.00532 0
M  V30 7822 H 750.603 -2.04285 1.52118 0
M  V30 7823 H 751.386 -1.48314 3.09609 0
M  V30 7824 N 753.831 -1.1567 -1.07043 0
M  V30 7825 C 754.741 -0.870435 -2.17855 0
M  V30 7826 C 755.757 0.154452 -1.73313 0
M  V30 7827 O 756.933 -0.0203759 -2.0139 0
M  V30 7828 C 753.998 -0.367219 -3.4475 0
M  V30 7829 C 753.059 -1.45639 -4.03841 0
M  V30 7830 C 752.292 -0.977092 -5.2468 0
M  V30 7831 O 752.515 0.176127 -5.70128 0
M  V30 7832 O 751.449 -1.76215 -5.75527 0
M  V30 7833 H 755.275 -1.79687 -2.44839 0
M  V30 7834 H 752.86 -0.936064 -1.1644 0
M  V30 7835 H 754.742 -0.0931947 -4.21297 0
M  V30 7836 H 753.417 0.53131 -3.1931 0
M  V30 7837 H 752.324 -1.78406 -3.28819 0
M  V30 7838 H 753.657 -2.32995 -4.3356 0
M  V30 7839 N 755.309 1.25446 -0.953992 0
M  V30 7840 C 756.272 2.24156 -0.478179 0
M  V30 7841 C 757.272 1.55278 0.417776 0
M  V30 7842 O 758.462 1.72866 0.215155 0
M  V30 7843 C 755.594 3.39495 0.309202 0
M  V30 7844 H 756.787 2.67764 -1.35064 0
M  V30 7845 H 754.34 1.37822 -0.737206 0
M  V30 7846 H 755.075 3.01307 1.19936 0
M  V30 7847 H 754.86 3.90679 -0.333562 0
M  V30 7848 H 756.35 4.12796 0.631594 0
M  V30 7849 N 756.787 0.722489 1.40064 0
M  V30 7850 C 757.75 0.0830209 2.2905 0
M  V30 7851 C 758.75 -0.680208 1.45705 0
M  V30 7852 O 759.94 -0.511084 1.66534 0
M  V30 7853 C 757.072 -0.892092 3.29021 0
M  V30 7854 H 758.265 0.866848 2.87099 0
M  V30 7855 H 755.818 0.487556 1.48501 0
M  V30 7856 H 756.553 -1.70273 2.76003 0
M  V30 7857 H 756.338 -0.34761 3.90556 0
M  V30 7858 H 757.828 -1.33648 3.95636 0
M  V30 7859 N 758.265 -1.50454 0.469181 0
M  V30 7860 C 759.511 -2.02615 -0.0865971 0
M  V30 7861 C 759.844 -1.35062 -1.39542 0
M  V30 7862 O 759.119 -0.475701 -1.88593 0
M  V30 7863 C 759.402 -3.59068 -0.272385 0
M  V30 7864 C 759.255 -4.37196 1.05733 0
M  V30 7865 C 760.574 -4.2793 -1.0278 0
M  V30 7866 H 757.693 -0.736389 -0.0299977 0
M  V30 7867 H 760.335 -1.79792 0.614399 0
M  V30 7868 H 758.485 -3.78646 -0.869471 0
M  V30 7869 H 760.157 -4.29195 1.69084 0
M  V30 7870 H 758.4 -4.01013 1.65442 0
M  V30 7871 H 759.071 -5.44924 0.880997 0
M  V30 7872 H 761.547 -4.12816 -0.521718 0
M  V30 7873 H 760.423 -5.37214 -1.12659 0
M  V30 7874 H 760.684 -3.90968 -2.0639 0
M  V30 7875 N 759.743 -0.201713 -1.56304 0
M  V30 7876 C 760.992 0.435557 -1.96941 0
M  V30 7877 C 761.305 1.62299 -1.09172 0
M  V30 7878 O 762.511 2.32849 -1.3962 0
M  V30 7879 C 760.967 0.826298 -3.50286 0
M  V30 7880 C 760.575 -0.337216 -4.46729 0
M  V30 7881 C 762.319 1.43028 -3.99679 0
M  V30 7882 C 760.226 0.0748539 -5.91353 0
M  V30 7883 H 759.156 0.1665 -0.735387 0
M  V30 7884 H 761.807 -0.294781 -1.81117 0
M  V30 7885 H 760.189 1.61349 -3.61639 0
M  V30 7886 H 761.363 -1.11476 -4.47113 0
M  V30 7887 H 759.678 -0.853126 -4.07567 0
M  V30 7888 H 762.275 1.75115 -5.05212 0
M  V30 7889 H 762.618 2.33911 -3.44371 0
M  V30 7890 H 763.151 0.706924 -3.91468 0
M  V30 7891 H 759.89 -0.799957 -6.506 0
M  V30 7892 H 759.41 0.817122 -5.94208 0
M  V30 7893 H 761.089 0.508389 -6.45 0
M  V30 7894 N 761.222 1.57436 0.0718424 0
M  V30 7895 C 762.447 1.91858 0.787745 0
M  V30 7896 C 762.872 0.798119 1.70328 0
M  V30 7897 O 762.23 -0.24905 1.79581 0
M  V30 7898 C 762.278 3.25232 1.55744 0
M  V30 7899 O 761.382 3.14462 2.6681 0
M  V30 7900 H 760.723 0.628258 0.214914 0
M  V30 7901 H 763.253 2.04561 0.0401012 0
M  V30 7902 H 763.263 3.59105 1.9367 0
M  V30 7903 H 761.938 4.0636 0.885691 0
M  V30 7904 H 760.515 2.92148 2.31741 0
M  V30 7905 N 762.7 -0.34323 1.53817 0
M  V30 7906 C 763.648 -1.44176 1.82527 0
M  V30 7907 C 764.642 -1.54452 0.695772 0
M  V30 7908 O 765.848 -1.57072 0.879114 0
M  V30 7909 H 762.223 -0.480729 0.578277 0
M  V30 7910 H 764.194 -1.17176 2.74431 0
M  V30 7911 C 762.943 -2.80695 2.05197 0
M  V30 7912 H 762.266 -2.73554 2.91561 0
M  V30 7913 H 763.706 -3.56679 2.29251 0
M  V30 7914 C 762.165 -3.26322 0.837589 0
M  V30 7915 O 762.695 -4.01683 0.0371631 0
M  V30 7916 N 760.901 -2.83128 0.654724 0
M  V30 7917 H 760.448 -2.21965 1.30725 0
M  V30 7918 H 760.406 -3.14011 -0.156345 0
M  V30 7919 N 764.178 -1.45556 -0.604258 0
M  V30 7920 C 765.426 -1.4945 -1.36048 0
M  V30 7921 C 765.747 -0.138933 -1.94504 0
M  V30 7922 O 765.017 0.832097 -1.7735 0
M  V30 7923 H 763.597 -0.550381 -0.505064 0
M  V30 7924 H 766.259 -1.81535 -0.709308 0
M  V30 7925 H 765.355 -2.23519 -2.17821 0
M  V30 7926 N 765.656 0.84705 -1.32902 0
M  V30 7927 C 766.566 1.98845 -1.2449 0
M  V30 7928 C 767.582 1.7329 -0.15702 0
M  V30 7929 O 768.758 1.978 -0.379104 0
M  V30 7930 C 765.823 3.32679 -0.975985 0
M  V30 7931 C 764.884 3.71405 -2.15306 0
M  V30 7932 C 764.117 4.98853 -1.89688 0
M  V30 7933 O 764.34 5.64134 -0.843168 0
M  V30 7934 O 763.274 5.34889 -2.76002 0
M  V30 7935 H 767.1 2.0888 -2.2046 0
M  V30 7936 H 764.685 0.978852 -1.12867 0
M  V30 7937 H 766.567 4.12885 -0.842826 0
M  V30 7938 H 765.242 3.23667 -0.0464954 0
M  V30 7939 H 764.149 2.91743 -2.34172 0
M  V30 7940 H 765.482 3.85073 -3.06561 0
M  V30 7941 N 767.134 1.16236 1.06428 0
M  V30 7942 C 768.084 0.835994 2.12121 0
M  V30 7943 C 769.068 -0.183955 1.59845 0
M  V30 7944 O 770.26 0.0166741 1.76992 0
M  V30 7945 C 767.389 0.337333 3.41639 0
M  V30 7946 C 766.475 1.38798 4.00744 0
M  V30 7947 N 766.866 2.59799 4.3398 0
M  V30 7948 C 765.164 1.24292 4.28331 0
M  V30 7949 C 765.865 3.27213 4.80943 0
M  V30 7950 N 764.841 2.54594 4.80294 0
M  V30 7951 H 768.643 1.75615 2.35662 0
M  V30 7952 H 766.157 1.04921 1.23957 0
M  V30 7953 H 768.154 0.0851274 4.16813 0
M  V30 7954 H 766.814 -0.57677 3.19536 0
M  V30 7955 H 767.825 2.96867 4.24371 0
M  V30 7956 H 764.502 0.389464 4.15679 0
M  V30 7957 H 765.892 4.30492 5.15874 0
M  V30 7958 O 768.651 -1.1913 1.09043 0
M  V30 7959 H 769.342 -1.77084 0.784907 0
M  V30 END ATOM
M  V30 BEGIN BOND
M  V30 END BOND
M  V30 END CTAB
M  END
$$$$
