drugbank_target|Q01693 Bacterial leucyl aminopeptidase (DB01980; DB02386; DB02664; DB03424)
 OpenBabel12092119533D

  0  0  0     0  0            999 V3000
M  V30 BEGIN CTAB
M  V30 COUNTS 7416 7503 0 0 0
M  V30 BEGIN ATOM
M  V30 1 H -0.908 1.98254 -0.117106 0
M  V30 2 N 0 1.576 0 0
M  V30 3 C 0.933 2.03868 1.02534 0
M  V30 4 C 1.911 0.928543 1.3348 0
M  V30 5 O 3.095 1.19667 1.45644 0
M  V30 6 C 0.222 2.43627 2.35294 0
M  V30 7 C -0.732 3.65373 2.2001 0
M  V30 8 S 0.101 5.13292 1.52614 0
M  V30 9 C 1.257 5.56322 2.86805 0
M  V30 10 H 1.49 2.90518 0.631377 0
M  V30 11 H -0.977 1.52953 0.210867 0
M  V30 12 H 0.981 2.67203 3.11629 0
M  V30 13 H -0.358 1.57376 2.7183 0
M  V30 14 H -1.165 3.90944 3.18086 0
M  V30 15 H -1.563 3.418 1.51819 0
M  V30 16 H 0.729 5.58782 3.83104 0
M  V30 17 H 1.672 6.56266 2.65933 0
M  V30 18 H 2.08 4.83886 2.90714 0
M  V30 19 N 1.4781 -0.272755 1.55222 0
M  V30 20 C 2.4251 -1.33716 1.88119 0
M  V30 21 C 3.3951 -1.49066 0.73271 0
M  V30 22 O 4.5801 -1.63469 0.984002 0
M  V30 23 C 1.7201 -2.69238 2.15882 0
M  V30 24 C 0.8331 -2.62108 3.43399 0
M  V30 25 C -0.0319 -3.89811 3.60861 0
M  V30 26 C -0.9929 -3.77193 4.8207 0
M  V30 27 N -1.8559 -4.9673 4.96189 0
M  V30 28 H 2.9841 -1.04962 2.78903 0
M  V30 29 H 0.5211 -0.507088 1.38083 0
M  V30 30 H 2.4791 -3.48089 2.29978 0
M  V30 31 H 1.1091 -2.96194 1.28331 0
M  V30 32 H 0.1611 -1.74967 3.37773 0
M  V30 33 H 1.4731 -2.48685 4.32386 0
M  V30 34 H 0.6271 -4.77103 3.74777 0
M  V30 35 H -0.6339 -4.06102 2.7006 0
M  V30 36 H -1.6289 -2.88284 4.68159 0
M  V30 37 H -0.4039 -3.62421 5.74307 0
M  V30 38 H -2.4579 -5.13431 4.08319 0
M  V30 39 H -2.5409 -4.85839 5.79221 0
M  V30 40 H -1.2729 -5.85594 5.1449 0
M  V30 41 N 2.9562 -1.48159 -0.537278 0
M  V30 42 C 4.1862 -1.59223 -1.3165 0
M  V30 43 C 4.5942 -0.248849 -1.87556 0
M  V30 44 O 3.9372 0.770949 -1.6674 0
M  V30 45 C 3.9992 -2.57365 -2.51005 0
M  V30 46 C 3.6632 -4.02603 -2.16239 0
M  V30 47 C 4.6602 -4.90503 -1.72344 0
M  V30 48 C 2.3452 -4.48088 -2.26986 0
M  V30 49 C 4.3392 -6.21913 -1.39651 0
M  V30 50 C 2.0262 -5.7952 -1.93906 0
M  V30 51 C 3.0242 -6.66255 -1.50309 0
M  V30 52 O 2.7122 -7.95243 -1.17659 0
M  V30 53 H 2.4442 -0.539831 -0.406889 0
M  V30 54 H 4.9982 -1.94655 -0.655641 0
M  V30 55 H 3.2282 -2.1704 -3.20048 0
M  V30 56 H 4.9172 -2.58342 -3.13072 0
M  V30 57 H 5.6832 -4.56604 -1.63517 0
M  V30 58 H 1.5622 -3.80769 -2.59877 0
M  V30 59 H 5.1062 -6.89569 -1.0555 0
M  V30 60 H 1.0032 -6.12957 -2.02371 0
M  V30 61 H 1.7712 -8.0793 -1.31119 0
M  V30 62 N 4.4343 0.785586 -1.36625 0
M  V30 63 C 5.6623 1.57448 -1.3423 0
M  V30 64 C 6.0773 1.88649 0.0755653 0
M  V30 65 O 5.4343 1.50414 1.03354 0
M  V30 66 C 5.4853 2.89316 -2.16745 0
M  V30 67 O 5.2063 2.59459 -3.53005 0
M  V30 68 C 6.7073 3.83606 -2.22174 0
M  V30 69 H 3.9273 0.488226 -0.4603 0
M  V30 70 H 6.4713 0.974733 -1.79775 0
M  V30 71 H 4.6263 3.4575 -1.74745 0
M  V30 72 H 5.0403 3.43804 -3.96105 0
M  V30 73 H 6.5143 4.73181 -2.8426 0
M  V30 74 H 6.9913 4.21734 -1.22627 0
M  V30 75 H 7.5973 3.33104 -2.64427 0
M  V30 76 N 5.9124 1.20967 1.01018 0
M  V30 77 C 6.8594 0.964281 2.09691 0
M  V30 78 C 7.8294 -0.107853 1.65749 0
M  V30 79 O 9.0144 0.0381987 1.90762 0
M  V30 80 C 6.1544 0.52943 3.41015 0
M  V30 81 C 5.2674 1.67043 3.98398 0
M  V30 82 C 4.4024 1.18525 5.17808 0
M  V30 83 C 3.4414 2.29892 5.67288 0
M  V30 84 N 2.5784 1.82546 6.77954 0
M  V30 85 H 7.4184 1.89463 2.30017 0
M  V30 86 H 4.9554 0.944289 1.1279 0
M  V30 87 H 6.9134 0.258588 4.16398 0
M  V30 88 H 5.5434 -0.363919 3.20742 0
M  V30 89 H 4.5954 2.05603 3.20049 0
M  V30 90 H 5.9074 2.50877 4.31117 0
M  V30 91 H 5.0614 0.870762 6.00419 0
M  V30 92 H 3.8004 0.316887 4.86669 0
M  V30 93 H 2.8054 2.6215 4.83278 0
M  V30 94 H 4.0304 3.17216 6.00459 0
M  V30 95 H 1.9764 0.980454 6.48632 0
M  V30 96 H 1.8934 2.59956 7.09901 0
M  V30 97 H 3.1614 1.54115 7.64113 0
M  V30 98 N 7.3905 -1.2043 1.01659 0
M  V30 99 C 8.6185 -1.93777 0.725132 0
M  V30 100 C 9.0335 -1.74772 -0.714166 0
M  V30 101 O 8.3905 -1.06169 -1.4844 0
M  V30 102 C 8.4415 -3.45876 1.05129 0
M  V30 103 O 8.1625 -3.6426 2.43406 0
M  V30 104 C 9.6635 -4.36368 0.780891 0
M  V30 105 H 6.8835 -0.615901 0.266284 0
M  V30 106 H 9.4275 -1.52922 1.35776 0
M  V30 107 H 7.5825 -3.8461 0.464065 0
M  V30 108 H 7.9965 -4.58246 2.55169 0
M  V30 109 H 9.4705 -5.41743 1.05918 0
M  V30 110 H 9.9475 -4.38275 -0.284937 0
M  V30 111 H 10.5535 -4.03296 1.35027 0
M  V30 112 N 8.8686 -0.792821 -1.36206 0
M  V30 113 C 9.7986 -0.207853 -2.32573 0
M  V30 114 C 10.7796 0.659055 -1.56813 0
M  V30 115 O 11.9646 0.592176 -1.84951 0
M  V30 116 C 9.0946 0.655449 -3.41059 0
M  V30 117 C 8.0486 -0.111842 -4.27854 0
M  V30 118 C 7.3746 0.872274 -5.27537 0
M  V30 119 C 8.6746 -1.30299 -5.05786 0
M  V30 120 H 10.3686 -1.01294 -2.81744 0
M  V30 121 H 7.9146 -0.48854 -1.3546 0
M  V30 122 H 9.8676 1.07464 -4.07467 0
M  V30 123 H 8.5916 1.49328 -2.90463 0
M  V30 124 H 7.2506 -0.512053 -3.63006 0
M  V30 125 H 6.8986 1.70523 -4.73214 0
M  V30 126 H 6.5986 0.363291 -5.86476 0
M  V30 127 H 8.1226 1.28996 -5.96818 0
M  V30 128 H 9.5366 -0.959379 -5.65216 0
M  V30 129 H 7.9336 -1.7455 -5.74154 0
M  V30 130 H 9.0036 -2.09663 -4.37229 0
M  V30 131 N 10.3467 1.47872 -0.545128 0
M  V30 132 C 11.2767 2.32661 0.197793 0
M  V30 133 C 12.2577 1.43041 0.920504 0
M  V30 134 O 13.4427 1.71912 0.90333 0
M  V30 135 C 10.5727 3.24569 1.23582 0
M  V30 136 C 9.5267 4.23333 0.630323 0
M  V30 137 C 8.8527 5.0448 1.77211 0
M  V30 138 C 10.1527 5.20704 -0.407974 0
M  V30 139 H 11.8467 2.95024 -0.510045 0
M  V30 140 H 9.3927 1.4187 -0.246731 0
M  V30 141 H 11.3457 3.8272 1.76362 0
M  V30 142 H 10.0697 2.60236 1.97344 0
M  V30 143 H 8.7287 3.6639 0.123922 0
M  V30 144 H 8.3767 4.36561 2.49847 0
M  V30 145 H 8.0767 5.71339 1.37281 0
M  V30 146 H 9.6007 5.65487 2.3034 0
M  V30 147 H 11.0147 5.7329 0.033305 0
M  V30 148 H 9.4117 5.95699 -0.725486 0
M  V30 149 H 10.4817 4.66917 -1.30828 0
M  V30 150 N 11.8248 0.280983 1.55075 0
M  V30 151 C 12.7878 -0.590896 2.21452 0
M  V30 152 C 13.7878 -1.07682 1.19421 0
M  V30 153 O 14.9778 -0.97605 1.44288 0
M  V30 154 C 12.1098 -1.81587 2.88511 0
M  V30 155 H 13.3028 -0.0112554 2.99898 0
M  V30 156 H 10.8558 0.0316438 1.56268 0
M  V30 157 H 11.5908 -2.43587 2.14093 0
M  V30 158 H 11.3758 -1.4753 3.63287 0
M  V30 159 H 12.8658 -2.43575 3.39206 0
M  V30 160 N 13.3029 -1.57598 0.00835791 0
M  V30 161 C 14.2359 -2.04409 -1.01451 0
M  V30 162 C 15.2139 -0.935609 -1.32985 0
M  V30 163 O 16.3979 -1.20437 -1.45007 0
M  V30 164 C 13.5249 -2.44872 -2.33999 0
M  V30 165 C 12.5709 -3.66535 -2.18069 0
M  V30 166 S 13.4039 -5.14095 -1.4989 0
M  V30 167 C 14.5599 -5.57835 -2.8385 0
M  V30 168 H 14.7929 -2.90849 -0.615961 0
M  V30 169 H 12.3259 -1.53063 -0.202752 0
M  V30 170 H 14.2839 -2.68852 -3.10208 0
M  V30 171 H 12.9449 -1.58815 -2.70992 0
M  V30 172 H 12.1379 -3.92626 -3.16008 0
M  V30 173 H 11.7399 -3.426 -1.50004 0
M  V30 174 H 14.0319 -5.60806 -3.80136 0
M  V30 175 H 14.9749 -6.57667 -2.62449 0
M  V30 176 H 15.3829 -4.85421 -2.88144 0
M  V30 177 N 14.781 0.264519 -1.55364 0
M  V30 178 C 16.027 0.99646 -1.76631 0
M  V30 179 C 16.36 1.85632 -0.570478 0
M  V30 180 O 15.635 1.89647 0.43175 0
M  V30 181 C 15.918 1.87187 -3.07625 0
M  V30 182 C 15.771 1.04138 -4.37579 0
M  V30 183 C 17.09 2.85749 -3.34717 0
M  V30 184 H 14.209 0.360841 -0.642622 0
M  V30 185 H 16.851 0.268218 -1.88097 0
M  V30 186 H 15.001 2.49279 -2.9798 0
M  V30 187 H 16.673 0.440517 -4.59192 0
M  V30 188 H 14.916 0.345115 -4.32425 0
M  V30 189 H 15.587 1.68729 -5.2558 0
M  V30 190 H 18.063 2.33793 -3.4421 0
M  V30 191 H 16.939 3.44136 -4.27623 0
M  V30 192 H 17.2 3.61311 -2.54768 0
M  V30 193 N 16.2591 1.48442 0.529413 0
M  V30 194 C 17.1891 1.65902 1.64313 0
M  V30 195 C 18.1701 0.507897 1.6234 0
M  V30 196 O 19.3551 0.740503 1.79528 0
M  V30 197 C 16.4851 1.69911 3.02898 0
M  V30 198 C 15.4391 2.8453 3.19729 0
M  V30 199 C 14.7651 2.73629 4.59381 0
M  V30 200 C 16.0651 4.25821 3.02447 0
M  V30 201 H 17.7591 2.5914 1.49955 0
M  V30 202 H 15.3051 1.24709 0.719982 0
M  V30 203 H 17.2581 1.80715 3.80684 0
M  V30 204 H 15.9821 0.732524 3.18279 0
M  V30 205 H 14.6411 2.73283 2.44361 0
M  V30 206 H 14.2891 1.74938 4.71599 0
M  V30 207 H 13.9891 3.50541 4.71588 0
M  V30 208 H 15.5131 2.86401 5.39265 0
M  V30 209 H 16.9271 4.37898 3.70024 0
M  V30 210 H 15.3241 5.03735 3.26146 0
M  V30 211 H 16.3941 4.42244 1.98867 0
M  V30 212 N 17.7372 -0.778329 1.37039 0
M  V30 213 C 18.9622 -1.57248 1.35233 0
M  V30 214 C 19.3872 -1.87999 -0.0615568 0
M  V30 215 O 18.7452 -1.48734 -1.03672 0
M  V30 216 C 18.7932 -2.86353 2.19167 0
M  V30 217 O 17.8972 -3.80442 1.59178 0
M  V30 218 H 17.2382 -0.476569 0.462362 0
M  V30 219 H 19.7682 -0.963853 1.80474 0
M  V30 220 H 19.7782 -3.35519 2.32145 0
M  V30 221 H 18.4532 -2.63299 3.21942 0
M  V30 222 H 17.0302 -3.39067 1.55203 0
M  V30 223 N 19.2153 -1.21501 -1.00376 0
M  V30 224 C 20.1783 -0.976927 -2.07337 0
M  V30 225 C 21.1783 0.0525322 -1.60714 0
M  V30 226 O 22.3683 -0.184869 -1.73216 0
M  V30 227 C 19.5003 -0.473423 -3.37597 0
M  V30 228 H 20.6933 -1.92587 -2.29892 0
M  V30 229 H 18.2463 -1.03217 -1.17371 0
M  V30 230 H 18.9813 0.480379 -3.20722 0
M  V30 231 H 18.7663 -1.216 -3.72768 0
M  V30 232 H 20.2563 -0.32675 -4.1632 0
M  V30 233 N 20.6934 1.19889 -1.02296 0
M  V30 234 C 21.9214 1.9339 -0.735399 0
M  V30 235 C 22.3364 1.75148 0.704887 0
M  V30 236 O 21.6934 1.06954 1.47875 0
M  V30 237 C 21.7444 3.45313 -1.06962 0
M  V30 238 O 21.4654 3.62964 -2.45334 0
M  V30 239 C 22.9664 4.35948 -0.804021 0
M  V30 240 H 20.1864 0.61448 -0.269546 0
M  V30 241 H 22.7304 1.522 -1.36585 0
M  V30 242 H 20.8854 3.84359 -0.484455 0
M  V30 243 H 21.2994 4.56886 -2.57595 0
M  V30 244 H 22.7734 5.41174 -1.0879 0
M  V30 245 H 23.2504 4.3842 0.261691 0
M  V30 246 H 23.8564 4.02574 -1.37164 0
M  V30 247 N 22.1715 0.800033 1.35784 0
M  V30 248 C 23.4185 0.377342 1.98953 0
M  V30 249 C 23.7465 -1.05378 1.6348 0
M  V30 250 O 23.0015 -1.74459 0.886707 0
M  V30 251 C 23.3005 0.500276 3.53881 0
M  V30 252 C 22.9665 1.89375 4.09204 0
M  V30 253 C 21.6285 2.27499 4.24025 0
M  V30 254 C 23.9805 2.8057 4.39238 0
M  V30 255 C 21.3085 3.562 4.66195 0
M  V30 256 C 23.6605 4.0871 4.82844 0
M  V30 257 C 22.3245 4.46843 4.95871 0
M  V30 258 H 21.5945 0.138079 0.728021 0
M  V30 259 H 24.2415 1.01955 1.62103 0
M  V30 260 H 22.5465 -0.225405 3.91151 0
M  V30 261 H 24.2435 0.154097 4.00704 0
M  V30 262 H 20.8335 1.58753 3.98115 0
M  V30 263 H 25.0175 2.52367 4.27346 0
M  V30 264 H 20.2735 3.85602 4.74469 0
M  V30 265 H 24.4475 4.79481 5.05046 0
M  V30 266 H 22.0745 5.46623 5.28306 0
M  V30 267 N 23.6496 -1.47581 0.552962 0
M  V30 268 C 24.8896 -2.04379 0.0296245 0
M  V30 269 C 25.2536 -1.4185 -1.29393 0
M  V30 270 O 26.4546 -1.89669 -1.90471 0
M  V30 271 C 24.7256 -3.57339 -0.0661371 0
M  V30 272 S 26.2846 -4.35511 -0.536213 0
M  V30 273 H 23.1026 -0.710625 0.0230991 0
M  V30 274 H 25.7046 -1.81005 0.738734 0
M  V30 275 H 24.4086 -4.00374 0.901596 0
M  V30 276 H 23.9396 -3.85202 -0.798931 0
M  V30 277 H 25.9546 -4.6253 -1.79668 0
M  V30 278 N 25.1277 -0.289203 -1.54924 0
M  V30 279 C 26.0597 0.625583 -2.20497 0
M  V30 280 C 27.0727 1.10667 -1.19402 0
M  V30 281 O 28.2617 1.02615 -1.46056 0
M  V30 282 C 25.3617 1.86702 -2.82835 0
M  V30 283 C 24.5347 1.5304 -4.09753 0
M  V30 284 C 23.5937 2.62576 -4.56005 0
M  V30 285 O 22.6197 2.28167 -5.21468 0
M  V30 286 N 23.8217 3.92901 -4.27328 0
M  V30 287 H 26.5867 0.0642801 -2.99631 0
M  V30 288 H 24.1477 -0.110896 -1.6152 0
M  V30 289 H 26.1397 2.59304 -3.10715 0
M  V30 290 H 24.7097 2.33702 -2.07611 0
M  V30 291 H 23.9297 0.637564 -3.8901 0
M  V30 292 H 25.2177 1.28072 -4.92418 0
M  V30 293 H 24.6157 4.23671 -3.74859 0
M  V30 294 H 23.1727 4.61837 -4.59946 0
M  V30 295 N 26.6058 1.57591 -0.0167156 0
M  V30 296 C 27.5688 2.08393 0.954204 0
M  V30 297 C 28.5688 0.996531 1.26198 0
M  V30 298 O 29.7588 1.25858 1.20438 0
M  V30 299 C 26.8908 2.5394 2.27436 0
M  V30 300 H 28.0838 2.95455 0.514451 0
M  V30 301 H 25.6368 1.54582 0.231089 0
M  V30 302 H 26.3718 1.70171 2.76066 0
M  V30 303 H 26.1568 3.33371 2.06412 0
M  V30 304 H 27.6468 2.93512 2.97053 0
M  V30 305 N 28.0839 -0.256276 1.55502 0
M  V30 306 C 29.3139 -1.00196 1.80677 0
M  V30 307 C 29.7219 -1.79805 0.588797 0
M  V30 308 O 29.0649 -1.78055 -0.451883 0
M  V30 309 C 29.1269 -1.99515 2.99055 0
M  V30 310 C 28.7909 -1.38688 4.35448 0
M  V30 311 C 29.7879 -0.794079 5.138 0
M  V30 312 C 27.4729 -1.40906 4.82132 0
M  V30 313 C 29.4669 -0.231562 6.36979 0
M  V30 314 C 27.1539 -0.842684 6.05262 0
M  V30 315 C 28.1519 -0.254953 6.82524 0
M  V30 316 O 27.8399 0.3027 8.0333 0
M  V30 317 H 27.5719 -0.300919 0.60533 0
M  V30 318 H 30.1259 -0.287307 2.03381 0
M  V30 319 H 28.3559 -2.74785 2.72084 0
M  V30 320 H 30.0449 -2.60349 3.11405 0
M  V30 321 H 30.8109 -0.769519 4.78856 0
M  V30 322 H 26.6899 -1.85591 4.21992 0
M  V30 323 H 30.2339 0.227816 6.97228 0
M  V30 324 H 26.1309 -0.86454 6.39684 0
M  V30 325 H 26.8989 0.193662 8.18271 0
M  V30 326 N 29.562 -1.4872 -0.521534 0
M  V30 327 C 30.525 -1.63379 -1.60748 0
M  V30 328 C 31.525 -0.50661 -1.52611 0
M  V30 329 O 32.715 -0.772601 -1.5613 0
M  V30 330 C 29.847 -1.61192 -3.00383 0
M  V30 331 H 31.04 -2.60217 -1.49087 0
M  V30 332 H 28.593 -1.37444 -0.744235 0
M  V30 333 H 29.328 -0.65863 -3.17541 0
M  V30 334 H 29.113 -2.43032 -3.07698 0
M  V30 335 H 30.603 -1.7466 -3.7932 0
M  V30 336 N 31.0401 0.771051 -1.3745 0
M  V30 337 C 31.9501 1.91538 -1.35464 0
M  V30 338 C 32.9661 1.72134 -0.254123 0
M  V30 339 O 34.1421 1.95358 -0.489626 0
M  V30 340 C 31.2071 3.26671 -1.16134 0
M  V30 341 C 30.2681 3.58723 -2.35831 0
M  V30 342 C 29.5011 4.87409 -2.17413 0
M  V30 343 O 29.7241 5.58506 -1.15876 0
M  V30 344 O 28.6581 5.18539 -3.05615 0
M  V30 345 H 32.4841 1.96165 -2.31847 0
M  V30 346 H 30.0691 0.9139 -1.18187 0
M  V30 347 H 31.9511 4.07499 -1.07345 0
M  V30 348 H 30.6261 3.22894 -0.228251 0
M  V30 349 H 29.5331 2.78127 -2.50192 0
M  V30 350 H 30.8661 3.67243 -3.27709 0
M  V30 351 N 32.5182 1.22032 0.997298 0
M  V30 352 C 33.7952 0.950823 1.70935 0
M  V30 353 C 34.1752 -0.535292 2.042 0
M  V30 354 O 33.5232 -1.50217 1.72183 0
M  V30 355 C 33.7332 1.84386 2.96315 0
M  V30 356 C 35.0812 2.09732 3.69185 0
M  V30 357 O 36.1052 1.81798 3.06314 0
M  V30 358 O 34.9642 2.57018 4.82291 0
M  V30 359 H 32.0582 0.357204 0.745878 0
M  V30 360 H 34.6042 1.32997 1.05404 0
M  V30 361 H 33.3762 2.84928 2.68201 0
M  V30 362 H 32.9992 1.46602 3.69586 0
M  V30 363 N 33.9963 -1.19345 1.0293 0
M  V30 364 C 34.9433 -2.2258 0.610464 0
M  V30 365 C 35.9133 -1.6179 -0.375946 0
M  V30 366 O 37.0983 -1.88844 -0.272511 0
M  V30 367 C 34.2383 -3.45085 -0.0321473 0
M  V30 368 C 33.3513 -4.20258 1.00035 0
M  V30 369 C 32.4863 -5.3019 0.32746 0
M  V30 370 C 31.5253 -5.97121 1.34584 0
M  V30 371 N 30.6623 -6.98615 0.698726 0
M  V30 372 H 35.5023 -2.57764 1.49538 0
M  V30 373 H 33.0393 -1.26644 0.748311 0
M  V30 374 H 34.9973 -4.15061 -0.421966 0
M  V30 375 H 33.6273 -3.10555 -0.88064 0
M  V30 376 H 32.6793 -3.49223 1.50823 0
M  V30 377 H 33.9913 -4.66175 1.77433 0
M  V30 378 H 33.1453 -6.06587 -0.11718 0
M  V30 379 H 31.8843 -4.85345 -0.478713 0
M  V30 380 H 30.8893 -5.19474 1.80074 0
M  V30 381 H 32.1143 -6.4405 2.15352 0
M  V30 382 H 30.0603 -6.55942 -0.0873471 0
M  V30 383 H 29.9773 -7.42724 1.41058 0
M  V30 384 H 31.2453 -7.79004 0.278102 0
M  V30 385 N 35.4744 -0.807222 -1.35358 0
M  V30 386 C 36.7204 -0.388463 -1.99045 0
M  V30 387 C 37.0534 1.04184 -1.63888 0
M  V30 388 O 36.3284 1.72292 -0.902535 0
M  V30 389 C 36.6114 -0.572783 -3.55515 0
M  V30 390 C 36.4644 -2.04807 -4.00468 0
M  V30 391 C 37.7834 0.00114064 -4.401 0
M  V30 392 H 34.9024 -0.142619 -0.723069 0
M  V30 393 H 37.5444 -1.01687 -1.60498 0
M  V30 394 H 35.6944 -0.0378425 -3.88482 0
M  V30 395 H 37.3664 -2.64544 -3.77908 0
M  V30 396 H 35.6094 -2.54427 -3.51353 0
M  V30 397 H 36.2804 -2.12792 -5.09337 0
M  V30 398 H 38.7564 -0.455716 -4.13597 0
M  V30 399 H 37.6324 -0.157737 -5.48673 0
M  V30 400 H 37.8934 1.09488 -4.28328 0
M  V30 401 N 36.9525 1.47285 -0.560781 0
M  V30 402 C 38.1985 2.03347 -0.0463654 0
M  V30 403 C 38.5535 1.42702 1.2905 0
M  V30 404 O 37.8465 0.574619 1.8278 0
M  V30 405 C 38.0405 3.57258 0.100784 0
M  V30 406 C 37.8695 4.32827 -1.22027 0
M  V30 407 C 36.6395 4.72588 -1.78854 0
M  V30 408 C 38.8375 4.67739 -2.13834 0
M  V30 409 N 36.8195 5.32816 -3.04927 0
M  V30 410 C 38.1905 5.28307 -3.24487 0
M  V30 411 C 40.2455 4.49667 -2.13784 0
M  V30 412 C 38.9485 5.72711 -4.35194 0
M  V30 413 C 40.9745 4.95073 -3.23506 0
M  V30 414 C 40.3365 5.55693 -4.32879 0
M  V30 415 H 36.4355 0.779755 -0.0592166 0
M  V30 416 H 39.0195 1.79723 -0.748857 0
M  V30 417 H 37.1905 3.80642 0.772404 0
M  V30 418 H 38.9225 3.9996 0.617589 0
M  V30 419 H 35.6775 4.54656 -1.32609 0
M  V30 420 H 36.1015 5.67471 -3.69197 0
M  V30 421 H 40.7435 4.02154 -1.30507 0
M  V30 422 H 38.4615 6.19214 -5.1923 0
M  V30 423 H 42.0475 4.82859 -3.24559 0
M  V30 424 H 40.9275 5.90188 -5.1638 0
M  V30 425 N 38.4306 0.297415 1.54768 0
M  V30 426 C 39.6796 -0.313669 1.99246 0
M  V30 427 C 39.9926 -1.55281 1.18942 0
M  V30 428 O 41.1986 -2.23825 1.5367 0
M  V30 429 C 39.6546 -0.609407 3.54703 0
M  V30 430 C 39.2626 0.611192 4.43811 0
M  V30 431 C 41.0066 -1.18188 4.07715 0
M  V30 432 C 38.9136 0.288805 5.90694 0
M  V30 433 H 37.8436 -0.120979 0.744231 0
M  V30 434 H 40.4946 0.40556 1.78962 0
M  V30 435 H 38.8766 -1.38813 3.70873 0
M  V30 436 H 40.0506 1.3875 4.39414 0
M  V30 437 H 38.3656 1.10205 4.01552 0
M  V30 438 H 40.9626 -1.43727 5.15021 0
M  V30 439 H 41.3056 -2.12299 3.58099 0
M  V30 440 H 41.8386 -0.464944 3.95074 0
M  V30 441 H 38.5776 1.19838 6.44453 0
M  V30 442 H 38.0976 -0.450305 5.98107 0
M  V30 443 H 39.7766 -0.110933 6.46905 0
M  V30 444 N 39.9087 -1.5758 0.0250728 0
M  V30 445 C 41.1337 -1.96337 -0.668317 0
M  V30 446 C 41.5587 -0.901314 -1.651 0
M  V30 447 O 40.9167 0.138187 -1.80773 0
M  V30 448 C 40.9647 -3.34191 -1.35457 0
M  V30 449 O 40.0687 -3.30269 -2.46974 0
M  V30 450 H 39.4097 -0.640281 -0.175887 0
M  V30 451 H 41.9397 -2.0442 0.0857224 0
M  V30 452 H 41.9497 -3.70331 -1.71228 0
M  V30 453 H 40.6247 -4.11036 -0.634218 0
M  V30 454 H 39.2017 -3.05841 -2.13344 0
M  V30 455 N 41.3868 0.248026 -1.55636 0
M  V30 456 C 42.6358 0.974134 -1.76617 0
M  V30 457 C 42.9488 1.86528 -0.588796 0
M  V30 458 O 44.1548 2.62805 -0.681594 0
M  V30 459 C 42.6108 1.78213 -3.12679 0
M  V30 460 C 42.2188 0.93843 -4.38061 0
M  V30 461 C 43.9628 2.50104 -3.42999 0
M  V30 462 C 41.8698 1.74225 -5.65155 0
M  V30 463 H 40.7998 0.36745 -0.658405 0
M  V30 464 H 43.4508 0.22884 -1.82067 0
M  V30 465 H 41.8328 2.56933 -3.01333 0
M  V30 466 H 43.0068 0.193635 -4.60393 0
M  V30 467 H 41.3218 0.332905 -4.15067 0
M  V30 468 H 43.9188 3.10694 -4.3517 0
M  V30 469 H 44.2618 3.21662 -2.64271 0
M  V30 470 H 44.7948 1.78395 -3.55556 0
M  V30 471 H 41.5338 1.07043 -6.46701 0
M  V30 472 H 41.0538 2.46235 -5.46926 0
M  V30 473 H 42.7328 2.30967 -6.0437 0
M  V30 474 N 42.8649 1.48995 0.513639 0
M  V30 475 C 44.1129 1.57531 1.26604 0
M  V30 476 C 44.4339 0.258236 1.93283 0
M  V30 477 O 43.7039 -0.721502 1.8213 0
M  V30 478 H 42.2839 0.580387 0.470276 0
M  V30 479 H 44.9459 1.85552 0.596373 0
M  V30 480 H 44.0419 2.36486 2.03669 0
M  V30 481 N 44.343 -0.763751 1.37857 0
M  V30 482 C 45.306 -1.85889 1.34081 0
M  V30 483 C 46.306 -1.58949 0.243277 0
M  V30 484 O 47.496 -1.66882 0.499589 0
M  V30 485 C 44.628 -3.23176 1.08489 0
M  V30 486 H 45.821 -1.90648 2.31502 0
M  V30 487 H 43.374 -0.964367 1.23003 0
M  V30 488 H 44.109 -3.24091 0.116318 0
M  V30 489 H 43.894 -3.44124 1.8794 0
M  V30 490 H 45.384 -4.03254 1.08517 0
M  V30 491 N 45.8211 -1.22559 -0.990812 0
M  V30 492 C 47.0981 -0.959875 -1.70428 0
M  V30 493 C 47.4781 0.524455 -2.04481 0
M  V30 494 O 46.8261 1.49302 -1.72977 0
M  V30 495 C 47.0361 -1.85955 -2.95333 0
M  V30 496 C 48.3841 -2.11687 -3.68068 0
M  V30 497 O 49.4081 -1.8342 -3.05345 0
M  V30 498 O 48.2671 -2.59572 -4.80921 0
M  V30 499 H 45.3611 -0.361154 -0.743974 0
M  V30 500 H 47.9071 -1.33554 -1.04697 0
M  V30 501 H 46.6791 -2.86346 -2.66687 0
M  V30 502 H 46.3021 -1.4856 -3.68803 0
M  V30 503 N 47.2992 1.18797 -1.03562 0
M  V30 504 C 48.2622 2.20464 -0.626769 0
M  V30 505 C 49.2622 1.57721 0.313173 0
M  V30 506 O 50.4522 1.73917 0.0992615 0
M  V30 507 C 47.5842 3.40802 0.0818498 0
M  V30 508 H 48.7772 2.58149 -1.5264 0
M  V30 509 H 46.3302 1.32593 -0.827578 0
M  V30 510 H 47.0652 3.08642 0.995518 0
M  V30 511 H 46.8502 3.8758 -0.593652 0
M  V30 512 H 48.3402 4.16092 0.354584 0
M  V30 513 N 48.7773 0.814389 1.34928 0
M  V30 514 C 49.7253 0.218424 2.31572 0
M  V30 515 C 50.7193 -0.636128 1.57002 0
M  V30 516 O 51.9253 -0.52842 1.72069 0
M  V30 517 H 48.3003 0.0518799 0.750208 0
M  V30 518 H 50.2713 1.04852 2.79372 0
M  V30 519 C 49.0203 -0.61207 3.4227 0
M  V30 520 H 48.3433 0.0361578 3.99784 0
M  V30 521 H 49.7833 -0.995317 4.12152 0
M  V30 522 C 48.2423 -1.78087 2.85984 0
M  V30 523 O 48.7723 -2.8787 2.80168 0
M  V30 524 N 46.9783 -1.59488 2.42924 0
M  V30 525 H 46.5253 -0.701874 2.47854 0
M  V30 526 H 46.4833 -2.37846 2.05613 0
M  V30 527 N 50.2554 -1.46986 0.568584 0
M  V30 528 C 51.1874 -2.28233 -0.210337 0
M  V30 529 C 52.2004 -1.37682 -0.868767 0
M  V30 530 O 53.3894 -1.62406 -0.740705 0
M  V30 531 C 50.4894 -3.12293 -1.3163 0
M  V30 532 C 49.6624 -4.30878 -0.7525 0
M  V30 533 C 48.7214 -4.96445 -1.74439 0
M  V30 534 O 47.7474 -5.54482 -1.286 0
M  V30 535 N 48.9494 -4.92171 -3.07812 0
M  V30 536 H 51.7144 -2.95723 0.486648 0
M  V30 537 H 49.2754 -1.56742 0.405409 0
M  V30 538 H 51.2674 -3.53022 -1.97883 0
M  V30 539 H 49.8374 -2.46971 -1.91636 0
M  V30 540 H 49.0574 -3.94104 0.0871128 0
M  V30 541 H 50.3454 -5.07558 -0.35536 0
M  V30 542 H 49.7434 -4.46239 -3.47688 0
M  V30 543 H 48.3004 -5.36884 -3.69592 0
M  V30 544 N 51.7335 -0.305618 -1.54608 0
M  V30 545 C 52.9615 0.304775 -2.04643 0
M  V30 546 C 53.3765 1.47167 -1.18268 0
M  V30 547 O 52.7335 1.81296 -0.209328 0
M  V30 548 C 52.7845 0.756564 -3.53495 0
M  V30 549 O 52.5055 -0.36389 -4.36586 0
M  V30 550 C 54.0065 1.43163 -4.19546 0
M  V30 551 H 51.2265 0.0655481 -0.667791 0
M  V30 552 H 53.7705 -0.446592 -1.99564 0
M  V30 553 H 51.9255 1.45794 -3.58919 0
M  V30 554 H 52.3395 -0.0113121 -5.24499 0
M  V30 555 H 53.8135 1.69886 -5.25207 0
M  V30 556 H 54.2905 2.37318 -3.69563 0
M  V30 557 H 54.8965 0.773307 -4.18211 0
M  V30 558 N 53.2116 1.57565 -0.0334293 0
M  V30 559 C 54.4576 1.92262 0.645226 0
M  V30 560 C 54.7906 0.910543 1.71531 0
M  V30 561 O 54.0656 -0.066099 1.94388 0
M  V30 562 C 54.3486 3.37422 1.2577 0
M  V30 563 C 54.2016 4.49369 0.196891 0
M  V30 564 C 55.5206 3.82628 2.17449 0
M  V30 565 H 52.6396 0.699171 0.233085 0
M  V30 566 H 55.2816 1.89779 -0.0915694 0
M  V30 567 H 53.4316 3.39669 1.88566 0
M  V30 568 H 55.1036 4.59254 -0.433962 0
M  V30 569 H 53.3466 4.31168 -0.477137 0
M  V30 570 H 54.0176 5.47978 0.665124 0
M  V30 571 H 56.4936 3.82145 1.64634 0
M  V30 572 H 55.3696 4.84883 2.57254 0
M  V30 573 H 55.6306 3.18376 3.0674 0
M  V30 574 N 54.6897 -0.239769 1.55765 0
M  V30 575 C 55.6227 -1.32356 1.85895 0
M  V30 576 C 56.6007 -1.46053 0.714662 0
M  V30 577 O 57.7847 -1.62154 0.961157 0
M  V30 578 C 54.9117 -2.6962 2.04994 0
M  V30 579 C 53.9577 -2.73036 3.27648 0
M  V30 580 S 54.7907 -2.28929 4.84099 0
M  V30 581 C 55.9467 -3.68103 5.06212 0
M  V30 582 H 56.1797 -1.06601 2.77531 0
M  V30 583 H 53.7127 -0.441112 1.47965 0
M  V30 584 H 55.6707 -3.48653 2.16682 0
M  V30 585 H 54.3317 -2.92609 1.14188 0
M  V30 586 H 53.5247 -3.7386 3.38 0
M  V30 587 H 53.1267 -2.02052 3.14723 0
M  V30 588 H 55.4187 -4.63656 4.93993 0
M  V30 589 H 56.3617 -3.6268 6.08168 0
M  V30 590 H 56.7697 -3.60947 4.34025 0
M  V30 591 N 56.1678 -1.49265 -0.50573 0
M  V30 592 C 57.1148 -1.65585 -1.6078 0
M  V30 593 C 58.0848 -0.497396 -1.58478 0
M  V30 594 O 59.2698 -0.72385 -1.76536 0
M  V30 595 C 56.4098 -1.72408 -2.98948 0
M  V30 596 C 55.5228 -2.99525 -3.11301 0
M  V30 597 C 54.6578 -2.97356 -4.40174 0
M  V30 598 C 53.6968 -4.19074 -4.46143 0
M  V30 599 N 52.8338 -4.14841 -5.66437 0
M  V30 600 H 57.6738 -2.59688 -1.46172 0
M  V30 601 H 55.2108 -1.28761 -0.711261 0
M  V30 602 H 57.1688 -1.74344 -3.79025 0
M  V30 603 H 55.7988 -0.817753 -3.1227 0
M  V30 604 H 54.8508 -3.07222 -2.24318 0
M  V30 605 H 56.1628 -3.89518 -3.11572 0
M  V30 606 H 55.3168 -2.97829 -5.28567 0
M  V30 607 H 54.0558 -2.05133 -4.42461 0
M  V30 608 H 53.0608 -4.1885 -3.56153 0
M  V30 609 H 54.2858 -5.12483 -4.45575 0
M  V30 610 H 52.2318 -3.25453 -5.69575 0
M  V30 611 H 52.1488 -4.98564 -5.68304 0
M  V30 612 H 53.4168 -4.1941 -6.57051 0
M  V30 613 N 57.6459 0.756429 -1.3826 0
M  V30 614 C 58.8709 1.55077 -1.37717 0
M  V30 615 C 59.2959 1.88073 0.03164 0
M  V30 616 O 58.6539 1.50364 1.01293 0
M  V30 617 C 58.7019 2.8283 -2.23695 0
M  V30 618 O 57.8059 3.77862 -1.6521 0
M  V30 619 H 57.1469 0.469152 -0.469885 0
M  V30 620 H 59.6769 0.935019 -1.81985 0
M  V30 621 H 59.6869 3.31783 -2.37453 0
M  V30 622 H 58.3619 2.58144 -3.2609 0
M  V30 623 H 56.9389 3.36555 -1.60578 0
M  V30 624 N 59.124 1.23083 0.984299 0
M  V30 625 C 60.372 1.05848 1.72165 0
M  V30 626 C 60.693 -0.406049 1.90726 0
M  V30 627 O 59.963 -1.29139 1.47309 0
M  V30 628 H 58.543 0.388685 0.637913 0
M  V30 629 H 61.205 1.54736 1.18503 0
M  V30 630 H 60.301 1.54327 2.71274 0
M  V30 631 N 60.6021 -1.18246 1.0419 0
M  V30 632 C 61.5651 -2.20128 0.638452 0
M  V30 633 C 62.5651 -1.57885 -0.304805 0
M  V30 634 O 63.7551 -1.73967 -0.0900369 0
M  V30 635 C 60.8871 -3.4084 -0.0637751 0
M  V30 636 H 62.0801 -2.57336 1.54007 0
M  V30 637 H 59.6331 -1.32152 0.834598 0
M  V30 638 H 60.3681 -3.09166 -0.979136 0
M  V30 639 H 60.1531 -3.8726 0.614198 0
M  V30 640 H 61.6431 -4.16274 -0.332512 0
M  V30 641 N 62.0802 -0.821533 -1.34494 0
M  V30 642 C 62.9902 -0.244355 -2.33324 0
M  V30 643 C 64.0062 0.620527 -1.62559 0
M  V30 644 O 65.1822 0.528754 -1.94335 0
M  V30 645 C 62.2472 0.585368 -3.41723 0
M  V30 646 C 61.3082 -0.301752 -4.28238 0
M  V30 647 C 60.5412 0.488466 -5.3146 0
M  V30 648 O 60.7642 1.72186 -5.4379 0
M  V30 649 O 59.6982 -0.12848 -6.01763 0
M  V30 650 H 63.5242 -1.06231 -2.84515 0
M  V30 651 H 61.1092 -0.583645 -1.37528 0
M  V30 652 H 62.9912 1.05747 -4.07916 0
M  V30 653 H 61.6662 1.38068 -2.92778 0
M  V30 654 H 60.5732 -0.821315 -3.64973 0
M  V30 655 H 61.9062 -1.06138 -4.8062 0
M  V30 656 N 63.5583 1.46682 -0.576371 0
M  V30 657 C 64.7833 2.07304 -0.0630475 0
M  V30 658 C 65.2083 1.42329 1.2298 0
M  V30 659 O 64.5663 0.504865 1.74129 0
M  V30 660 C 64.6143 3.60472 0.095895 0
M  V30 661 O 63.7183 3.95927 1.15394 0
M  V30 662 H 63.0593 0.661288 -0.0599463 0
M  V30 663 H 65.5893 1.88417 -0.797511 0
M  V30 664 H 65.5993 4.06865 0.304071 0
M  V30 665 H 64.2743 4.07157 -0.84828 0
M  V30 666 H 62.8513 3.61252 0.924724 0
M  V30 667 N 65.0364 0.313813 1.54444 0
M  V30 668 C 66.2854 -0.292519 1.99568 0
M  V30 669 C 66.5984 -1.54011 1.20582 0
M  V30 670 O 67.8044 -2.22183 1.56035 0
M  V30 671 C 66.2604 -0.571752 3.55329 0
M  V30 672 C 65.8684 0.658229 4.43138 0
M  V30 673 C 67.6124 -1.13857 4.08946 0
M  V30 674 C 65.5194 0.351439 5.90355 0
M  V30 675 H 64.4494 -0.113079 0.745472 0
M  V30 676 H 67.1004 0.424518 1.78522 0
M  V30 677 H 65.4824 -1.34872 3.72325 0
M  V30 678 H 66.6564 1.43403 4.37918 0
M  V30 679 H 64.9714 1.14458 4.0036 0
M  V30 680 H 67.5684 -1.38257 5.16516 0
M  V30 681 H 67.9114 -2.08489 3.6033 0
M  V30 682 H 68.4444 -0.423015 3.95544 0
M  V30 683 H 65.1834 1.26667 6.43145 0
M  V30 684 H 64.7034 -0.386842 5.98551 0
M  V30 685 H 66.3824 -0.0423134 6.46986 0
M  V30 686 N 66.5145 -1.57545 0.0417849 0
M  V30 687 C 67.4445 -2.14009 -0.933929 0
M  V30 688 C 68.4255 -1.05938 -1.33083 0
M  V30 689 O 69.6105 -1.33833 -1.40721 0
M  V30 690 C 66.7405 -2.67747 -2.21199 0
M  V30 691 C 65.6945 -3.80718 -1.95544 0
M  V30 692 C 65.0205 -4.20935 -3.29724 0
M  V30 693 C 66.3205 -5.06258 -1.28452 0
M  V30 694 H 68.0145 -2.95788 -0.463645 0
M  V30 695 H 65.5605 -1.42285 -0.221573 0
M  V30 696 H 67.5135 -3.05886 -2.89848 0
M  V30 697 H 66.2375 -1.83147 -2.70416 0
M  V30 698 H 64.8965 -3.43037 -1.2931 0
M  V30 699 H 64.5445 -3.33298 -3.76724 0
M  V30 700 H 64.2445 -4.9707 -3.13361 0
M  V30 701 H 65.7685 -4.61666 -3.9962 0
M  V30 702 H 67.1825 -5.41903 -1.8712 0
M  V30 703 H 65.5795 -5.87475 -1.22445 0
M  V30 704 H 66.6495 -4.84207 -0.259219 0
M  V30 705 N 67.9926 0.231505 -1.5589 0
M  V30 706 C 69.4036 0.799327 -1.68724 0
M  V30 707 C 69.7546 1.85398 -0.642022 0
M  V30 708 O 68.8796 2.1539 0.208784 0
M  V30 709 C 69.4746 1.45664 -3.05888 0
M  V30 710 C 68.0336 1.97197 -3.20609 0
M  V30 711 C 67.1806 0.828552 -2.64632 0
M  V30 712 H 70.1316 0.00702616 -1.58698 0
M  V30 713 H 70.1526 2.32517 -3.01191 0
M  V30 714 H 69.6646 0.688808 -3.81939 0
M  V30 715 H 67.7656 2.76813 -2.4941 0
M  V30 716 H 67.8786 2.15878 -4.27707 0
M  V30 717 H 66.2426 1.23321 -2.22854 0
M  V30 718 H 67.0256 0.0735544 -3.43221 0
M  V30 719 N 69.4707 1.49531 0.497807 0
M  V30 720 C 70.4187 1.66926 1.61983 0
M  V30 721 C 71.4127 0.535167 1.60724 0
M  V30 722 O 72.6187 0.714896 1.65195 0
M  V30 723 H 68.9937 0.526415 0.537021 0
M  V30 724 H 70.9647 2.61098 1.44465 0
M  V30 725 C 69.7137 1.75602 3.00099 0
M  V30 726 H 69.0367 2.62244 3.01775 0
M  V30 727 H 70.4767 1.91807 3.78135 0
M  V30 728 C 68.9357 0.501543 3.33146 0
M  V30 729 O 69.4657 -0.371342 3.9998 0
M  V30 730 N 67.6717 0.363531 2.88317 0
M  V30 731 H 67.2187 1.07485 2.34104 0
M  V30 732 H 67.1767 -0.474728 3.10795 0
M  V30 733 N 70.9488 -0.749086 1.3866 0
M  V30 734 C 72.1738 -1.54344 1.38538 0
M  V30 735 C 72.5988 -1.88088 -0.0216655 0
M  V30 736 O 71.9568 -1.50899 -1.00494 0
M  V30 737 C 72.0048 -2.8164 2.25192 0
M  V30 738 O 71.1088 -3.7698 1.67212 0
M  V30 739 H 70.4498 -0.466654 0.472367 0
M  V30 740 H 72.9798 -0.925355 1.82478 0
M  V30 741 H 72.9898 -3.30519 2.3921 0
M  V30 742 H 71.6648 -2.56411 3.27454 0
M  V30 743 H 70.2418 -3.35699 1.6236 0
M  V30 744 N 72.4269 -1.23603 -0.977757 0
M  V30 745 C 73.6729 -1.07129 -1.72195 0
M  V30 746 C 74.0059 0.390501 -1.90233 0
M  V30 747 O 73.2809 1.28902 -1.45653 0
M  V30 748 C 73.5639 -1.80031 -3.11867 0
M  V30 749 C 73.4169 -3.33899 -3.01383 0
M  V30 750 C 74.7359 -1.56492 -4.11337 0
M  V30 751 H 71.8549 -0.390571 -0.624999 0
M  V30 752 H 74.4969 -1.52142 -1.13811 0
M  V30 753 H 72.6469 -1.41768 -3.6171 0
M  V30 754 H 74.3189 -3.81699 -2.59043 0
M  V30 755 H 72.5619 -3.62796 -2.37827 0
M  V30 756 H 73.2329 -3.801 -4.00285 0
M  V30 757 H 75.7089 -1.89757 -3.70313 0
M  V30 758 H 74.5849 -2.09973 -5.07151 0
M  V30 759 H 74.8459 -0.500874 -4.39254 0
M  V30 760 N 73.905 1.17692 -1.04816 0
M  V30 761 C 74.868 2.19787 -0.650117 0
M  V30 762 C 75.868 1.58044 0.296427 0
M  V30 763 O 77.058 1.74012 0.0808097 0
M  V30 764 C 74.19 3.40869 0.0456987 0
M  V30 765 H 75.383 2.56516 -1.5537 0
M  V30 766 H 72.936 1.31708 -0.841594 0
M  V30 767 H 73.671 3.09681 0.962726 0
M  V30 768 H 73.456 3.86928 -0.634727 0
M  V30 769 H 74.946 4.16445 0.310432 0
M  V30 770 N 75.3831 0.828654 1.34056 0
M  V30 771 C 76.6081 0.431637 2.02859 0
M  V30 772 C 77.0331 -0.956339 1.61975 0
M  V30 773 O 76.3911 -1.62338 0.807228 0
M  V30 774 C 76.4391 0.548323 3.56407 0
M  V30 775 O 75.5431 -0.429556 4.10157 0
M  V30 776 H 74.8841 0.176886 0.640006 0
M  V30 777 H 77.4141 1.12066 1.71179 0
M  V30 778 H 77.4241 0.426196 4.05768 0
M  V30 779 H 76.0991 1.5606 3.8551 0
M  V30 780 H 74.6761 -0.265836 3.71951 0
M  V30 781 N 76.8612 -1.46375 0.584142 0
M  V30 782 C 78.0862 -2.07268 0.0740405 0
M  V30 783 C 78.5112 -1.42979 -1.22223 0
M  V30 784 O 77.8692 -0.514092 -1.73859 0
M  V30 785 C 77.9172 -3.60518 -0.0767769 0
M  V30 786 O 77.0212 -3.96533 -1.13292 0
M  V30 787 H 76.3622 -0.660961 0.0634524 0
M  V30 788 H 78.8922 -1.87991 0.807492 0
M  V30 789 H 78.9022 -4.07021 -0.282489 0
M  V30 790 H 77.5772 -4.06702 0.86986 0
M  V30 791 H 76.1542 -3.61738 -0.905553 0
M  V30 792 N 78.3393 -0.321999 -1.54275 0
M  V30 793 C 79.5873 0.280489 -2.00144 0
M  V30 794 C 79.9083 1.52777 -1.21178 0
M  V30 795 O 79.1783 1.9338 -0.313187 0
M  V30 796 H 77.7583 0.106632 -0.73935 0
M  V30 797 H 80.4203 -0.438184 -1.8991 0
M  V30 798 H 79.5163 0.537972 -3.07428 0
M  V30 799 N 79.8174 1.5752 -0.0501392 0
M  V30 800 C 80.7494 2.08413 0.95376 0
M  V30 801 C 81.7624 1.01175 1.27544 0
M  V30 802 O 82.9514 1.28744 1.23641 0
M  V30 803 C 80.0514 2.51138 2.27559 0
M  V30 804 C 79.2244 3.817 2.13598 0
M  V30 805 C 78.2834 4.10749 3.28895 0
M  V30 806 O 77.3094 4.80685 3.04845 0
M  V30 807 N 78.5114 3.62579 4.5334 0
M  V30 808 H 81.2764 2.95165 0.519383 0
M  V30 809 H 78.8374 1.61327 0.136127 0
M  V30 810 H 80.8294 2.67648 3.03557 0
M  V30 811 H 79.3994 1.6964 2.62567 0
M  V30 812 H 78.6194 3.74782 1.22197 0
M  V30 813 H 79.9074 4.67201 2.01496 0
M  V30 814 H 79.3054 3.06039 4.75769 0
M  V30 815 H 77.8624 3.84329 5.26436 0
M  V30 816 N 81.2955 -0.223234 1.56011 0
M  V30 817 C 82.5415 -0.949279 1.79211 0
M  V30 818 C 82.8745 -1.84054 0.619494 0
M  V30 819 O 82.1495 -1.90726 -0.381317 0
M  V30 820 C 82.4325 -1.78965 3.12479 0
M  V30 821 C 82.2855 -0.924997 4.40186 0
M  V30 822 C 83.6045 -2.76774 3.42175 0
M  V30 823 H 80.7235 -0.343676 0.651963 0
M  V30 824 H 83.3655 -0.218253 1.88742 0
M  V30 825 H 81.5155 -2.41291 3.04485 0
M  V30 826 H 83.1875 -0.318615 4.60198 0
M  V30 827 H 81.4305 -0.230344 4.33188 0
M  V30 828 H 82.1015 -1.54735 5.29869 0
M  V30 829 H 84.5775 -2.24584 3.50287 0
M  V30 830 H 83.4535 -3.32678 4.36597 0
M  V30 831 H 83.7145 -3.54429 2.64258 0
M  V30 832 N 82.7736 -1.49793 -0.48987 0
M  V30 833 C 84.0196 -1.61049 -1.24236 0
M  V30 834 C 84.3746 -0.298412 -1.90072 0
M  V30 835 O 83.6676 0.702262 -1.78266 0
M  V30 836 C 83.8616 -2.71488 -2.32441 0
M  V30 837 C 83.6906 -4.13308 -1.77218 0
M  V30 838 C 82.4606 -4.79955 -1.58023 0
M  V30 839 C 84.6586 -4.98176 -1.27772 0
M  V30 840 N 82.6406 -6.06052 -0.978465 0
M  V30 841 C 84.0116 -6.14843 -0.798 0
M  V30 842 C 86.0666 -4.84091 -1.16449 0
M  V30 843 C 84.7696 -7.18975 -0.216245 0
M  V30 844 C 86.7956 -5.88382 -0.596698 0
M  V30 845 C 86.1576 -7.04285 -0.127262 0
M  V30 846 H 82.2566 -0.643611 -0.444172 0
M  V30 847 H 84.8406 -1.86842 -0.54754 0
M  V30 848 H 83.0116 -2.47449 -2.99372 0
M  V30 849 H 84.7436 -2.72205 -2.99477 0
M  V30 850 H 81.4986 -4.36936 -1.82712 0
M  V30 851 H 81.9226 -6.73407 -0.696534 0
M  V30 852 H 86.5646 -3.94786 -1.5134 0
M  V30 853 H 84.2826 -8.0797 0.144903 0
M  V30 854 H 87.8686 -5.79545 -0.511716 0
M  V30 855 H 86.7486 -7.83606 0.30523 0
M  V30 856 N 84.2517 0.741722 -1.39055 0
M  V30 857 C 85.4977 1.50336 -1.36113 0
M  V30 858 C 85.8307 1.94148 0.0450796 0
M  V30 859 O 85.1057 1.66301 1.00868 0
M  V30 860 C 85.3887 2.74773 -2.32749 0
M  V30 861 C 85.2417 2.37023 -3.82283 0
M  V30 862 C 86.5607 3.76846 -2.27322 0
M  V30 863 H 83.6797 0.545351 -0.495743 0
M  V30 864 H 86.3217 0.848624 -1.69995 0
M  V30 865 H 84.4717 3.30639 -2.03986 0
M  V30 866 H 86.1437 1.8684 -4.21768 0
M  V30 867 H 84.3867 1.69334 -3.99385 0
M  V30 868 H 85.0577 3.26104 -4.45376 0
M  V30 869 H 87.5337 3.30548 -2.5274 0
M  V30 870 H 86.4097 4.6159 -2.97028 0
M  V30 871 H 86.6707 4.23286 -1.27599 0
M  V30 872 N 85.7298 1.2412 0.971189 0
M  V30 873 C 86.9778 1.07668 1.71032 0
M  V30 874 C 87.2988 -0.385797 1.91146 0
M  V30 875 O 86.5688 -1.27569 1.4867 0
M  V30 876 H 85.1488 0.395429 0.633755 0
M  V30 877 H 87.8108 1.55984 1.16855 0
M  V30 878 H 86.9068 1.57195 2.69622 0
M  V30 879 N 87.2079 -1.17134 1.05439 0
M  V30 880 C 88.1399 -2.2078 0.615539 0
M  V30 881 C 89.1529 -1.59584 -0.322001 0
M  V30 882 O 90.3419 -1.78133 -0.114344 0
M  V30 883 C 87.4419 -3.38691 -0.118938 0
M  V30 884 C 86.6149 -4.29454 0.829924 0
M  V30 885 C 85.6739 -5.26024 0.136258 0
M  V30 886 O 84.6999 -5.63952 0.77115 0
M  V30 887 N 85.9019 -5.69487 -1.1254 0
M  V30 888 H 88.6669 -2.59052 1.50705 0
M  V30 889 H 86.2279 -1.32058 0.936603 0
M  V30 890 H 88.2199 -4.00329 -0.593179 0
M  V30 891 H 86.7899 -2.98996 -0.91215 0
M  V30 892 H 86.0099 -3.65211 1.48373 0
M  V30 893 H 87.2979 -4.86984 1.47392 0
M  V30 894 H 86.6959 -5.4075 -1.6615 0
M  V30 895 H 85.2529 -6.33257 -1.54366 0
M  V30 896 N 88.686 -0.835752 -1.33615 0
M  V30 897 C 89.932 -0.430596 -1.98176 0
M  V30 898 C 90.265 1.00684 -1.66061 0
M  V30 899 O 89.54 1.70339 -0.938877 0
M  V30 900 C 89.823 -0.648065 -3.5422 0
M  V30 901 C 89.676 -2.13255 -3.96033 0
M  V30 902 C 90.995 -0.0922113 -4.40003 0
M  V30 903 H 88.114 -0.157924 -0.719881 0
M  V30 904 H 90.756 -1.05069 -1.58305 0
M  V30 905 H 88.906 -0.120237 -3.88314 0
M  V30 906 H 90.578 -2.725 -3.72211 0
M  V30 907 H 88.821 -2.61823 -3.45878 0
M  V30 908 H 89.492 -2.23547 -5.04708 0
M  V30 909 H 91.968 -0.543343 -4.12537 0
M  V30 910 H 90.844 -0.274083 -5.48215 0
M  V30 911 H 91.105 1.00378 -4.30554 0
M  V30 912 N 90.1641 1.46063 -0.591896 0
M  V30 913 C 91.4411 1.95595 -0.0137119 0
M  V30 914 C 91.8211 1.5345 1.4497 0
M  V30 915 O 91.1691 0.789543 2.14426 0
M  V30 916 C 91.3791 3.48453 -0.195373 0
M  V30 917 C 92.7271 4.24546 -0.0679765 0
M  V30 918 O 93.7511 3.55982 -0.124681 0
M  V30 919 O 92.6101 5.46467 0.0600579 0
M  V30 920 H 89.7041 0.825795 0.0446279 0
M  V30 921 H 92.2501 1.56303 -0.660859 0
M  V30 922 H 91.0221 3.72045 -1.21235 0
M  V30 923 H 90.6451 3.94597 0.487775 0
M  V30 924 N 91.6422 0.330177 1.54103 0
M  V30 925 C 92.8882 -0.270806 2.00984 0
M  V30 926 C 93.2212 -1.51265 1.21789 0
M  V30 927 O 92.4962 -1.92142 0.301927 0
M  V30 928 C 92.7792 -0.598339 3.55094 0
M  V30 929 C 92.6322 0.654674 4.4501 0
M  V30 930 C 93.9512 -1.41334 4.16789 0
M  V30 931 H 91.0702 -0.0969531 0.730595 0
M  V30 932 H 93.7122 0.448066 1.84641 0
M  V30 933 H 91.8622 -1.21078 3.69151 0
M  V30 934 H 93.5342 1.29285 4.42813 0
M  V30 935 H 91.7772 1.28224 4.14416 0
M  V30 936 H 92.4482 0.380944 5.50684 0
M  V30 937 H 94.9242 -0.895597 4.06347 0
M  V30 938 H 93.8002 -1.61127 5.24718 0
M  V30 939 H 94.0612 -2.41146 3.70541 0
M  V30 940 N 93.1203 -1.57491 0.0584922 0
M  V30 941 C 94.0833 -2.1085 -0.898617 0
M  V30 942 C 95.0833 -1.02964 -1.23511 0
M  V30 943 O 96.2733 -1.29007 -1.17059 0
M  V30 944 C 93.4053 -2.59881 -2.20623 0
M  V30 945 H 94.5983 -2.96715 -0.435936 0
M  V30 946 H 92.1513 -1.55141 -0.190023 0
M  V30 947 H 92.8863 -1.77431 -2.71457 0
M  V30 948 H 92.6713 -3.38727 -1.97501 0
M  V30 949 H 94.1613 -3.01285 -2.89166 0
M  V30 950 N 94.5984 0.214957 -1.56127 0
M  V30 951 C 95.5304 1.29004 -1.89448 0
M  V30 952 C 96.5434 1.42716 -0.783326 0
M  V30 953 O 97.7324 1.43496 -1.06166 0
M  V30 954 C 94.8324 2.66482 -2.09381 0
M  V30 955 C 94.0054 2.74633 -3.40434 0
M  V30 956 C 93.0644 3.9317 -3.49719 0
M  V30 957 O 92.0904 3.812 -4.227 0
M  V30 958 N 93.2924 5.07765 -2.81346 0
M  V30 959 H 96.0574 1.00743 -2.82261 0
M  V30 960 H 93.6184 0.40497 -1.56753 0
M  V30 961 H 95.6104 3.44173 -2.12901 0
M  V30 962 H 94.1804 2.87314 -1.23163 0
M  V30 963 H 93.4004 1.83368 -3.48955 0
M  V30 964 H 94.6884 2.77054 -4.26754 0
M  V30 965 H 94.0864 5.20386 -2.21843 0
M  V30 966 H 92.6434 5.83474 -2.90519 0
M  V30 967 N 96.0765 1.50051 0.48192 0
M  V30 968 C 97.0065 1.71046 1.58951 0
M  V30 969 C 97.9875 0.559288 1.60642 0
M  V30 970 O 99.1725 0.797243 1.77081 0
M  V30 971 C 96.3025 1.79462 2.97339 0
M  V30 972 C 95.2565 2.94558 3.10515 0
M  V30 973 C 94.5825 2.88105 4.50444 0
M  V30 974 C 95.8825 4.35227 2.88747 0
M  V30 975 H 97.5765 2.6378 1.41635 0
M  V30 976 H 95.1225 1.26936 0.679942 0
M  V30 977 H 97.0755 1.92734 3.74742 0
M  V30 978 H 95.7995 0.833412 3.15788 0
M  V30 979 H 94.4585 2.80918 2.35543 0
M  V30 980 H 94.1065 1.89853 4.65795 0
M  V30 981 H 93.8065 3.65366 4.60197 0
M  V30 982 H 95.3305 3.03412 5.29881 0
M  V30 983 H 96.7445 4.49449 3.55905 0
M  V30 984 H 95.1415 5.13856 3.09955 0
M  V30 985 H 96.2115 4.48347 1.84696 0
M  V30 986 N 97.5546 -0.734337 1.39446 0
M  V30 987 C 98.5176 -1.83004 1.37994 0
M  V30 988 C 99.5176 -1.58397 0.276938 0
M  V30 989 O 100.708 -1.65785 0.534875 0
M  V30 990 C 97.8396 -3.20802 1.1532 0
M  V30 991 H 99.0326 -1.85694 2.35494 0
M  V30 992 H 96.5856 -0.938059 1.25021 0
M  V30 993 H 97.3206 -3.23772 0.185036 0
M  V30 994 H 97.1056 -3.4006 1.95197 0
M  V30 995 H 98.5956 -4.00862 1.17046 0
M  V30 996 N 99.0327 -1.24633 -0.964593 0
M  V30 997 C 99.9427 -1.05859 -2.09359 0
M  V30 998 C 100.959 0.00148855 -1.74 0
M  V30 999 O 102.135 -0.197346 -2.00431 0
M  V30 1000 C 99.1997 -0.668879 -3.40187 0
M  V30 1001 C 98.2607 -1.80578 -3.89474 0
M  V30 1002 C 97.4937 -1.43457 -5.14058 0
M  V30 1003 O 97.7167 -0.325775 -5.69469 0
M  V30 1004 O 96.6507 -2.2613 -5.57807 0
M  V30 1005 H 100.477 -2.00516 -2.28094 0
M  V30 1006 H 98.0617 -1.03481 -1.0776 0
M  V30 1007 H 99.9437 -0.463211 -4.18846 0
M  V30 1008 H 98.6187 0.248536 -3.22744 0
M  V30 1009 H 97.5257 -2.06623 -3.11862 0
M  V30 1010 H 98.8587 -2.70208 -4.11398 0
M  V30 1011 N 100.511 1.16574 -1.06058 0
M  V30 1012 C 101.441 2.23057 -0.690488 0
M  V30 1013 C 102.422 1.67141 0.315901 0
M  V30 1014 O 103.607 1.93253 0.191556 0
M  V30 1015 C 100.737 3.47222 -0.073625 0
M  V30 1016 C 99.6908 4.16016 -1.00573 0
M  V30 1017 C 99.0168 5.34104 -0.252289 0
M  V30 1018 C 100.317 4.67264 -2.33371 0
M  V30 1019 H 102.011 2.54271 -1.58072 0
M  V30 1020 H 99.5568 1.22218 -0.76149 0
M  V30 1021 H 101.51 4.20939 0.19714 0
M  V30 1022 H 100.234 3.15302 0.85161 0
M  V30 1023 H 98.8928 3.44223 -1.2612 0
M  V30 1024 H 98.5408 4.98437 0.675988 0
M  V30 1025 H 98.2408 5.81072 -0.873455 0
M  V30 1026 H 99.7648 6.10599 0.0109857 0
M  V30 1027 H 101.179 5.32573 -2.12223 0
M  V30 1028 H 99.5758 5.24843 -2.90963 0
M  V30 1029 H 100.646 3.83602 -2.96611 0
M  V30 1030 N 101.989 0.842826 1.3317 0
M  V30 1031 C 103.214 0.453129 2.02389 0
M  V30 1032 C 103.639 -0.939105 1.6298 0
M  V30 1033 O 102.997 -1.61472 0.8244 0
M  V30 1034 C 103.045 0.586094 3.55805 0
M  V30 1035 O 102.149 -0.386029 4.10589 0
M  V30 1036 H 101.49 0.183664 0.638094 0
M  V30 1037 H 104.02 1.13875 1.69981 0
M  V30 1038 H 104.03 0.469209 4.05293 0
M  V30 1039 H 102.705 1.6014 3.83833 0
M  V30 1040 H 101.282 -0.226371 3.72212 0
M  V30 1041 N 103.467 -1.45747 0.599634 0
M  V30 1042 C 104.417 -2.27538 -0.145107 0
M  V30 1043 C 105.401 -1.3686 -0.846055 0
M  V30 1044 O 106.593 -1.6091 -0.737357 0
M  V30 1045 C 103.722 -3.23569 -1.14708 0
M  V30 1046 C 102.808 -4.21734 -0.447383 0
M  V30 1047 N 103.199 -5.03257 0.506535 0
M  V30 1048 C 101.497 -4.40536 -0.695966 0
M  V30 1049 C 102.198 -5.74426 0.917068 0
M  V30 1050 N 101.174 -5.42966 0.26253 0
M  V30 1051 H 104.976 -2.87965 0.587672 0
M  V30 1052 H 102.49 -1.56803 0.422697 0
M  V30 1053 H 104.487 -3.8089 -1.69495 0
M  V30 1054 H 103.147 -2.64702 -1.8805 0
M  V30 1055 H 104.158 -5.10319 0.882899 0
M  V30 1056 H 100.835 -3.92802 -1.41467 0
M  V30 1057 H 102.225 -6.4995 1.70338 0
M  V30 1058 N 104.945 -0.338344 -1.53925 0
M  V30 1059 C 105.893 0.536231 -2.26335 0
M  V30 1060 C 106.887 1.1063 -1.28286 0
M  V30 1061 O 108.093 1.05264 -1.46012 0
M  V30 1062 H 104.468 0.191602 -0.727181 0
M  V30 1063 H 106.439 -0.0965747 -2.98244 0
M  V30 1064 C 105.188 1.67803 -3.04528 0
M  V30 1065 H 104.511 1.24864 -3.79801 0
M  V30 1066 H 105.951 2.26526 -3.58416 0
M  V30 1067 C 104.41 2.60439 -2.13712 0
M  V30 1068 O 104.94 3.6255 -1.72975 0
M  V30 1069 N 103.146 2.29006 -1.78898 0
M  V30 1070 H 102.693 1.46011 -2.12223 0
M  V30 1071 H 102.651 2.91248 -1.18416 0
M  V30 1072 N 106.423 1.57458 -0.0668435 0
M  V30 1073 C 107.356 2.08033 0.93795 0
M  V30 1074 C 108.334 0.984321 1.29421 0
M  V30 1075 O 109.518 1.25736 1.40437 0
M  V30 1076 C 106.645 2.53388 2.24749 0
M  V30 1077 C 105.691 3.74376 2.04315 0
M  V30 1078 S 106.524 5.19303 1.30706 0
M  V30 1079 C 107.68 5.67986 2.62951 0
M  V30 1080 H 107.913 2.92935 0.50759 0
M  V30 1081 H 105.446 1.5371 0.145804 0
M  V30 1082 H 107.404 2.8018 3.00016 0
M  V30 1083 H 106.065 1.68763 2.64911 0
M  V30 1084 H 105.258 4.04083 3.01218 0
M  V30 1085 H 104.86 3.47931 1.37186 0
M  V30 1086 H 107.152 5.74528 3.5906 0
M  V30 1087 H 108.095 6.66955 2.3786 0
M  V30 1088 H 108.503 4.95781 2.69929 0
M  V30 1089 N 107.901 -0.206675 1.56239 0
M  V30 1090 C 108.851 -1.26 1.90021 0
M  V30 1091 C 109.835 -1.41566 0.764721 0
M  V30 1092 O 111.027 -1.44131 1.02739 0
M  V30 1093 C 108.156 -2.6073 2.23326 0
M  V30 1094 C 107.242 -2.49005 3.43304 0
M  V30 1095 N 107.633 -2.06946 4.61527 0
M  V30 1096 C 105.931 -2.79927 3.47213 0
M  V30 1097 C 106.632 -2.06832 5.43687 0
M  V30 1098 N 105.608 -2.47892 4.83788 0
M  V30 1099 H 109.41 -0.925955 2.78932 0
M  V30 1100 H 106.924 -0.415172 1.57003 0
M  V30 1101 H 108.921 -3.36798 2.45708 0
M  V30 1102 H 107.581 -2.94968 1.35735 0
M  V30 1103 H 108.592 -1.77839 4.86409 0
M  V30 1104 H 105.269 -3.18438 2.70006 0
M  V30 1105 H 106.659 -1.76312 6.48354 0
M  V30 1106 N 109.379 -1.50304 -0.473955 0
M  V30 1107 C 110.289 -1.7174 -1.5982 0
M  V30 1108 C 111.305 -0.600457 -1.63311 0
M  V30 1109 O 112.481 -0.878441 -1.81233 0
M  V30 1110 C 109.546 -1.80427 -2.96052 0
M  V30 1111 C 108.607 -3.04148 -3.02972 0
M  V30 1112 C 107.84 -3.12411 -4.32706 0
M  V30 1113 O 108.063 -2.27542 -5.23049 0
M  V30 1114 O 106.997 -4.05113 -4.45159 0
M  V30 1115 H 110.823 -2.67035 -1.44657 0
M  V30 1116 H 108.408 -1.34366 -0.653148 0
M  V30 1117 H 110.29 -1.88338 -3.7697 0
M  V30 1118 H 108.965 -0.883156 -3.11419 0
M  V30 1119 H 107.872 -3.0174 -2.21142 0
M  V30 1120 H 109.205 -3.95829 -2.92541 0
M  V30 1121 N 110.857 0.726932 -1.39834 0
M  V30 1122 C 111.767 1.87131 -1.41489 0
M  V30 1123 C 112.783 1.71239 -0.308757 0
M  V30 1124 O 113.959 1.93701 -0.551529 0
M  V30 1125 C 111.024 3.22811 -1.26468 0
M  V30 1126 C 110.085 3.51039 -2.47124 0
M  V30 1127 C 109.318 4.80245 -2.3281 0
M  V30 1128 O 109.541 5.54537 -1.33585 0
M  V30 1129 O 108.475 5.08554 -3.21957 0
M  V30 1130 H 112.301 1.8869 -2.3797 0
M  V30 1131 H 109.886 0.875837 -1.21035 0
M  V30 1132 H 111.768 4.03877 -1.20255 0
M  V30 1133 H 110.443 3.22005 -0.330862 0
M  V30 1134 H 109.35 2.70027 -2.58914 0
M  V30 1135 H 110.683 3.56632 -3.39227 0
M  V30 1136 N 112.336 1.25143 0.95797 0
M  V30 1137 C 113.286 1.01924 2.0395 0
M  V30 1138 C 114.27 -0.0427175 1.60843 0
M  V30 1139 O 115.462 0.17221 1.7616 0
M  V30 1140 C 112.591 0.636373 3.3735 0
M  V30 1141 C 111.677 1.73492 3.8699 0
M  V30 1142 N 112.068 2.96945 4.0946 0
M  V30 1143 C 110.366 1.61467 4.15746 0
M  V30 1144 C 111.067 3.68228 4.50315 0
M  V30 1145 N 110.043 2.95833 4.56053 0
M  V30 1146 H 113.845 1.95653 2.19311 0
M  V30 1147 H 111.359 1.15413 1.14253 0
M  V30 1148 H 113.356 0.451233 4.14451 0
M  V30 1149 H 112.016 -0.293621 3.2337 0
M  V30 1150 H 113.027 3.33025 3.96629 0
M  V30 1151 H 109.704 0.753394 4.10646 0
M  V30 1152 H 111.094 4.74178 4.76031 0
M  V30 1153 N 113.814 -1.1601 1.06675 0
M  V30 1154 C 114.762 -2.22586 0.675157 0
M  V30 1155 C 115.756 -1.66525 -0.310766 0
M  V30 1156 O 116.962 -1.79145 -0.175215 0
M  V30 1157 H 113.337 -0.724855 0.200223 0
M  V30 1158 H 115.308 -2.52899 1.58381 0
M  V30 1159 C 114.057 -3.47604 0.0817162 0
M  V30 1160 H 113.38 -3.91058 0.831484 0
M  V30 1161 H 114.82 -4.23718 -0.154708 0
M  V30 1162 C 113.279 -3.15718 -1.17576 0
M  V30 1163 O 113.809 -3.31878 -2.26318 0
M  V30 1164 N 112.015 -2.69816 -1.07923 0
M  V30 1165 H 111.562 -2.56866 -0.194293 0
M  V30 1166 H 111.52 -2.48855 -1.92141 0
M  V30 1167 N 115.292 -0.849877 -1.32721 0
M  V30 1168 C 116.708 -0.539102 -1.50219 0
M  V30 1169 C 116.908 0.931271 -1.78689 0
M  V30 1170 O 115.964 1.71455 -1.85363 0
M  V30 1171 C 117.277 -1.42196 -2.64954 0
M  V30 1172 C 118.825 -1.42189 -2.78839 0
M  V30 1173 C 119.3 -2.28985 -3.96648 0
M  V30 1174 N 120.791 -2.26754 -4.03902 0
M  V30 1175 C 121.526 -2.90644 -4.94281 0
M  V30 1176 N 121.022 -3.63629 -5.897 0
M  V30 1177 N 122.815 -2.80057 -4.87365 0
M  V30 1178 H 114.966 -1.80156 -1.12506 0
M  V30 1179 H 117.229 -0.769217 -0.554085 0
M  V30 1180 H 116.935 -2.46733 -2.50631 0
M  V30 1181 H 116.809 -1.10591 -3.60624 0
M  V30 1182 H 119.196 -0.38419 -2.92588 0
M  V30 1183 H 119.277 -1.77807 -1.83898 0
M  V30 1184 H 118.921 -3.32819 -3.83658 0
M  V30 1185 H 118.851 -1.90702 -4.90857 0
M  V30 1186 H 121.342 -1.73688 -3.3562 0
M  V30 1187 H 121.655 -4.09558 -6.55349 0
M  V30 1188 H 120 -3.67737 -5.89741 0
M  V30 1189 H 123.191 -2.22593 -4.11789 0
M  V30 1190 H 123.364 -3.30132 -5.57599 0
M  V30 1191 N 116.77 1.45427 -0.607355 0
M  V30 1192 C 118.01 2.04128 -0.105458 0
M  V30 1193 C 118.374 1.46555 1.24039 0
M  V30 1194 O 119.575 1.96608 1.833 0
M  V30 1195 C 117.846 3.57338 -0.0665324 0
M  V30 1196 S 119.405 4.37201 0.374207 0
M  V30 1197 H 116.223 0.709278 -0.0494575 0
M  V30 1198 H 118.825 1.78139 -0.805404 0
M  V30 1199 H 117.529 3.96752 -1.04957 0
M  V30 1200 H 117.06 3.87902 0.655415 0
M  V30 1201 H 119.075 4.6888 1.62377 0
M  V30 1202 N 118.248 0.346503 1.53744 0
M  V30 1203 C 119.496 -0.248612 2.00565 0
M  V30 1204 C 119.817 -1.5083 1.23593 0
M  V30 1205 O 119.087 -1.92858 0.343912 0
M  V30 1206 H 117.667 -0.0948564 0.740953 0
M  V30 1207 H 120.329 0.468341 1.89189 0
M  V30 1208 H 119.425 -0.488994 3.08245 0
M  V30 1209 N 119.726 -1.57421 0.075193 0
M  V30 1210 C 120.974 -1.93236 -0.591974 0
M  V30 1211 C 121.295 -0.956241 -1.69944 0
M  V30 1212 O 120.565 -0.00494792 -1.95899 0
M  V30 1213 H 119.145 -0.713355 -0.22166 0
M  V30 1214 H 121.807 -1.9444 0.133848 0
M  V30 1215 H 120.903 -2.95131 -1.01509 0
M  V30 1216 N 121.204 0.198386 -1.56346 0
M  V30 1217 C 122.434 0.934215 -1.84271 0
M  V30 1218 C 122.842 1.77496 -0.655125 0
M  V30 1219 O 122.185 1.7961 0.385488 0
M  V30 1220 C 122.247 1.88278 -3.06254 0
M  V30 1221 C 121.911 1.22431 -4.40295 0
M  V30 1222 C 122.908 0.602839 -5.16393 0
M  V30 1223 C 120.593 1.22915 -4.87029 0
M  V30 1224 C 122.587 -0.0050083 -6.374 0
M  V30 1225 C 120.274 0.617465 -6.07973 0
M  V30 1226 C 121.272 0.00146341 -6.83 0
M  V30 1227 O 120.96 -0.600642 -8.01653 0
M  V30 1228 H 120.692 0.278245 -0.616081 0
M  V30 1229 H 123.246 0.211626 -2.04307 0
M  V30 1230 H 121.476 2.64498 -2.82095 0
M  V30 1231 H 123.165 2.48612 -3.20853 0
M  V30 1232 H 123.931 0.591265 -4.81382 0
M  V30 1233 H 119.81 1.69801 -4.28589 0
M  V30 1234 H 123.354 -0.48643 -6.95902 0
M  V30 1235 H 119.251 0.62653 -6.42452 0
M  V30 1236 H 120.019 -0.497225 -8.16988 0
M  V30 1237 N 122.682 1.50554 0.465978 0
M  V30 1238 C 123.615 1.64436 1.58227 0
M  V30 1239 C 124.593 0.492367 1.54966 0
M  V30 1240 O 125.777 0.712536 1.74514 0
M  V30 1241 C 122.904 1.63165 2.96808 0
M  V30 1242 C 121.95 2.83987 3.18204 0
M  V30 1243 S 122.783 4.45219 2.97557 0
M  V30 1244 C 123.939 4.46649 4.3847 0
M  V30 1245 H 124.172 2.58861 1.46213 0
M  V30 1246 H 121.705 1.3988 0.653678 0
M  V30 1247 H 123.663 1.63116 3.76701 0
M  V30 1248 H 122.324 0.69967 3.06208 0
M  V30 1249 H 121.517 2.79416 4.19455 0
M  V30 1250 H 121.119 2.81629 2.46092 0
M  V30 1251 H 123.411 4.20526 5.31191 0
M  V30 1252 H 124.354 5.48295 4.48082 0
M  V30 1253 H 124.762 3.76296 4.20787 0
M  V30 1254 N 124.16 -0.719506 1.40217 0
M  V30 1255 C 125.406 -1.48152 1.38488 0
M  V30 1256 C 125.739 -1.94195 -0.0141867 0
M  V30 1257 O 125.014 -1.67884 -0.982096 0
M  V30 1258 C 125.297 -2.71035 2.37091 0
M  V30 1259 C 125.15 -2.30912 3.86005 0
M  V30 1260 C 126.469 -3.73182 2.33288 0
M  V30 1261 H 123.588 -0.537395 0.504357 0
M  V30 1262 H 126.23 -0.821472 1.71324 0
M  V30 1263 H 124.38 -3.27352 2.0922 0
M  V30 1264 H 126.052 -1.80107 4.24687 0
M  V30 1265 H 124.295 -1.62958 4.02029 0
M  V30 1266 H 124.966 -3.18978 4.50508 0
M  V30 1267 H 127.442 -3.26485 2.57966 0
M  V30 1268 H 126.318 -4.56806 3.04334 0
M  V30 1269 H 126.579 -4.21202 1.34317 0
M  V30 1270 N 125.638 -1.25649 -0.95132 0
M  V30 1271 C 126.588 -1.03004 -2.03406 0
M  V30 1272 C 127.572 0.034187 -1.60864 0
M  V30 1273 O 128.764 -0.181549 -1.76066 0
M  V30 1274 C 125.893 -0.654255 -3.37008 0
M  V30 1275 C 124.979 -1.75542 -3.86065 0
M  V30 1276 N 125.37 -2.99113 -4.07879 0
M  V30 1277 C 123.668 -1.63669 -4.14884 0
M  V30 1278 C 124.369 -3.70611 -4.48356 0
M  V30 1279 N 123.345 -2.98247 -4.54477 0
M  V30 1280 H 127.147 -1.96813 -2.1827 0
M  V30 1281 H 124.661 -1.16017 -1.13639 0
M  V30 1282 H 126.658 -0.473206 -4.14206 0
M  V30 1283 H 125.318 0.276468 -3.23521 0
M  V30 1284 H 126.329 -3.35124 -3.94857 0
M  V30 1285 H 123.006 -0.775161 -4.10241 0
M  V30 1286 H 124.396 -4.76695 -4.73509 0
M  V30 1287 N 127.117 1.15442 -1.07289 0
M  V30 1288 C 128.528 1.67803 -0.818475 0
M  V30 1289 C 128.879 1.8489 0.656507 0
M  V30 1290 O 128.004 1.55176 1.50829 0
M  V30 1291 C 128.599 3.04805 -1.47917 0
M  V30 1292 C 127.158 3.54245 -1.27229 0
M  V30 1293 C 126.305 2.29986 -1.54925 0
M  V30 1294 H 129.256 0.996646 -1.23502 0
M  V30 1295 H 129.277 3.69702 -0.90005 0
M  V30 1296 H 128.789 2.92336 -2.55267 0
M  V30 1297 H 126.89 3.71956 -0.21899 0
M  V30 1298 H 127.003 4.35723 -1.99203 0
M  V30 1299 H 125.367 2.35496 -0.970242 0
M  V30 1300 H 126.15 2.20105 -2.63455 0
M  V30 1301 N 128.595 0.856903 1.32268 0
M  V30 1302 C 129.82 0.474569 2.01897 0
M  V30 1303 C 130.245 -0.921766 1.63967 0
M  V30 1304 O 129.603 -1.60589 0.84148 0
M  V30 1305 C 129.651 0.623799 3.55164 0
M  V30 1306 O 128.755 -0.342459 4.10976 0
M  V30 1307 H 128.096 0.190422 0.63611 0
M  V30 1308 H 130.626 1.15672 1.68764 0
M  V30 1309 H 130.636 0.512169 4.04773 0
M  V30 1310 H 129.311 1.64202 3.82113 0
M  V30 1311 H 127.888 -0.18688 3.72431 0
M  V30 1312 N 130.073 -1.45103 0.615059 0
M  V30 1313 C 131.036 -2.29025 -0.0895485 0
M  V30 1314 C 132.036 -1.40174 -0.787906 0
M  V30 1315 O 133.226 -1.62217 -0.634933 0
M  V30 1316 C 130.358 -3.21376 -1.13711 0
M  V30 1317 H 131.551 -2.92807 0.648382 0
M  V30 1318 H 129.104 -1.51749 0.374444 0
M  V30 1319 H 129.839 -2.6241 -1.90556 0
M  V30 1320 H 129.624 -3.86834 -0.640475 0
M  V30 1321 H 131.114 -3.84459 -1.63036 0
M  V30 1322 N 131.551 -0.354651 -1.53558 0
M  V30 1323 C 132.483 0.5315 -2.22952 0
M  V30 1324 C 133.496 1.05503 -1.23988 0
M  V30 1325 O 134.685 0.963279 -1.50277 0
M  V30 1326 C 131.785 1.74538 -2.90499 0
M  V30 1327 C 130.958 1.35524 -4.15875 0
M  V30 1328 C 130.017 2.42999 -4.66731 0
M  V30 1329 O 129.043 2.05844 -5.30676 0
M  V30 1330 N 130.245 3.74423 -4.43608 0
M  V30 1331 H 133.01 -0.0628615 -2.99634 0
M  V30 1332 H 130.571 -0.179302 -1.60904 0
M  V30 1333 H 132.563 2.45892 -3.21433 0
M  V30 1334 H 131.133 2.24686 -2.17336 0
M  V30 1335 H 130.353 0.471998 -3.91364 0
M  V30 1336 H 131.641 1.07071 -4.97406 0
M  V30 1337 H 131.039 4.07391 -3.92491 0
M  V30 1338 H 129.596 4.41913 -4.7912 0
M  V30 1339 N 133.029 1.57378 -0.0835403 0
M  V30 1340 C 134.254 1.98682 0.594987 0
M  V30 1341 C 134.679 0.961969 1.61641 0
M  V30 1342 O 134.037 -0.0709989 1.81161 0
M  V30 1343 C 134.085 3.38988 1.2296 0
M  V30 1344 O 133.189 3.39208 2.34546 0
M  V30 1345 H 132.53 0.646368 0.152002 0
M  V30 1346 H 135.06 2.03961 -0.161533 0
M  V30 1347 H 135.07 3.76431 1.57366 0
M  V30 1348 H 133.745 4.13107 0.481228 0
M  V30 1349 H 132.322 3.13548 2.01846 0
M  V30 1350 N 134.507 -0.190092 1.56449 0
M  V30 1351 C 135.47 -1.21925 1.9408 0
M  V30 1352 C 136.47 -1.38176 0.822431 0
M  V30 1353 O 137.66 -1.35903 1.08977 0
M  V30 1354 C 134.792 -2.58773 2.21922 0
M  V30 1355 H 135.985 -0.897464 2.86157 0
M  V30 1356 H 133.538 -0.43181 1.50217 0
M  V30 1357 H 134.273 -2.95998 1.32499 0
M  V30 1358 H 134.058 -2.48348 3.03424 0
M  V30 1359 H 135.548 -3.32978 2.52022 0
M  V30 1360 N 135.985 -1.50799 -0.457987 0
M  V30 1361 C 136.918 -1.65273 -1.57353 0
M  V30 1362 C 137.896 -0.500578 -1.54703 0
M  V30 1363 O 139.08 -0.721781 -1.74134 0
M  V30 1364 C 136.207 -1.64737 -2.95938 0
M  V30 1365 C 135.253 -2.8567 -3.16693 0
M  V30 1366 S 136.086 -4.46791 -2.95191 0
M  V30 1367 C 137.242 -4.48968 -4.36095 0
M  V30 1368 H 137.475 -2.59633 -1.44838 0
M  V30 1369 H 135.008 -1.40225 -0.64625 0
M  V30 1370 H 136.966 -1.65112 -3.7583 0
M  V30 1371 H 135.627 -0.715899 -3.05833 0
M  V30 1372 H 134.82 -2.81637 -4.17967 0
M  V30 1373 H 134.422 -2.8293 -2.44594 0
M  V30 1374 H 136.714 -4.23337 -5.28954 0
M  V30 1375 H 137.657 -5.50664 -4.45168 0
M  V30 1376 H 138.065 -3.78522 -4.18786 0
M  V30 1377 N 137.463 0.71206 -1.40597 0
M  V30 1378 C 138.426 1.80785 -1.40888 0
M  V30 1379 C 139.426 1.57937 -0.302103 0
M  V30 1380 O 140.616 1.64913 -0.561182 0
M  V30 1381 C 137.748 3.18927 -1.20409 0
M  V30 1382 H 138.941 1.81924 -2.38419 0
M  V30 1383 H 136.494 0.91805 -1.26497 0
M  V30 1384 H 137.229 3.23436 -0.236522 0
M  V30 1385 H 137.014 3.36911 -2.00582 0
M  V30 1386 H 138.504 3.98949 -1.23408 0
M  V30 1387 N 138.941 1.26152 0.944643 0
M  V30 1388 C 139.904 1.07474 2.0244 0
M  V30 1389 C 140.904 0.0242064 1.60782 0
M  V30 1390 O 142.094 0.267302 1.72137 0
M  V30 1391 C 139.226 0.633956 3.34953 0
M  V30 1392 H 140.419 2.03336 2.20442 0
M  V30 1393 H 137.972 1.087 1.12312 0
M  V30 1394 H 138.707 -0.326811 3.22649 0
M  V30 1395 H 138.492 1.39247 3.66542 0
M  V30 1396 H 139.982 0.52501 4.14287 0
M  V30 1397 N 140.419 -1.14872 1.07899 0
M  V30 1398 C 141.644 -1.90202 0.826926 0
M  V30 1399 C 142.069 -1.77774 -0.614664 0
M  V30 1400 O 141.427 -1.11431 -1.43013 0
M  V30 1401 C 141.475 -3.38352 1.24702 0
M  V30 1402 O 140.579 -4.10497 0.39575 0
M  V30 1403 H 139.92 -0.591968 0.300782 0
M  V30 1404 H 142.45 -1.45437 1.43907 0
M  V30 1405 H 142.46 -3.89156 1.22563 0
M  V30 1406 H 141.135 -3.46715 2.29698 0
M  V30 1407 H 139.712 -3.69796 0.480117 0
M  V30 1408 N 141.898 -0.863906 -1.31812 0
M  V30 1409 C 142.861 -0.320212 -2.26952 0
M  V30 1410 C 143.861 0.525369 -1.51975 0
M  V30 1411 O 145.051 0.335547 -1.70938 0
M  V30 1412 C 142.183 0.545919 -3.365 0
M  V30 1413 H 143.376 -1.16004 -2.76556 0
M  V30 1414 H 140.929 -0.638995 -1.42641 0
M  V30 1415 H 141.664 1.40718 -2.92179 0
M  V30 1416 H 141.449 -0.0594674 -3.92055 0
M  V30 1417 H 142.939 0.918796 -4.07367 0
M  V30 1418 N 143.376 1.44774 -0.622745 0
M  V30 1419 C 144.309 2.27792 0.136329 0
M  V30 1420 C 145.287 1.38041 0.859264 0
M  V30 1421 O 146.471 1.67478 0.86506 0
M  V30 1422 C 143.598 3.16776 1.19878 0
M  V30 1423 C 142.644 4.22575 0.57731 0
M  V30 1424 S 143.477 5.31825 -0.626294 0
M  V30 1425 C 144.633 6.24377 0.436378 0
M  V30 1426 H 144.866 2.91824 -0.567967 0
M  V30 1427 H 142.399 1.48838 -0.410677 0
M  V30 1428 H 144.357 3.68596 1.80686 0
M  V30 1429 H 143.018 2.5198 1.87523 0
M  V30 1430 H 142.211 4.84818 1.37721 0
M  V30 1431 H 141.813 3.73974 0.0440439 0
M  V30 1432 H 144.105 6.64689 1.31128 0
M  V30 1433 H 145.048 7.07941 -0.150271 0
M  V30 1434 H 145.456 5.59381 0.758513 0
M  V30 1435 N 144.854 0.36279 1.53368 0
M  V30 1436 C 146.265 -0.117022 1.86333 0
M  V30 1437 C 146.616 -1.48397 1.28347 0
M  V30 1438 O 145.741 -2.07787 0.604428 0
M  V30 1439 C 146.336 -0.21912 3.38091 0
M  V30 1440 C 144.895 -0.643184 3.70864 0
M  V30 1441 C 144.042 0.211318 2.76494 0
M  V30 1442 H 146.993 0.581687 1.47655 0
M  V30 1443 H 147.014 -1.04319 3.6592 0
M  V30 1444 H 146.526 0.775902 3.80265 0
M  V30 1445 H 144.627 -1.64654 3.34245 0
M  V30 1446 H 144.74 -0.41973 4.77258 0
M  V30 1447 H 143.104 -0.319367 2.5269 0
M  V30 1448 H 143.887 1.20383 3.21501 0
M  V30 1449 N 146.332 -1.57332 0.0918853 0
M  V30 1450 C 147.56 -1.98574 -0.581048 0
M  V30 1451 C 147.975 -0.970903 -1.61923 0
M  V30 1452 O 147.332 0.0399054 -1.82456 0
M  V30 1453 C 147.383 -3.39872 -1.23164 0
M  V30 1454 O 147.104 -4.37469 -0.234989 0
M  V30 1455 C 148.605 -3.96099 -1.99049 0
M  V30 1456 H 145.825 -0.65261 -0.156018 0
M  V30 1457 H 148.369 -2.0379 0.170225 0
M  V30 1458 H 146.524 -3.35679 -1.93386 0
M  V30 1459 H 146.938 -5.19751 -0.70418 0
M  V30 1460 H 148.412 -4.97127 -2.39934 0
M  V30 1461 H 148.889 -3.3374 -2.85507 0
M  V30 1462 H 149.495 -4.03755 -1.3365 0
M  V30 1463 N 147.81 0.181792 -1.56548 0
M  V30 1464 C 149.038 0.915947 -1.85521 0
M  V30 1465 C 149.453 1.76282 -0.676016 0
M  V30 1466 O 148.81 1.79012 0.355077 0
M  V30 1467 C 148.861 1.80126 -3.13427 0
M  V30 1468 O 148.582 0.988562 -4.26801 0
M  V30 1469 C 150.083 2.64597 -3.55673 0
M  V30 1470 H 147.303 0.26661 -0.61576 0
M  V30 1471 H 149.847 0.185039 -2.03661 0
M  V30 1472 H 148.002 2.48563 -2.97145 0
M  V30 1473 H 148.416 1.59308 -4.99721 0
M  V30 1474 H 149.89 3.2235 -4.48101 0
M  V30 1475 H 150.367 3.38958 -2.79292 0
M  V30 1476 H 150.973 2.0151 -3.74532 0
M  V30 1477 N 149.288 1.51039 0.449983 0
M  V30 1478 C 150.218 1.74379 1.55288 0
M  V30 1479 C 151.199 0.593236 1.5942 0
M  V30 1480 O 152.384 0.834625 1.7535 0
M  V30 1481 C 149.514 1.85728 2.93466 0
M  V30 1482 C 148.468 3.01078 3.04197 0
M  V30 1483 C 147.794 2.97595 4.44231 0
M  V30 1484 C 149.094 4.41254 2.7945 0
M  V30 1485 H 150.788 2.66725 1.36008 0
M  V30 1486 H 148.334 1.2835 0.652864 0
M  V30 1487 H 150.287 2.0064 3.70569 0
M  V30 1488 H 149.011 0.900207 3.13949 0
M  V30 1489 H 147.67 2.85851 2.29531 0
M  V30 1490 H 147.318 1.99691 4.61663 0
M  V30 1491 H 147.018 3.75046 4.52343 0
M  V30 1492 H 148.542 3.14583 5.23326 0
M  V30 1493 H 149.956 4.56897 3.46292 0
M  V30 1494 H 148.353 5.20315 2.98985 0
M  V30 1495 H 149.423 4.52164 1.75144 0
M  V30 1496 N 150.766 -0.704594 1.40972 0
M  V30 1497 C 151.729 -1.80035 1.41845 0
M  V30 1498 C 152.729 -1.57774 0.310474 0
M  V30 1499 O 153.919 -1.64613 0.56992 0
M  V30 1500 C 151.051 -3.18284 1.22098 0
M  V30 1501 H 152.244 -1.80658 2.3938 0
M  V30 1502 H 149.797 -0.911329 1.26982 0
M  V30 1503 H 150.532 -3.23306 0.253672 0
M  V30 1504 H 150.317 -3.35843 2.02366 0
M  V30 1505 H 151.807 -3.98289 1.25522 0
M  V30 1506 N 152.244 -1.26651 -0.937939 0
M  V30 1507 C 153.469 -1.15279 -1.72411 0
M  V30 1508 C 153.894 0.287866 -1.85884 0
M  V30 1509 O 153.252 1.20855 -1.35143 0
M  V30 1510 C 153.3 -1.83028 -3.10698 0
M  V30 1511 O 152.404 -1.12128 -3.96864 0
M  V30 1512 H 151.745 -0.401504 -0.528858 0
M  V30 1513 H 154.275 -1.67531 -1.1745 0
M  V30 1514 H 154.285 -1.89981 -3.6107 0
M  V30 1515 H 152.96 -2.87833 -3.00208 0
M  V30 1516 H 151.537 -1.13173 -3.55312 0
M  V30 1517 N 153.722 1.14298 -1.08507 0
M  V30 1518 C 154.969 1.85359 -0.815373 0
M  V30 1519 C 155.297 1.83001 0.658865 0
M  V30 1520 O 154.552 1.25655 1.50031 0
M  V30 1521 C 154.851 3.33547 -1.28379 0
M  V30 1522 C 154.517 3.56093 -2.76602 0
M  V30 1523 C 153.179 3.61955 -3.17084 0
M  V30 1524 C 155.531 3.64834 -3.72217 0
M  V30 1525 C 152.859 3.74082 -4.51973 0
M  V30 1526 C 155.211 3.78487 -5.06883 0
M  V30 1527 C 153.875 3.82598 -5.46969 0
M  V30 1528 H 153.145 0.678276 -0.298366 0
M  V30 1529 H 155.792 1.35002 -1.35819 0
M  V30 1530 H 154.097 3.86191 -0.660593 0
M  V30 1531 H 155.794 3.86959 -1.05186 0
M  V30 1532 H 152.384 3.52179 -2.4427 0
M  V30 1533 H 156.568 3.59595 -3.42061 0
M  V30 1534 H 151.824 3.75527 -4.82483 0
M  V30 1535 H 155.998 3.84193 -5.80834 0
M  V30 1536 H 153.625 3.91747 -6.51489 0
M  V30 1537 N 155.201 0.870884 1.31352 0
M  V30 1538 C 156.447 0.482987 1.96965 0
M  V30 1539 C 156.78 -0.962462 1.68672 0
M  V30 1540 O 156.055 -1.6779 0.98371 0
M  V30 1541 C 156.338 0.741752 3.52378 0
M  V30 1542 C 156.191 2.2368 3.9024 0
M  V30 1543 C 157.51 0.208838 4.39604 0
M  V30 1544 H 154.629 0.176955 0.715441 0
M  V30 1545 H 157.271 1.09229 1.55464 0
M  V30 1546 H 155.421 0.223149 3.87859 0
M  V30 1547 H 157.093 2.82273 3.64856 0
M  V30 1548 H 155.336 2.70901 3.38814 0
M  V30 1549 H 156.007 2.3685 4.98604 0
M  V30 1550 H 158.483 0.652529 4.10952 0
M  V30 1551 H 157.359 0.419336 5.47296 0
M  V30 1552 H 157.62 -0.889275 4.33064 0
M  V30 1553 N 156.679 -1.44442 0.630414 0
M  V30 1554 C 157.612 -2.27862 -0.124247 0
M  V30 1555 C 158.59 -1.38495 -0.851931 0
M  V30 1556 O 159.774 -1.67935 -0.856166 0
M  V30 1557 C 156.901 -3.17407 -1.18197 0
M  V30 1558 C 155.947 -4.22875 -0.554892 0
M  V30 1559 S 156.78 -5.31485 0.654489 0
M  V30 1560 C 157.936 -6.246 -0.40326 0
M  V30 1561 H 158.169 -2.91519 0.583435 0
M  V30 1562 H 155.702 -1.48618 0.418565 0
M  V30 1563 H 157.66 -3.69549 -1.78728 0
M  V30 1564 H 156.321 -2.52971 -1.86184 0
M  V30 1565 H 155.514 -4.85542 -1.35148 0
M  V30 1566 H 155.116 -3.73992 -0.0242105 0
M  V30 1567 H 157.408 -6.65375 -1.27602 0
M  V30 1568 H 158.351 -7.07851 0.187813 0
M  V30 1569 H 158.759 -5.59775 -0.728837 0
M  V30 1570 N 158.157 -0.370918 -1.53173 0
M  V30 1571 C 159.568 0.107139 -1.86392 0
M  V30 1572 C 159.919 1.47714 -1.29132 0
M  V30 1573 O 159.044 2.07464 -0.615439 0
M  V30 1574 C 159.639 0.201187 -3.38202 0
M  V30 1575 C 158.198 0.623507 -3.712 0
M  V30 1576 C 157.345 -0.225978 -2.76378 0
M  V30 1577 H 160.296 -0.58951 -1.47345 0
M  V30 1578 H 160.317 1.02377 -3.66468 0
M  V30 1579 H 159.829 -0.796058 -3.79848 0
M  V30 1580 H 157.93 1.62879 -3.35114 0
M  V30 1581 H 158.043 0.394414 -4.77474 0
M  V30 1582 H 156.407 0.305962 -2.52856 0
M  V30 1583 H 157.19 -1.22086 -3.20858 0
M  V30 1584 N 159.635 1.57281 -0.100228 0
M  V30 1585 C 161.046 1.81725 0.428107 0
M  V30 1586 C 161.397 1.01619 1.67833 0
M  V30 1587 O 160.522 0.247098 2.14985 0
M  V30 1588 C 161.117 3.29617 0.78347 0
M  V30 1589 C 159.676 3.54808 1.25653 0
M  V30 1590 C 158.823 2.76118 0.255752 0
M  V30 1591 H 161.774 1.55324 -0.325608 0
M  V30 1592 H 161.795 3.4322 1.64256 0
M  V30 1593 H 161.307 3.87893 -0.12665 0
M  V30 1594 H 159.408 3.01868 2.18418 0
M  V30 1595 H 159.521 4.63443 1.21482 0
M  V30 1596 H 157.885 2.43745 0.738956 0
M  V30 1597 H 158.668 3.37145 -0.647136 0
M  V30 1598 N 161.113 -0.173488 1.56642 0
M  V30 1599 C 162.362 -0.888758 1.81063 0
M  V30 1600 C 162.675 -1.83506 0.67712 0
M  V30 1601 O 163.881 -2.59254 0.806206 0
M  V30 1602 C 162.337 -1.63091 3.20826 0
M  V30 1603 C 161.945 -0.728357 4.4204 0
M  V30 1604 C 163.689 -2.33454 3.54541 0
M  V30 1605 C 161.596 -1.47062 5.72823 0
M  V30 1606 H 160.526 -0.335618 0.675186 0
M  V30 1607 H 163.177 -0.141712 1.82952 0
M  V30 1608 H 161.559 -2.42263 3.13248 0
M  V30 1609 H 162.733 0.0262449 4.60793 0
M  V30 1610 H 161.048 -0.134492 4.16183 0
M  V30 1611 H 163.645 -2.89578 4.49498 0
M  V30 1612 H 163.988 -3.08687 2.79317 0
M  V30 1613 H 164.521 -1.61227 3.63663 0
M  V30 1614 H 161.26 -0.760658 6.51072 0
M  V30 1615 H 160.78 -2.1986 5.58052 0
M  V30 1616 H 162.459 -2.01868 6.14702 0
M  V30 1617 N 162.591 -1.51276 -0.441967 0
M  V30 1618 C 163.819 -1.67516 -1.21434 0
M  V30 1619 C 164.234 -0.37055 -1.85128 0
M  V30 1620 O 163.591 0.650498 -1.70513 0
M  V30 1621 C 163.642 -2.78748 -2.30177 0
M  V30 1622 O 163.363 -4.04154 -1.69089 0
M  V30 1623 C 164.864 -3.06217 -3.20541 0
M  V30 1624 H 162.084 -0.562276 -0.366178 0
M  V30 1625 H 164.628 -1.97666 -0.524244 0
M  V30 1626 H 162.783 -2.5121 -2.94911 0
M  V30 1627 H 163.197 -4.65894 -2.40922 0
M  V30 1628 H 164.671 -3.8764 -3.92987 0
M  V30 1629 H 165.148 -2.18439 -3.81026 0
M  V30 1630 H 165.754 -3.35397 -2.61513 0
M  V30 1631 N 164.069 0.697108 -1.41344 0
M  V30 1632 C 165.001 1.8224 -1.39001 0
M  V30 1633 C 166.014 1.60152 -0.292428 0
M  V30 1634 O 167.203 1.69684 -0.554048 0
M  V30 1635 C 164.303 3.18976 -1.14489 0
M  V30 1636 C 163.476 3.68105 -2.36258 0
M  V30 1637 C 162.535 4.83506 -2.07625 0
M  V30 1638 O 161.561 4.95201 -2.8065 0
M  V30 1639 N 162.763 5.70637 -1.06555 0
M  V30 1640 H 165.528 1.84742 -2.35988 0
M  V30 1641 H 163.089 0.87937 -1.35936 0
M  V30 1642 H 165.081 3.93801 -0.932885 0
M  V30 1643 H 163.651 3.11508 -0.261043 0
M  V30 1644 H 162.871 2.84204 -2.7317 0
M  V30 1645 H 164.159 3.97667 -3.17393 0
M  V30 1646 H 163.557 5.63817 -0.461125 0
M  V30 1647 H 162.114 6.45368 -0.913444 0
M  V30 1648 N 165.547 1.27147 0.931209 0
M  V30 1649 C 166.479 1.05364 2.03546 0
M  V30 1650 C 167.492 0.0108438 1.62796 0
M  V30 1651 O 168.681 0.25202 1.76712 0
M  V30 1652 C 165.781 0.575566 3.33977 0
M  V30 1653 C 164.954 1.68985 4.03439 0
M  V30 1654 C 164.013 1.20813 5.12143 0
M  V30 1655 O 163.039 1.90712 5.363 0
M  V30 1656 N 164.241 0.0618851 5.80467 0
M  V30 1657 H 167.006 2.00454 2.22796 0
M  V30 1658 H 164.567 1.18666 1.10136 0
M  V30 1659 H 166.559 0.237264 4.04004 0
M  V30 1660 H 165.129 -0.282016 3.11325 0
M  V30 1661 H 164.349 2.19861 3.27192 0
M  V30 1662 H 165.637 2.4378 4.46597 0
M  V30 1663 H 165.035 -0.521621 5.6329 0
M  V30 1664 H 163.592 -0.217264 6.51438 0
M  V30 1665 N 167.025 -1.13721 1.09112 0
M  V30 1666 C 167.988 -2.17222 0.731241 0
M  V30 1667 C 168.988 -1.59035 -0.237566 0
M  V30 1668 O 170.178 -1.74192 -0.0161704 0
M  V30 1669 C 167.31 -3.40804 0.0808443 0
M  V30 1670 H 168.503 -2.50573 1.64783 0
M  V30 1671 H 166.056 -1.28493 0.889897 0
M  V30 1672 H 166.791 -3.1304 -0.847127 0
M  V30 1673 H 166.576 -3.84306 0.777896 0
M  V30 1674 H 168.066 -4.1731 -0.155657 0
M  V30 1675 N 168.503 -0.877838 -1.30888 0
M  V30 1676 C 169.731 -0.507414 -2.00581 0
M  V30 1677 C 170.146 0.902216 -1.65848 0
M  V30 1678 O 169.503 1.59225 -0.891831 0
M  V30 1679 C 169.554 -0.664162 -3.55347 0
M  V30 1680 O 169.275 -2.01829 -3.8884 0
M  V30 1681 C 170.776 -0.295787 -4.42312 0
M  V30 1682 H 167.996 -0.196866 -0.641471 0
M  V30 1683 H 170.54 -1.18117 -1.66939 0
M  V30 1684 H 168.695 -0.0378619 -3.87381 0
M  V30 1685 H 169.109 -2.03174 -4.8355 0
M  V30 1686 H 170.583 -0.456388 -5.5011 0
M  V30 1687 H 171.06 0.765663 -4.32475 0
M  V30 1688 H 171.666 -0.898113 -4.15709 0
M  V30 1689 N 169.982 1.44106 -0.638065 0
M  V30 1690 C 171.228 2.02277 -0.145546 0
M  V30 1691 C 171.561 1.50125 1.23191 0
M  V30 1692 O 170.836 0.688133 1.8192 0
M  V30 1693 C 171.119 3.59829 -0.139791 0
M  V30 1694 C 170.972 4.22247 -1.55008 0
M  V30 1695 C 172.291 4.36873 0.531966 0
M  V30 1696 H 169.41 0.734992 -0.0543632 0
M  V30 1697 H 172.052 1.71592 -0.815863 0
M  V30 1698 H 170.202 3.86102 0.431007 0
M  V30 1699 H 171.874 4.07057 -2.1703 0
M  V30 1700 H 170.117 3.79476 -2.10191 0
M  V30 1701 H 170.788 5.31284 -1.49804 0
M  V30 1702 H 173.264 4.16074 0.0464781 0
M  V30 1703 H 172.14 5.4657 0.505206 0
M  V30 1704 H 172.401 4.11995 1.60352 0
M  V30 1705 N 171.46 0.379036 1.52974 0
M  V30 1706 C 172.688 -0.20679 2.05864 0
M  V30 1707 C 173.103 -1.41356 1.25155 0
M  V30 1708 O 172.46 -1.8009 0.295588 0
M  V30 1709 C 172.511 -0.587045 3.56702 0
M  V30 1710 O 172.232 0.571776 4.34353 0
M  V30 1711 C 173.733 -1.22983 4.25899 0
M  V30 1712 H 170.953 -0.0336123 0.670158 0
M  V30 1713 H 173.497 0.541298 1.97206 0
M  V30 1714 H 171.652 -1.28504 3.65466 0
M  V30 1715 H 172.066 0.261544 5.23847 0
M  V30 1716 H 173.54 -1.44635 5.32715 0
M  V30 1717 H 174.017 -2.19416 3.80465 0
M  V30 1718 H 174.623 -0.572892 4.21424 0
M  V30 1719 N 172.938 -1.57226 0.108567 0
M  V30 1720 C 173.901 -2.13602 -0.831082 0
M  V30 1721 C 174.901 -1.06841 -1.20173 0
M  V30 1722 O 176.091 -1.32666 -1.12895 0
M  V30 1723 C 173.223 -2.66769 -2.12243 0
M  V30 1724 H 174.416 -2.97951 -0.341317 0
M  V30 1725 H 171.969 -1.55667 -0.14057 0
M  V30 1726 H 172.704 -1.85977 -2.65675 0
M  V30 1727 H 172.489 -3.44839 -1.86625 0
M  V30 1728 H 173.979 -3.10332 -2.79435 0
M  V30 1729 N 174.416 0.165178 -1.56732 0
M  V30 1730 C 175.662 0.877389 -1.83503 0
M  V30 1731 C 176.017 1.79602 -0.689996 0
M  V30 1732 O 175.31 1.89023 0.313205 0
M  V30 1733 C 175.504 1.70405 -3.1416 0
M  V30 1734 C 175.333 0.866961 -4.41264 0
M  V30 1735 C 174.103 0.539646 -5.0241 0
M  V30 1736 C 176.301 0.205671 -5.13889 0
M  V30 1737 N 174.283 -0.312946 -6.13102 0
M  V30 1738 C 175.654 -0.507823 -6.17917 0
M  V30 1739 C 177.709 0.124468 -4.97744 0
M  V30 1740 C 176.412 -1.29483 -7.0755 0
M  V30 1741 C 178.438 -0.649222 -5.87826 0
M  V30 1742 C 177.8 -1.35106 -6.91322 0
M  V30 1743 H 173.899 0.299477 -0.722383 0
M  V30 1744 H 176.483 0.143949 -1.94167 0
M  V30 1745 H 174.654 2.40887 -3.04677 0
M  V30 1746 H 176.386 2.35804 -3.28905 0
M  V30 1747 H 173.141 0.871176 -4.65519 0
M  V30 1748 H 173.565 -0.729731 -6.73056 0
M  V30 1749 H 178.207 0.652724 -4.17731 0
M  V30 1750 H 175.925 -1.83441 -7.87004 0
M  V30 1751 H 179.511 -0.713804 -5.77405 0
M  V30 1752 H 178.391 -1.94013 -7.59821 0
M  V30 1753 N 175.894 1.51508 0.433938 0
M  V30 1754 C 176.824 1.76016 1.53429 0
M  V30 1755 C 177.805 0.610112 1.58782 0
M  V30 1756 O 178.99 0.853177 1.74455 0
M  V30 1757 C 176.12 1.88831 2.9148 0
M  V30 1758 C 175.074 3.04288 3.00987 0
M  V30 1759 C 174.4 3.0229 4.4105 0
M  V30 1760 C 175.7 4.44193 2.74754 0
M  V30 1761 H 177.394 2.68152 1.33171 0
M  V30 1762 H 174.94 1.29035 0.639214 0
M  V30 1763 H 176.893 2.04559 3.6842 0
M  V30 1764 H 175.617 0.933455 3.12976 0
M  V30 1765 H 174.276 2.8827 2.26486 0
M  V30 1766 H 173.924 2.04576 4.59519 0
M  V30 1767 H 173.624 3.79822 4.4834 0
M  V30 1768 H 175.148 3.20116 5.1996 0
M  V30 1769 H 176.562 4.60544 3.41426 0
M  V30 1770 H 174.959 5.23457 2.9345 0
M  V30 1771 H 176.029 4.53996 1.70339 0
M  V30 1772 N 177.372 -0.689602 1.41712 0
M  V30 1773 C 178.783 -1.26973 1.36875 0
M  V30 1774 C 179.134 -1.96124 0.054748 0
M  V30 1775 O 178.259 -1.99141 -0.84687 0
M  V30 1776 C 178.854 -2.30912 2.47922 0
M  V30 1777 C 177.413 -2.84486 2.46464 0
M  V30 1778 C 176.56 -1.58603 2.27465 0
M  V30 1779 H 179.511 -0.48396 1.51141 0
M  V30 1780 H 179.532 -3.12331 2.17323 0
M  V30 1781 H 179.044 -1.80554 3.43543 0
M  V30 1782 H 177.145 -3.39005 1.54617 0
M  V30 1783 H 177.258 -3.34511 3.42986 0
M  V30 1784 H 175.622 -1.84632 1.75451 0
M  V30 1785 H 176.405 -1.10233 3.25121 0
M  V30 1786 N 178.85 -1.27639 -0.924453 0
M  V30 1787 C 179.782 -1.06442 -2.02985 0
M  V30 1788 C 180.795 -0.0194771 -1.62788 0
M  V30 1789 O 181.984 -0.261388 -1.76576 0
M  V30 1790 C 179.084 -0.59327 -3.33667 0
M  V30 1791 C 178.257 -1.71123 -4.02537 0
M  V30 1792 C 177.316 -1.23527 -5.11495 0
M  V30 1793 O 176.342 -1.93553 -5.35281 0
M  V30 1794 N 177.544 -0.0926678 -5.80426 0
M  V30 1795 H 180.309 -2.01633 -2.2173 0
M  V30 1796 H 177.87 -1.19248 -1.09505 0
M  V30 1797 H 179.862 -0.258686 -4.03872 0
M  V30 1798 H 178.432 0.265502 -3.1147 0
M  V30 1799 H 177.652 -2.21593 -3.26022 0
M  V30 1800 H 178.94 -2.46145 -4.45298 0
M  V30 1801 H 178.338 0.491741 -5.63559 0
M  V30 1802 H 176.895 0.182714 -6.51544 0
M  V30 1803 N 180.328 1.1314 -1.09713 0
M  V30 1804 C 181.574 1.84757 -0.836224 0
M  V30 1805 C 181.907 1.8347 0.636598 0
M  V30 1806 O 181.182 1.27491 1.46889 0
M  V30 1807 C 181.465 3.32782 -1.37578 0
M  V30 1808 C 181.318 3.42567 -2.91493 0
M  V30 1809 C 182.637 4.28307 -1.01198 0
M  V30 1810 H 179.756 0.67082 -0.305236 0
M  V30 1811 H 182.398 1.3278 -1.35903 0
M  V30 1812 H 180.548 3.77177 -0.931097 0
M  V30 1813 H 182.22 3.06862 -3.44432 0
M  V30 1814 H 180.463 2.83349 -3.28475 0
M  V30 1815 H 181.134 4.46674 -3.24324 0
M  V30 1816 H 183.61 3.91999 -1.39556 0
M  V30 1817 H 182.486 5.30307 -1.41653 0
M  V30 1818 H 182.747 4.42029 0.0794833 0
M  V30 1819 N 181.806 0.884767 1.30421 0
M  V30 1820 C 183.083 0.423185 1.90967 0
M  V30 1821 C 183.463 -1.09605 1.80416 0
M  V30 1822 O 182.811 -1.93126 1.22125 0
M  V30 1823 C 183.021 0.921056 3.36627 0
M  V30 1824 C 184.369 0.955903 4.137 0
M  V30 1825 O 185.393 0.867706 3.4547 0
M  V30 1826 O 184.252 1.08614 5.35598 0
M  V30 1827 H 181.346 0.129369 0.816819 0
M  V30 1828 H 183.892 0.973653 1.3899 0
M  V30 1829 H 182.664 1.96489 3.3839 0
M  V30 1830 H 182.287 0.349741 3.96059 0
M  V30 1831 N 183.284 -1.43765 0.645699 0
M  V30 1832 C 184.247 -2.29163 -0.0409488 0
M  V30 1833 C 185.247 -1.41813 -0.757996 0
M  V30 1834 O 186.437 -1.63527 -0.600382 0
M  V30 1835 C 183.569 -3.23716 -1.06869 0
M  V30 1836 H 184.762 -2.91366 0.710345 0
M  V30 1837 H 182.315 -1.5092 0.406547 0
M  V30 1838 H 183.05 -2.66393 -1.84947 0
M  V30 1839 H 182.835 -3.88105 -0.558277 0
M  V30 1840 H 184.325 -3.87831 -1.54845 0
M  V30 1841 N 184.763 -0.387143 -1.52771 0
M  V30 1842 C 185.988 0.198407 -2.06449 0
M  V30 1843 C 186.413 1.39918 -1.25716 0
M  V30 1844 O 185.771 1.79099 -0.281657 0
M  V30 1845 C 185.819 0.548893 -3.56398 0
M  V30 1846 O 184.923 1.64315 -3.78252 0
M  V30 1847 H 184.264 0.0237731 -0.663574 0
M  V30 1848 H 186.794 -0.553989 -1.96957 0
M  V30 1849 H 186.804 0.813812 -3.99801 0
M  V30 1850 H 185.479 -0.329005 -4.14597 0
M  V30 1851 H 184.056 1.37211 -3.46738 0
M  V30 1852 N 186.241 1.57166 -0.116904 0
M  V30 1853 C 187.173 2.12271 0.864507 0
M  V30 1854 C 188.186 1.06494 1.23138 0
M  V30 1855 O 189.375 1.33873 1.18069 0
M  V30 1856 C 186.475 2.60564 2.16702 0
M  V30 1857 C 185.648 3.90416 1.97216 0
M  V30 1858 C 184.707 4.24329 3.11178 0
M  V30 1859 O 183.733 4.93182 2.84184 0
M  V30 1860 N 184.935 3.8148 4.37554 0
M  V30 1861 H 187.7 2.97102 0.393726 0
M  V30 1862 H 185.261 1.61759 0.0675805 0
M  V30 1863 H 187.253 2.80282 2.91932 0
M  V30 1864 H 185.823 1.80623 2.55135 0
M  V30 1865 H 185.043 3.79627 1.06192 0
M  V30 1866 H 186.331 4.75327 1.81499 0
M  V30 1867 H 185.729 3.25943 4.62361 0
M  V30 1868 H 184.286 4.06311 5.09661 0
M  V30 1869 N 187.719 -0.156864 1.56817 0
M  V30 1870 C 188.968 -0.869504 1.81996 0
M  V30 1871 C 189.281 -1.82777 0.696545 0
M  V30 1872 O 190.487 -2.58384 0.833658 0
M  V30 1873 C 188.943 -1.59679 3.22538 0
M  V30 1874 C 188.551 -0.681431 4.42787 0
M  V30 1875 C 190.295 -2.2968 3.56997 0
M  V30 1876 C 188.202 -1.40978 5.74351 0
M  V30 1877 H 187.132 -0.328438 0.678708 0
M  V30 1878 H 189.783 -0.1223 1.83092 0
M  V30 1879 H 188.165 -2.38927 3.158 0
M  V30 1880 H 189.339 0.0751166 4.60739 0
M  V30 1881 H 187.654 -0.0903431 4.16302 0
M  V30 1882 H 190.251 -2.84794 4.52544 0
M  V30 1883 H 190.594 -3.05707 2.82576 0
M  V30 1884 H 191.127 -1.57361 3.65352 0
M  V30 1885 H 187.866 -0.691561 6.51842 0
M  V30 1886 H 187.386 -2.13929 5.60352 0
M  V30 1887 H 189.065 -1.95337 6.16808 0
M  V30 1888 N 189.197 -1.51736 -0.425897 0
M  V30 1889 C 190.425 -1.68794 -1.1965 0
M  V30 1890 C 190.84 -0.390164 -1.84725 0
M  V30 1891 O 190.197 0.632376 -1.71194 0
M  V30 1892 C 190.248 -2.81174 -2.27208 0
M  V30 1893 O 189.969 -4.05925 -1.64793 0
M  V30 1894 C 191.47 -3.09599 -3.17275 0
M  V30 1895 H 188.69 -0.566128 -0.360194 0
M  V30 1896 H 191.234 -1.98211 -0.503249 0
M  V30 1897 H 189.389 -2.54324 -2.9223 0
M  V30 1898 H 189.803 -4.68423 -2.35967 0
M  V30 1899 H 191.277 -3.91786 -3.88854 0
M  V30 1900 H 191.754 -2.22468 -3.78688 0
M  V30 1901 H 192.36 -3.38151 -2.57941 0
M  V30 1902 N 190.675 0.682077 -1.42076 0
M  V30 1903 C 191.923 1.4393 -1.41876 0
M  V30 1904 C 192.244 1.94971 -0.0335599 0
M  V30 1905 O 191.514 1.72591 0.926773 0
M  V30 1906 H 190.094 0.534085 -0.522267 0
M  V30 1907 H 192.756 0.806427 -1.77434 0
M  V30 1908 H 191.852 2.29588 -2.11414 0
M  V30 1909 N 192.153 1.28127 0.917671 0
M  V30 1910 C 193.381 1.17892 1.70026 0
M  V30 1911 C 193.796 -0.262958 1.8696 0
M  V30 1912 O 193.153 -1.17811 1.3938 0
M  V30 1913 C 193.204 1.86872 3.09453 0
M  V30 1914 O 192.925 3.25428 2.93306 0
M  V30 1915 C 194.426 1.8289 4.03815 0
M  V30 1916 H 191.646 0.40942 0.531617 0
M  V30 1917 H 194.19 1.69181 1.14883 0
M  V30 1918 H 192.345 1.39464 3.61426 0
M  V30 1919 H 192.759 3.59918 3.81523 0
M  V30 1920 H 194.233 2.35751 4.99125 0
M  V30 1921 H 194.71 0.800412 4.31845 0
M  V30 1922 H 195.316 2.29959 3.57769 0
M  V30 1923 N 193.631 -1.12557 1.10312 0
M  V30 1924 C 194.88 -1.83395 0.839588 0
M  V30 1925 C 195.193 -1.84939 -0.636929 0
M  V30 1926 O 196.399 -2.51761 -1.01631 0
M  V30 1927 C 194.855 -3.29303 1.45215 0
M  V30 1928 C 194.463 -3.36122 2.96186 0
M  V30 1929 C 196.207 -4.05121 1.26796 0
M  V30 1930 C 194.114 -4.76357 3.50483 0
M  V30 1931 H 193.044 -0.687133 0.310425 0
M  V30 1932 H 195.695 -1.26746 1.32694 0
M  V30 1933 H 194.077 -3.85812 0.892469 0
M  V30 1934 H 195.251 -2.89559 3.58458 0
M  V30 1935 H 193.566 -2.73776 3.13745 0
M  V30 1936 H 196.163 -5.08668 1.64806 0
M  V30 1937 H 196.506 -4.15773 0.209409 0
M  V30 1938 H 197.039 -3.54967 1.79563 0
M  V30 1939 H 193.778 -4.70899 4.55998 0
M  V30 1940 H 193.298 -5.23377 2.92978 0
M  V30 1941 H 194.977 -5.45294 3.48228 0
M  V30 1942 N 195.109 -0.891671 -1.2995 0
M  V30 1943 C 196.334 -0.527932 -2.00568 0
M  V30 1944 C 196.759 0.877969 -1.66353 0
M  V30 1945 O 196.117 1.58301 -0.883762 0
M  V30 1946 C 196.165 -0.717745 -3.53385 0
M  V30 1947 O 195.269 0.233376 -4.11739 0
M  V30 1948 H 194.61 -0.20722 -0.630837 0
M  V30 1949 H 197.14 -1.20105 -1.65638 0
M  V30 1950 H 197.15 -0.619307 -4.03272 0
M  V30 1951 H 195.825 -1.74276 -3.77625 0
M  V30 1952 H 194.402 0.0880706 -3.72796 0
M  V30 1953 N 196.587 1.43421 -0.653314 0
M  V30 1954 C 197.812 2.06678 -0.172846 0
M  V30 1955 C 198.237 1.48648 1.15262 0
M  V30 1956 O 197.595 0.596457 1.71208 0
M  V30 1957 C 197.643 3.60474 -0.0953184 0
M  V30 1958 O 196.747 4.01487 0.942442 0
M  V30 1959 H 196.088 0.657181 -0.0949155 0
M  V30 1960 H 198.618 1.83925 -0.896265 0
M  V30 1961 H 198.628 4.07905 0.0879728 0
M  V30 1962 H 197.303 4.02088 -1.06291 0
M  V30 1963 H 195.88 3.65646 0.731932 0
M  V30 1964 N 198.065 0.39524 1.52563 0
M  V30 1965 C 198.995 -0.428384 2.29537 0
M  V30 1966 C 199.976 -1.05831 1.33169 0
M  V30 1967 O 201.161 -1.06995 1.62067 0
M  V30 1968 C 198.291 -1.55274 3.10656 0
M  V30 1969 C 197.245 -1.04855 4.14957 0
M  V30 1970 C 196.571 -2.26543 4.84337 0
M  V30 1971 C 197.871 -0.112324 5.22179 0
M  V30 1972 H 199.565 0.213867 2.98635 0
M  V30 1973 H 197.111 0.104298 1.43622 0
M  V30 1974 H 199.064 -2.1358 3.63265 0
M  V30 1975 H 197.788 -2.22266 2.39302 0
M  V30 1976 H 196.447 -0.487985 3.63338 0
M  V30 1977 H 196.095 -2.92059 4.09525 0
M  V30 1978 H 195.795 -1.93466 5.54837 0
M  V30 1979 H 197.319 -2.85481 5.39753 0
M  V30 1980 H 198.733 -0.603752 5.70112 0
M  V30 1981 H 197.13 0.128968 5.99961 0
M  V30 1982 H 198.2 0.837052 4.77621 0
M  V30 1983 N 199.544 -1.57102 0.125237 0
M  V30 1984 C 200.454 -2.19191 -0.8362 0
M  V30 1985 C 201.47 -1.16985 -1.28805 0
M  V30 1986 O 202.646 -1.49479 -1.34974 0
M  V30 1987 C 199.711 -2.78407 -2.06617 0
M  V30 1988 C 198.772 -3.9567 -1.66565 0
M  V30 1989 C 198.005 -4.52052 -2.83698 0
M  V30 1990 O 198.228 -4.07326 -3.99302 0
M  V30 1991 O 197.162 -5.42645 -2.60423 0
M  V30 1992 H 200.988 -3.01816 -0.337776 0
M  V30 1993 H 198.573 -1.4906 -0.100695 0
M  V30 1994 H 200.455 -3.16129 -2.7864 0
M  V30 1995 H 199.13 -1.9881 -2.55453 0
M  V30 1996 H 198.037 -3.62705 -0.916296 0
M  V30 1997 H 199.37 -4.76722 -1.22464 0
M  V30 1998 N 201.022 0.148545 -1.56898 0
M  V30 1999 C 202.247 0.880385 -1.87787 0
M  V30 2000 C 202.672 1.74018 -0.714093 0
M  V30 2001 O 202.03 1.78153 0.336343 0
M  V30 2002 C 202.078 1.71422 -3.17249 0
M  V30 2003 O 201.182 2.8183 -3.01074 0
M  V30 2004 H 200.523 0.245301 -0.617028 0
M  V30 2005 H 203.053 0.139826 -2.04122 0
M  V30 2006 H 203.063 2.10954 -3.49231 0
M  V30 2007 H 201.738 1.08284 -4.01556 0
M  V30 2008 H 200.315 2.45715 -2.80497 0
M  V30 2009 N 202.5 1.5196 0.417844 0
M  V30 2010 C 203.747 1.65591 1.16559 0
M  V30 2011 C 204.075 0.381565 1.90721 0
M  V30 2012 O 203.33 -0.635156 1.85106 0
M  V30 2013 C 203.629 2.82269 2.19223 0
M  V30 2014 C 203.295 4.20819 1.61933 0
M  V30 2015 C 201.957 4.58506 1.46033 0
M  V30 2016 C 204.309 5.07196 1.20008 0
M  V30 2017 C 201.637 5.80257 0.867113 0
M  V30 2018 C 203.989 6.29544 0.621086 0
M  V30 2019 C 202.653 6.65987 0.449144 0
M  V30 2020 H 201.923 0.605939 0.42652 0
M  V30 2021 H 204.57 1.86041 0.45397 0
M  V30 2022 H 202.875 2.56118 2.96498 0
M  V30 2023 H 204.572 2.90012 2.76936 0
M  V30 2024 H 201.162 3.91116 1.7529 0
M  V30 2025 H 205.346 4.7867 1.31105 0
M  V30 2026 H 200.602 6.07124 0.721833 0
M  V30 2027 H 204.776 6.95805 0.287798 0
M  V30 2028 H 202.403 7.60199 -0.012632 0
M  V30 2029 N 203.978 -0.674533 1.42435 0
M  V30 2030 C 205.206 -1.46283 1.46317 0
M  V30 2031 C 205.621 -1.88653 0.0745836 0
M  V30 2032 O 204.978 -1.58151 -0.91074 0
M  V30 2033 C 205.029 -2.71178 2.3905 0
M  V30 2034 O 204.75 -2.30586 3.72507 0
M  V30 2035 C 206.251 -3.64738 2.51955 0
M  V30 2036 H 203.471 -0.450104 0.497642 0
M  V30 2037 H 206.015 -0.828792 1.86953 0
M  V30 2038 H 204.17 -3.3077 2.01667 0
M  V30 2039 H 204.584 -3.11241 4.22172 0
M  V30 2040 H 206.058 -4.49096 3.20962 0
M  V30 2041 H 206.535 -4.10656 1.55752 0
M  V30 2042 H 207.141 -3.11038 2.90061 0
M  V30 2043 N 205.456 -1.28612 -0.910864 0
M  V30 2044 C 206.404 -1.1265 -2.03501 0
M  V30 2045 C 207.398 -0.0450054 -1.6934 0
M  V30 2046 O 208.604 -0.203988 -1.7884 0
M  V30 2047 H 204.979 -0.347639 -0.666822 0
M  V30 2048 H 206.95 -2.07849 -2.14106 0
M  V30 2049 C 205.699 -0.808143 -3.38178 0
M  V30 2050 H 205.022 -1.63231 -3.6496 0
M  V30 2051 H 206.462 -0.736426 -4.17556 0
M  V30 2052 C 204.921 0.488226 -3.33344 0
M  V30 2053 O 205.451 1.51766 -3.71927 0
M  V30 2054 N 203.657 0.490009 -2.86439 0
M  V30 2055 H 203.204 -0.348161 -2.55236 0
M  V30 2056 H 203.162 1.35741 -2.83587 0
M  V30 2057 N 206.934 1.1197 -1.10907 0
M  V30 2058 C 208.35 1.35591 -0.841852 0
M  V30 2059 C 208.55 1.94233 0.536246 0
M  V30 2060 O 207.606 2.1717 1.28816 0
M  V30 2061 C 208.919 2.29284 -1.94549 0
M  V30 2062 C 210.467 2.42862 -1.97451 0
M  V30 2063 C 210.942 3.39873 -3.07002 0
M  V30 2064 N 212.433 3.47433 -3.06341 0
M  V30 2065 C 213.168 4.22421 -3.87748 0
M  V30 2066 N 212.664 5.00432 -4.79103 0
M  V30 2067 N 214.457 4.17876 -3.75946 0
M  V30 2068 H 206.608 0.722664 -1.99728 0
M  V30 2069 H 208.871 0.380635 -0.868229 0
M  V30 2070 H 208.577 1.93378 -2.93765 0
M  V30 2071 H 208.451 3.29452 -1.83688 0
M  V30 2072 H 210.838 2.78046 -0.988645 0
M  V30 2073 H 210.919 1.42566 -2.12388 0
M  V30 2074 H 210.563 3.05417 -4.05811 0
M  V30 2075 H 210.493 4.40011 -2.89306 0
M  V30 2076 H 212.984 2.91784 -2.40147 0
M  V30 2077 H 213.297 5.55002 -5.37766 0
M  V30 2078 H 211.642 4.99612 -4.83128 0
M  V30 2079 H 214.833 3.56016 -3.03924 0
M  V30 2080 H 215.006 4.76061 -4.39624 0
M  V30 2081 N 208.412 0.89855 1.29475 0
M  V30 2082 C 209.659 0.523882 1.95606 0
M  V30 2083 C 209.987 -0.929608 1.70847 0
M  V30 2084 O 209.242 -1.67401 1.01367 0
M  V30 2085 C 209.541 0.761398 3.49195 0
M  V30 2086 C 209.207 2.19207 3.94029 0
M  V30 2087 C 207.869 2.58326 4.05982 0
M  V30 2088 C 210.221 3.12379 4.17216 0
M  V30 2089 C 207.549 3.898 4.38489 0
M  V30 2090 C 209.901 4.43401 4.51197 0
M  V30 2091 C 208.565 4.82394 4.61359 0
M  V30 2092 H 207.835 0.191702 0.715773 0
M  V30 2093 H 210.482 1.13699 1.54094 0
M  V30 2094 H 208.787 0.0653622 3.91745 0
M  V30 2095 H 210.484 0.450904 3.98457 0
M  V30 2096 H 207.074 1.87846 3.85242 0
M  V30 2097 H 211.258 2.83371 4.07449 0
M  V30 2098 H 206.514 4.19734 4.44559 0
M  V30 2099 H 210.688 5.15623 4.68087 0
M  V30 2100 H 208.315 5.84306 4.86303 0
M  V30 2101 N 209.89 -1.43072 0.660911 0
M  V30 2102 C 211.12 -2.05769 0.185153 0
M  V30 2103 C 211.528 -1.49668 -1.15742 0
M  V30 2104 O 210.871 -0.625649 -1.72717 0
M  V30 2105 C 210.933 -3.59489 0.0278237 0
M  V30 2106 C 210.597 -4.38212 1.2969 0
M  V30 2107 C 211.594 -4.69772 2.22734 0
M  V30 2108 C 209.279 -4.7809 1.54063 0
M  V30 2109 C 211.273 -5.40129 3.38437 0
M  V30 2110 C 208.96 -5.4819 2.70058 0
M  V30 2111 C 209.958 -5.79132 3.62071 0
M  V30 2112 O 209.646 -6.47798 4.76039 0
M  V30 2113 H 209.378 -0.669873 0.0908086 0
M  V30 2114 H 211.932 -1.84436 0.90402 0
M  V30 2115 H 210.162 -3.79426 -0.746489 0
M  V30 2116 H 211.851 -4.03862 -0.406275 0
M  V30 2117 H 212.617 -4.39476 2.05149 0
M  V30 2118 H 208.496 -4.53408 0.833215 0
M  V30 2119 H 212.04 -5.64198 4.10277 0
M  V30 2120 H 207.937 -5.77902 2.87574 0
M  V30 2121 H 208.705 -6.66283 4.75404 0
M  V30 2122 N 211.368 -0.403325 -1.52352 0
M  V30 2123 C 212.596 0.174012 -2.06167 0
M  V30 2124 C 213.011 1.39347 -1.27388 0
M  V30 2125 O 212.368 1.79597 -0.324201 0
M  V30 2126 C 212.419 0.530223 -3.5759 0
M  V30 2127 O 212.14 -0.640806 -4.33388 0
M  V30 2128 C 213.641 1.16192 -4.27802 0
M  V30 2129 H 210.861 0.0229464 -0.670608 0
M  V30 2130 H 213.405 -0.572604 -1.9632 0
M  V30 2131 H 211.56 1.22673 -3.67464 0
M  V30 2132 H 211.974 -0.344851 -5.23365 0
M  V30 2133 H 213.448 1.36141 -5.34948 0
M  V30 2134 H 213.925 2.13335 -3.83907 0
M  V30 2135 H 214.531 0.505775 -4.22282 0
M  V30 2136 N 212.846 1.57033 -0.133567 0
M  V30 2137 C 214.074 2.00044 0.528195 0
M  V30 2138 C 214.489 1.01349 1.59291 0
M  V30 2139 O 213.846 0.00848369 1.82498 0
M  V30 2140 C 213.897 3.43018 1.1411 0
M  V30 2141 O 213.618 4.37939 0.11892 0
M  V30 2142 C 215.119 4.01237 1.88477 0
M  V30 2143 H 212.339 0.656517 0.138661 0
M  V30 2144 H 214.883 2.03267 -0.224196 0
M  V30 2145 H 213.038 3.40688 1.84418 0
M  V30 2146 H 213.452 5.21436 0.56613 0
M  V30 2147 H 214.926 5.03314 2.26669 0
M  V30 2148 H 215.403 3.41193 2.76558 0
M  V30 2149 H 216.009 4.07156 1.22898 0
M  V30 2150 N 214.325 -0.140222 1.56975 0
M  V30 2151 C 215.553 -0.866437 1.87884 0
M  V30 2152 C 215.968 -1.74428 0.722517 0
M  V30 2153 O 215.325 -1.79891 -0.30749 0
M  V30 2154 C 215.376 -1.71753 3.18093 0
M  V30 2155 O 215.097 -0.875056 4.29272 0
M  V30 2156 C 216.598 -2.55074 3.62563 0
M  V30 2157 H 213.818 -0.25019 0.622612 0
M  V30 2158 H 216.362 -0.130977 2.0408 0
M  V30 2159 H 214.517 -2.40598 3.03631 0
M  V30 2160 H 214.931 -1.46002 5.03769 0
M  V30 2161 H 216.405 -3.10356 4.5649 0
M  V30 2162 H 216.882 -3.31434 2.88181 0
M  V30 2163 H 217.488 -1.91509 3.79743 0
M  V30 2164 N 215.803 -1.52179 -0.40978 0
M  V30 2165 C 217.028 -1.70347 -1.18308 0
M  V30 2166 C 217.453 -0.411887 -1.83535 0
M  V30 2167 O 216.811 0.630587 -1.6998 0
M  V30 2168 C 216.859 -2.83977 -2.22238 0
M  V30 2169 O 215.963 -2.495 -3.28365 0
M  V30 2170 H 215.304 -0.567103 -0.345384 0
M  V30 2171 H 217.834 -1.98879 -0.480445 0
M  V30 2172 H 217.844 -3.0887 -2.66577 0
M  V30 2173 H 216.519 -3.77685 -1.74146 0
M  V30 2174 H 215.096 -2.35277 -2.89308 0
M  V30 2175 N 217.281 0.66697 -1.42791 0
M  V30 2176 C 218.529 1.42417 -1.43394 0
M  V30 2177 C 218.85 1.94925 -0.0542373 0
M  V30 2178 O 218.12 1.73564 0.908415 0
M  V30 2179 H 216.7 0.528515 -0.527902 0
M  V30 2180 H 219.362 0.787562 -1.78279 0
M  V30 2181 H 218.458 2.27333 -2.13837 0
M  V30 2182 N 218.759 1.29093 0.90403 0
M  V30 2183 C 219.722 1.1386 1.98919 0
M  V30 2184 C 220.722 0.0753457 1.60623 0
M  V30 2185 O 221.912 0.321931 1.71199 0
M  V30 2186 C 219.044 0.740198 3.32767 0
M  V30 2187 H 220.237 2.10246 2.13861 0
M  V30 2188 H 217.79 1.12218 1.08797 0
M  V30 2189 H 218.525 -0.223997 3.23525 0
M  V30 2190 H 218.31 1.50838 3.61926 0
M  V30 2191 H 219.8 0.656546 4.12407 0
M  V30 2192 N 220.237 -1.11381 1.11499 0
M  V30 2193 C 221.169 -2.17207 0.731704 0
M  V30 2194 C 222.182 -1.61066 -0.236957 0
M  V30 2195 O 223.371 -1.78489 -0.0197591 0
M  V30 2196 C 220.471 -3.38846 0.0607624 0
M  V30 2197 C 219.644 -4.24451 1.0564 0
M  V30 2198 C 218.703 -5.24562 0.4149 0
M  V30 2199 O 217.729 -5.59071 1.069 0
M  V30 2200 N 218.931 -5.74651 -0.821943 0
M  V30 2201 H 221.696 -2.50699 1.64225 0
M  V30 2202 H 219.257 -1.26908 1.00529 0
M  V30 2203 H 221.249 -4.02911 -0.380139 0
M  V30 2204 H 219.819 -3.03411 -0.752376 0
M  V30 2205 H 219.039 -3.56833 1.67524 0
M  V30 2206 H 220.327 -4.78486 1.72998 0
M  V30 2207 H 219.725 -5.48797 -1.37252 0
M  V30 2208 H 218.282 -6.40549 -1.20582 0
M  V30 2209 N 221.715 -0.905404 -1.28997 0
M  V30 2210 C 222.678 -0.392253 -2.25819 0
M  V30 2211 C 223.678 0.476753 -1.5357 0
M  V30 2212 O 224.868 0.280994 -1.71919 0
M  V30 2213 C 222 0.438588 -3.38067 0
M  V30 2214 H 223.193 -1.24743 -2.72725 0
M  V30 2215 H 220.746 -0.684051 -1.40536 0
M  V30 2216 H 221.481 1.31352 -2.96508 0
M  V30 2217 H 221.266 -0.184167 -3.91667 0
M  V30 2218 H 222.756 0.78873 -4.10084 0
M  V30 2219 N 223.193 1.4272 -0.668489 0
M  V30 2220 C 224.418 2.06484 -0.194758 0
M  V30 2221 C 224.843 1.49862 1.13679 0
M  V30 2222 O 224.201 0.614582 1.70565 0
M  V30 2223 C 224.249 3.60353 -0.133546 0
M  V30 2224 O 223.353 4.02464 0.899806 0
M  V30 2225 H 222.694 0.656137 -0.10188 0
M  V30 2226 H 225.224 1.82964 -0.915722 0
M  V30 2227 H 225.234 4.07976 0.0447041 0
M  V30 2228 H 223.909 4.00938 -1.1055 0
M  V30 2229 H 222.486 3.66402 0.693109 0
M  V30 2230 N 224.671 0.411399 1.52136 0
M  V30 2231 C 225.948 -0.222308 1.94333 0
M  V30 2232 C 226.328 -1.6242 1.34844 0
M  V30 2233 O 225.676 -2.22384 0.525145 0
M  V30 2234 C 225.886 -0.226345 3.48265 0
M  V30 2235 C 227.234 -0.444592 4.22266 0
M  V30 2236 O 228.258 -0.305602 3.54887 0
M  V30 2237 O 227.117 -0.718749 5.41753 0
M  V30 2238 H 224.211 -0.143907 0.814383 0
M  V30 2239 H 226.757 0.467506 1.63133 0
M  V30 2240 H 225.529 0.75475 3.83952 0
M  V30 2241 H 225.152 -0.960163 3.85832 0
M  V30 2242 N 226.149 -1.5696 0.141893 0
M  V30 2243 C 227.395 -1.97034 -0.504884 0
M  V30 2244 C 227.75 -1.02518 -1.62812 0
M  V30 2245 O 227.043 -0.0592943 -1.91508 0
M  V30 2246 C 227.237 -3.41242 -1.06249 0
M  V30 2247 C 227.066 -4.497 0.00519653 0
M  V30 2248 C 225.836 -5.03338 0.444873 0
M  V30 2249 C 228.034 -5.08122 0.794767 0
M  V30 2250 N 226.016 -5.95395 1.49593 0
M  V30 2251 C 227.387 -5.96339 1.69645 0
M  V30 2252 C 229.442 -4.9071 0.843122 0
M  V30 2253 C 228.145 -6.69009 2.64233 0
M  V30 2254 C 230.171 -5.64077 1.77681 0
M  V30 2255 C 229.533 -6.51999 2.66603 0
M  V30 2256 H 225.632 -0.766745 -0.153707 0
M  V30 2257 H 228.216 -1.93273 0.235313 0
M  V30 2258 H 226.387 -3.45606 -1.77231 0
M  V30 2259 H 228.119 -3.68389 -1.67546 0
M  V30 2260 H 224.874 -4.73576 0.0480959 0
M  V30 2261 H 225.298 -6.46128 2.02107 0
M  V30 2262 H 229.94 -4.22459 0.169732 0
M  V30 2263 H 227.658 -7.36492 3.32575 0
M  V30 2264 H 231.244 -5.52602 1.81996 0
M  V30 2265 H 230.124 -7.07775 3.37675 0
M  V30 2266 N 227.627 0.131896 -1.57047 0
M  V30 2267 C 228.876 0.84044 -1.83356 0
M  V30 2268 C 229.189 1.81646 -0.725535 0
M  V30 2269 O 230.395 2.57025 -0.874659 0
M  V30 2270 C 228.851 1.54528 -3.25037 0
M  V30 2271 C 228.459 0.610902 -4.43815 0
M  V30 2272 C 230.203 2.23972 -3.60606 0
M  V30 2273 C 228.11 1.31823 -5.76521 0
M  V30 2274 H 227.04 0.317599 -0.683847 0
M  V30 2275 H 229.691 0.0931561 -1.83263 0
M  V30 2276 H 228.073 2.33873 -3.19561 0
M  V30 2277 H 229.247 -0.148407 -4.60561 0
M  V30 2278 H 227.562 0.0241016 -4.16393 0
M  V30 2279 H 230.159 2.77558 -4.57018 0
M  V30 2280 H 230.502 3.01173 -2.87403 0
M  V30 2281 H 231.035 1.51529 -3.6781 0
M  V30 2282 H 227.774 0.587771 -6.52859 0
M  V30 2283 H 227.294 2.04987 -5.63685 0
M  V30 2284 H 228.973 1.855 -6.19838 0
M  V30 2285 N 229.106 1.52395 0.401703 0
M  V30 2286 C 230.069 1.75636 1.47257 0
M  V30 2287 C 231.069 0.62628 1.48103 0
M  V30 2288 O 232.259 0.894227 1.49497 0
M  V30 2289 C 229.391 1.84553 2.86624 0
M  V30 2290 H 230.584 2.71241 1.27938 0
M  V30 2291 H 228.137 1.42923 0.632662 0
M  V30 2292 H 228.872 0.908882 3.11303 0
M  V30 2293 H 228.657 2.66715 2.87412 0
M  V30 2294 H 230.147 2.04251 3.64241 0
M  V30 2295 N 230.584 -0.659388 1.43143 0
M  V30 2296 C 231.809 -1.45221 1.48073 0
M  V30 2297 C 232.234 -1.87845 0.097995 0
M  V30 2298 O 231.592 -1.56985 -0.90694 0
M  V30 2299 C 231.64 -2.66748 2.42647 0
M  V30 2300 O 230.744 -3.65583 1.90848 0
M  V30 2301 H 230.085 -0.435669 0.501088 0
M  V30 2302 H 232.615 -0.807432 1.87994 0
M  V30 2303 H 232.625 -3.14637 2.59745 0
M  V30 2304 H 231.3 -2.35067 3.43098 0
M  V30 2305 H 229.877 -3.24693 1.83381 0
M  V30 2306 N 232.062 -1.29571 -0.897171 0
M  V30 2307 C 232.972 -1.16808 -2.03453 0
M  V30 2308 C 233.988 -0.0907471 -1.73763 0
M  V30 2309 O 235.164 -0.303312 -1.99103 0
M  V30 2310 C 232.229 -0.848264 -3.36163 0
M  V30 2311 C 231.29 -2.0097 -3.79354 0
M  V30 2312 C 230.523 -1.70505 -5.05731 0
M  V30 2313 O 230.746 -0.62718 -5.66941 0
M  V30 2314 O 229.68 -2.5538 -5.45036 0
M  V30 2315 H 233.506 -2.12325 -2.17144 0
M  V30 2316 H 231.091 -1.09047 -1.02123 0
M  V30 2317 H 232.973 -0.684581 -4.15802 0
M  V30 2318 H 231.648 0.0771071 -3.23608 0
M  V30 2319 H 230.555 -2.22863 -3.00471 0
M  V30 2320 H 231.888 -2.91636 -3.96496 0
M  V30 2321 N 233.54 1.10788 -1.12088 0
M  V30 2322 C 234.786 1.8313 -0.885148 0
M  V30 2323 C 235.141 1.8336 0.582839 0
M  V30 2324 O 234.434 1.28062 1.42516 0
M  V30 2325 C 234.628 3.29294 -1.38926 0
M  V30 2326 C 234.457 3.43302 -2.90472 0
M  V30 2327 C 233.227 3.55928 -3.58669 0
M  V30 2328 C 235.425 3.37014 -3.88492 0
M  V30 2329 N 233.407 3.58475 -4.98366 0
M  V30 2330 C 234.778 3.46263 -5.14298 0
M  V30 2331 C 236.833 3.20589 -3.80955 0
M  V30 2332 C 235.536 3.4078 -6.33452 0
M  V30 2333 C 237.562 3.16427 -4.99628 0
M  V30 2334 C 236.924 3.26253 -6.2429 0
M  V30 2335 H 233.023 0.685054 -0.377128 0
M  V30 2336 H 235.607 1.3251 -1.4265 0
M  V30 2337 H 233.778 3.78416 -0.874999 0
M  V30 2338 H 235.51 3.89578 -1.09596 0
M  V30 2339 H 232.265 3.58779 -3.09151 0
M  V30 2340 H 232.689 3.6337 -5.71219 0
M  V30 2341 H 237.331 3.11873 -2.85474 0
M  V30 2342 H 235.049 3.48263 -7.29204 0
M  V30 2343 H 238.635 3.04874 -4.95523 0
M  V30 2344 H 237.515 3.2303 -7.14578 0
M  V30 2345 N 235.018 0.912232 1.28515 0
M  V30 2346 C 235.95 0.35676 2.26406 0
M  V30 2347 C 236.963 -0.503933 1.54804 0
M  V30 2348 O 238.152 -0.319059 1.75625 0
M  V30 2349 C 235.252 -0.508825 3.35058 0
M  V30 2350 C 234.425 0.329007 4.36161 0
M  V30 2351 C 233.484 -0.471422 5.24084 0
M  V30 2352 O 232.51 0.115482 5.69083 0
M  V30 2353 N 233.712 -1.77479 5.52704 0
M  V30 2354 H 236.477 1.19818 2.74707 0
M  V30 2355 H 234.038 0.778022 1.4198 0
M  V30 2356 H 236.03 -1.051 3.90815 0
M  V30 2357 H 234.6 -1.25095 2.86478 0
M  V30 2358 H 233.82 1.05256 3.79888 0
M  V30 2359 H 235.108 0.90234 5.00735 0
M  V30 2360 H 234.506 -2.27417 5.17975 0
M  V30 2361 H 233.063 -2.26382 6.11224 0
M  V30 2362 N 236.496 -1.42363 0.676048 0
M  V30 2363 C 237.459 -2.29199 0.00766941 0
M  V30 2364 C 238.459 -1.43389 -0.727745 0
M  V30 2365 O 239.649 -1.64764 -0.56556 0
M  V30 2366 C 236.781 -3.2591 -0.999785 0
M  V30 2367 H 237.974 -2.89794 0.771988 0
M  V30 2368 H 235.527 -1.50024 0.438468 0
M  V30 2369 H 236.262 -2.70256 -1.79255 0
M  V30 2370 H 236.047 -3.89202 -0.475829 0
M  V30 2371 H 237.537 -3.91028 -1.46583 0
M  V30 2372 N 237.974 -0.419461 -1.51915 0
M  V30 2373 C 238.904 0.391813 -2.30189 0
M  V30 2374 C 239.885 1.03699 -1.34836 0
M  V30 2375 O 241.07 1.04403 -1.63748 0
M  V30 2376 C 238.2 1.50312 -3.13087 0
M  V30 2377 C 237.154 0.9824 -4.16573 0
M  V30 2378 C 236.48 2.18809 -4.8788 0
M  V30 2379 C 237.78 0.0292356 -5.22292 0
M  V30 2380 H 239.474 -0.26135 -2.98257 0
M  V30 2381 H 237.02 -0.127134 -1.43438 0
M  V30 2382 H 238.973 2.07773 -3.66617 0
M  V30 2383 H 237.697 2.18431 -2.42807 0
M  V30 2384 H 236.356 0.430119 -3.64068 0
M  V30 2385 H 236.004 2.85507 -4.14119 0
M  V30 2386 H 235.704 1.84615 -5.57845 0
M  V30 2387 H 237.228 2.76858 -5.44226 0
M  V30 2388 H 238.642 0.512976 -5.71 0
M  V30 2389 H 237.039 -0.2244 -5.9968 0
M  V30 2390 H 238.109 -0.912931 -4.76228 0
M  V30 2391 N 239.452 1.56882 -0.150215 0
M  V30 2392 C 240.677 2.01027 0.510184 0
M  V30 2393 C 241.102 1.02966 1.57415 0
M  V30 2394 O 240.46 0.00590158 1.81299 0
M  V30 2395 C 240.508 3.43899 1.08472 0
M  V30 2396 O 239.612 3.4885 2.19948 0
M  V30 2397 H 238.953 0.652233 0.124451 0
M  V30 2398 H 241.483 2.03093 -0.247894 0
M  V30 2399 H 241.493 3.82766 1.41259 0
M  V30 2400 H 240.168 4.14776 0.305582 0
M  V30 2401 H 238.745 3.21827 1.88366 0
M  V30 2402 N 240.93 -0.123565 1.57115 0
M  V30 2403 C 241.893 -1.13583 1.99076 0
M  V30 2404 C 242.893 -1.34564 0.880296 0
M  V30 2405 O 244.083 -1.31158 1.14644 0
M  V30 2406 C 241.215 -2.49128 2.32698 0
M  V30 2407 H 242.408 -0.775287 2.89706 0
M  V30 2408 H 239.961 -0.36771 1.51913 0
M  V30 2409 H 240.696 -2.90111 1.44934 0
M  V30 2410 H 240.481 -2.35255 3.13684 0
M  V30 2411 H 241.971 -3.2199 2.65918 0
M  V30 2412 N 242.408 -1.52605 -0.393616 0
M  V30 2413 C 243.633 -1.71592 -1.16495 0
M  V30 2414 C 244.058 -0.43133 -1.83088 0
M  V30 2415 O 243.416 0.612523 -1.7064 0
M  V30 2416 C 243.464 -2.86318 -2.19213 0
M  V30 2417 O 242.568 -2.52969 -3.257 0
M  V30 2418 H 241.909 -0.570734 -0.33935 0
M  V30 2419 H 244.439 -1.99377 -0.459324 0
M  V30 2420 H 244.449 -3.1168 -2.63286 0
M  V30 2421 H 243.124 -3.79511 -1.7013 0
M  V30 2422 H 241.701 -2.38332 -2.86797 0
M  V30 2423 N 243.887 0.651787 -1.4349 0
M  V30 2424 C 244.817 1.77621 -1.51569 0
M  V30 2425 C 245.798 1.66022 -0.370253 0
M  V30 2426 O 246.983 1.85095 -0.587658 0
M  V30 2427 C 244.113 3.16056 -1.43966 0
M  V30 2428 C 243.067 3.4242 -2.56774 0
M  V30 2429 C 242.393 4.8067 -2.34223 0
M  V30 2430 C 243.693 3.37023 -3.99015 0
M  V30 2431 H 245.387 1.71117 -2.45681 0
M  V30 2432 H 242.933 0.821825 -1.18246 0
M  V30 2433 H 244.886 3.94472 -1.48221 0
M  V30 2434 H 243.61 3.23293 -0.463586 0
M  V30 2435 H 242.269 2.66375 -2.51873 0
M  V30 2436 H 241.917 4.84585 -1.34856 0
M  V30 2437 H 241.617 4.9927 -3.09844 0
M  V30 2438 H 243.141 5.61342 -2.40265 0
M  V30 2439 H 244.555 4.05374 -4.05395 0
M  V30 2440 H 242.952 3.67159 -4.74673 0
M  V30 2441 H 244.022 2.3518 -4.2405 0
M  V30 2442 N 245.365 1.30045 0.890287 0
M  V30 2443 C 246.776 1.16738 1.45702 0
M  V30 2444 C 247.127 -0.233939 1.948 0
M  V30 2445 O 246.252 -1.13021 1.84541 0
M  V30 2446 C 246.847 2.11313 2.64825 0
M  V30 2447 C 245.406 2.02001 3.17604 0
M  V30 2448 C 244.553 2.01699 1.90296 0
M  V30 2449 H 247.504 1.42392 0.700726 0
M  V30 2450 H 247.525 1.69086 3.40867 0
M  V30 2451 H 247.037 3.13294 2.2906 0
M  V30 2452 H 245.138 1.03142 3.5804 0
M  V30 2453 H 245.251 2.90128 3.81264 0
M  V30 2454 H 243.615 1.46427 2.08402 0
M  V30 2455 H 244.398 3.05402 1.56795 0
M  V30 2456 N 246.843 -1.10192 1.12674 0
M  V30 2457 C 247.791 -2.18694 0.792196 0
M  V30 2458 C 248.785 -1.67938 -0.222058 0
M  V30 2459 O 249.991 -1.79822 -0.0800074 0
M  V30 2460 H 246.366 -0.713223 0.238364 0
M  V30 2461 H 248.337 -2.44149 1.71564 0
M  V30 2462 C 247.086 -3.46682 0.265859 0
M  V30 2463 H 246.409 -3.86101 1.03761 0
M  V30 2464 H 247.849 -4.23942 0.0701128 0
M  V30 2465 C 246.308 -3.21506 -1.00675 0
M  V30 2466 O 246.838 -3.43408 -2.08408 0
M  V30 2467 N 245.044 -2.75158 -0.934692 0
M  V30 2468 H 244.591 -2.57535 -0.0578604 0
M  V30 2469 H 244.549 -2.58691 -1.7868 0
M  V30 2470 N 248.321 -0.919034 -1.28029 0
M  V30 2471 C 249.284 -0.416182 -2.2539 0
M  V30 2472 C 250.284 0.460438 -1.54067 0
M  V30 2473 O 251.474 0.262744 -1.72207 0
M  V30 2474 C 248.606 0.402707 -3.38513 0
M  V30 2475 H 249.799 -1.27629 -2.71387 0
M  V30 2476 H 247.352 -0.698919 -1.39803 0
M  V30 2477 H 248.087 1.282 -2.97885 0
M  V30 2478 H 247.872 -0.225698 -3.9145 0
M  V30 2479 H 249.362 0.745191 -4.10897 0
M  V30 2480 N 249.799 1.42003 -0.683588 0
M  V30 2481 C 251.024 2.06265 -0.216647 0
M  V30 2482 C 251.449 1.51059 1.12083 0
M  V30 2483 O 250.807 0.632638 1.69904 0
M  V30 2484 C 250.855 3.60191 -0.171759 0
M  V30 2485 O 249.959 4.03396 0.857069 0
M  V30 2486 H 249.3 0.65502 -0.108834 0
M  V30 2487 H 251.83 1.81982 -0.935077 0
M  V30 2488 H 251.84 4.08 0.0014303 0
M  V30 2489 H 250.515 3.99743 -1.14796 0
M  V30 2490 H 249.092 3.67117 0.654208 0
M  V30 2491 N 251.277 0.427512 1.51691 0
M  V30 2492 C 252.523 -0.142439 2.02299 0
M  V30 2493 C 252.856 -1.43214 1.31162 0
M  V30 2494 O 252.131 -1.89833 0.423511 0
M  V30 2495 C 252.414 -0.371301 3.58181 0
M  V30 2496 C 252.267 0.936358 4.39946 0
M  V30 2497 C 253.586 -1.14542 4.24933 0
M  V30 2498 H 250.705 -0.0502937 0.735282 0
M  V30 2499 H 253.347 0.564584 1.81418 0
M  V30 2500 H 251.497 -0.973559 3.76104 0
M  V30 2501 H 253.169 1.57184 4.33694 0
M  V30 2502 H 251.412 1.5432 4.05423 0
M  V30 2503 H 252.083 0.730388 5.47147 0
M  V30 2504 H 254.559 -0.635362 4.11221 0
M  V30 2505 H 253.435 -1.27431 5.33903 0
M  V30 2506 H 253.696 -2.17093 3.85127 0
M  V30 2507 N 252.755 -1.56801 0.158532 0
M  V30 2508 C 253.702 -2.17337 -0.776729 0
M  V30 2509 C 254.672 -1.1096 -1.23601 0
M  V30 2510 O 255.857 -1.39054 -1.30647 0
M  V30 2511 C 252.997 -2.80822 -2.00582 0
M  V30 2512 C 252.11 -4.01624 -1.59129 0
M  V30 2513 C 251.245 -4.53072 -2.77306 0
M  V30 2514 C 250.284 -5.66314 -2.32282 0
M  V30 2515 N 249.421 -6.12329 -3.43508 0
M  V30 2516 H 254.261 -2.96918 -0.253701 0
M  V30 2517 H 251.798 -1.46661 -0.113504 0
M  V30 2518 H 253.756 -3.15779 -2.72652 0
M  V30 2519 H 252.386 -2.03866 -2.50277 0
M  V30 2520 H 251.438 -3.72571 -0.767806 0
M  V30 2521 H 252.75 -4.83633 -1.2207 0
M  V30 2522 H 251.904 -4.90145 -3.57551 0
M  V30 2523 H 250.643 -3.70095 -3.17617 0
M  V30 2524 H 249.648 -5.28806 -1.5048 0
M  V30 2525 H 250.873 -6.51085 -1.93043 0
M  V30 2526 H 248.819 -5.32284 -3.83418 0
M  V30 2527 H 248.736 -6.89293 -3.105 0
M  V30 2528 H 250.004 -6.5405 -4.24075 0
M  V30 2529 N 254.233 0.115231 -1.57178 0
M  V30 2530 C 255.165 1.16694 -1.97269 0
M  V30 2531 C 256.178 1.37445 -0.872502 0
M  V30 2532 O 257.367 1.36454 -1.15077 0
M  V30 2533 C 254.467 2.52627 -2.25905 0
M  V30 2534 C 253.64 2.52427 -3.57211 0
M  V30 2535 C 252.699 3.70134 -3.74016 0
M  V30 2536 O 251.725 3.53546 -4.46087 0
M  V30 2537 N 252.927 4.88844 -3.13068 0
M  V30 2538 H 255.692 0.82588 -2.88096 0
M  V30 2539 H 253.253 0.304461 -1.59011 0
M  V30 2540 H 255.245 3.29937 -2.34359 0
M  V30 2541 H 253.815 2.789 -1.41186 0
M  V30 2542 H 253.035 1.60805 -3.5991 0
M  V30 2543 H 254.323 2.49353 -4.43509 0
M  V30 2544 H 253.721 5.05225 -2.54489 0
M  V30 2545 H 252.278 5.63817 -3.27037 0
M  V30 2546 N 255.711 1.52812 0.385517 0
M  V30 2547 C 256.957 1.68275 1.13188 0
M  V30 2548 C 257.29 0.423179 1.89533 0
M  V30 2549 O 256.565 -0.579113 1.85679 0
M  V30 2550 C 256.848 2.92001 2.1073 0
M  V30 2551 C 256.701 4.28067 1.38125 0
M  V30 2552 C 258.02 3.11283 3.11113 0
M  V30 2553 H 255.139 0.612352 0.410115 0
M  V30 2554 H 257.781 1.85415 0.414869 0
M  V30 2555 H 255.931 2.77519 2.71874 0
M  V30 2556 H 257.603 4.54324 0.799187 0
M  V30 2557 H 255.846 4.28388 0.683092 0
M  V30 2558 H 256.517 5.10733 2.09417 0
M  V30 2559 H 258.993 3.2482 2.6006 0
M  V30 2560 H 257.869 3.99325 3.76605 0
M  V30 2561 H 258.13 2.25656 3.80173 0
M  V30 2562 N 257.189 -0.644168 1.43834 0
M  V30 2563 C 258.414 -1.43642 1.49605 0
M  V30 2564 C 258.839 -1.8773 0.117913 0
M  V30 2565 O 258.197 -1.57938 -0.890239 0
M  V30 2566 C 258.245 -2.6416 2.45463 0
M  V30 2567 O 257.349 -3.63538 1.94714 0
M  V30 2568 H 256.69 -0.430329 0.50568 0
M  V30 2569 H 259.22 -0.787448 1.8884 0
M  V30 2570 H 259.23 -3.11864 2.63068 0
M  V30 2571 H 257.905 -2.31414 3.45572 0
M  V30 2572 H 256.482 -3.2273 1.86814 0
M  V30 2573 N 258.668 -1.30515 -0.883378 0
M  V30 2574 C 259.618 -1.13641 -1.9766 0
M  V30 2575 C 260.602 -0.0511314 -1.60819 0
M  V30 2576 O 261.794 -0.274623 -1.74857 0
M  V30 2577 C 258.923 -0.831976 -3.33066 0
M  V30 2578 C 258.009 -1.95759 -3.76217 0
M  V30 2579 N 258.4 -3.20313 -3.9145 0
M  V30 2580 C 256.698 -1.85431 -4.05625 0
M  V30 2581 C 257.399 -3.93856 -4.2808 0
M  V30 2582 N 256.375 -3.21919 -4.38029 0
M  V30 2583 H 260.177 -2.08106 -2.07531 0
M  V30 2584 H 257.691 -1.21877 -1.0733 0
M  V30 2585 H 259.688 -0.692102 -4.11115 0
M  V30 2586 H 258.348 0.104588 -3.24532 0
M  V30 2587 H 259.359 -3.55583 -3.76538 0
M  V30 2588 H 256.036 -0.991531 -4.05555 0
M  V30 2589 H 257.426 -5.01125 -4.47575 0
M  V30 2590 N 260.146 1.09593 -1.13257 0
M  V30 2591 C 261.371 1.8604 -0.916732 0
M  V30 2592 C 261.796 1.80504 0.529146 0
M  V30 2593 O 261.154 1.18127 1.37534 0
M  V30 2594 C 261.202 3.32017 -1.40703 0
M  V30 2595 O 260.306 4.08141 -0.591153 0
M  V30 2596 H 259.647 0.576943 -0.328683 0
M  V30 2597 H 262.177 1.38405 -1.50682 0
M  V30 2598 H 262.187 3.82865 -1.4099 0
M  V30 2599 H 260.862 3.35361 -2.45979 0
M  V30 2600 H 259.439 3.67084 -0.656005 0
M  V30 2601 N 261.624 0.925811 1.2754 0
M  V30 2602 C 262.872 0.564138 1.94067 0
M  V30 2603 C 263.193 -0.897188 1.73134 0
M  V30 2604 O 262.463 -1.63573 1.07799 0
M  V30 2605 H 261.043 0.205645 0.718136 0
M  V30 2606 H 263.705 1.1778 1.55287 0
M  V30 2607 H 262.801 0.76881 3.02483 0
M  V30 2608 N 263.102 -1.41638 0.69111 0
M  V30 2609 C 264.332 -2.0533 0.228758 0
M  V30 2610 C 264.74 -1.52089 -1.12541 0
M  V30 2611 O 264.083 -0.662145 -1.71351 0
M  V30 2612 C 264.145 -3.59349 0.10407 0
M  V30 2613 C 263.809 -4.35362 1.38956 0
M  V30 2614 C 264.806 -4.64942 2.32648 0
M  V30 2615 C 262.491 -4.74714 1.64169 0
M  V30 2616 C 264.485 -5.32828 3.49818 0
M  V30 2617 C 262.172 -5.42338 2.81625 0
M  V30 2618 C 263.17 -5.71322 3.74273 0
M  V30 2619 O 262.858 -6.37554 4.89673 0
M  V30 2620 H 262.59 -0.667796 0.104997 0
M  V30 2621 H 265.144 -1.82477 0.942938 0
M  V30 2622 H 263.374 -3.80924 -0.665839 0
M  V30 2623 H 265.063 -4.04633 -0.320519 0
M  V30 2624 H 265.829 -4.35025 2.14425 0
M  V30 2625 H 261.708 -4.51538 0.929202 0
M  V30 2626 H 265.252 -5.55368 4.22152 0
M  V30 2627 H 261.149 -5.71673 2.99768 0
M  V30 2628 H 261.917 -6.56049 4.8943 0
M  V30 2629 N 264.58 -0.43555 -1.51462 0
M  V30 2630 C 265.528 0.391205 -2.29287 0
M  V30 2631 C 266.522 1.02247 -1.35062 0
M  V30 2632 O 267.728 0.957646 -1.52411 0
M  V30 2633 H 264.103 0.144968 -0.737895 0
M  V30 2634 H 266.074 -0.286051 -2.97026 0
M  V30 2635 C 264.823 1.48096 -3.14583 0
M  V30 2636 H 264.146 1.00457 -3.86973 0
M  V30 2637 H 265.586 2.03273 -3.72097 0
M  V30 2638 C 264.045 2.46321 -2.29843 0
M  V30 2639 O 264.575 3.50815 -1.95682 0
M  V30 2640 N 262.781 2.17166 -1.931 0
M  V30 2641 H 262.328 1.32218 -2.21079 0
M  V30 2642 H 262.286 2.83127 -1.36698 0
M  V30 2643 N 266.058 1.56714 -0.166846 0
M  V30 2644 C 266.99 2.14914 0.796537 0
M  V30 2645 C 268.003 1.10357 1.19688 0
M  V30 2646 O 269.192 1.37561 1.13751 0
M  V30 2647 C 266.292 2.67326 2.08303 0
M  V30 2648 C 265.465 3.96493 1.84696 0
M  V30 2649 C 264.524 4.34014 2.97521 0
M  V30 2650 O 263.55 5.01973 2.6835 0
M  V30 2651 N 264.752 3.95208 4.25196 0
M  V30 2652 H 267.517 2.98205 0.299006 0
M  V30 2653 H 265.078 1.61892 0.0160839 0
M  V30 2654 H 267.07 2.89428 2.82867 0
M  V30 2655 H 265.64 1.88649 2.4926 0
M  V30 2656 H 264.86 3.82814 0.940602 0
M  V30 2657 H 266.148 4.8086 1.66285 0
M  V30 2658 H 265.546 3.40487 4.51758 0
M  V30 2659 H 264.103 4.2232 4.96477 0
M  V30 2660 N 267.536 -0.106894 1.57237 0
M  V30 2661 C 268.483 -1.13049 2.01217 0
M  V30 2662 C 269.453 -1.40471 0.886403 0
M  V30 2663 O 270.638 -1.52133 1.15153 0
M  V30 2664 C 267.778 -2.4487 2.43172 0
M  V30 2665 C 266.891 -2.24281 3.69218 0
M  V30 2666 C 266.026 -3.49417 4.00101 0
M  V30 2667 C 265.065 -3.24038 5.19294 0
M  V30 2668 N 264.202 -4.41409 5.45988 0
M  V30 2669 H 269.042 -0.748456 2.88448 0
M  V30 2670 H 266.579 -0.358054 1.42676 0
M  V30 2671 H 268.537 -3.21786 2.65537 0
M  V30 2672 H 267.167 -2.80944 1.58967 0
M  V30 2673 H 266.219 -1.38224 3.54398 0
M  V30 2674 H 267.531 -2.01512 4.56283 0
M  V30 2675 H 266.685 -4.34746 4.2318 0
M  V30 2676 H 265.424 -3.75229 3.11535 0
M  V30 2677 H 264.429 -2.37102 4.96047 0
M  V30 2678 H 265.654 -2.99584 6.09447 0
M  V30 2679 H 263.6 -4.67319 4.60379 0
M  V30 2680 H 263.517 -4.21788 6.274 0
M  V30 2681 H 264.785 -5.27836 5.73593 0
M  V30 2682 N 269.014 -1.53014 -0.377408 0
M  V30 2683 C 270.239 -1.72818 -1.14668 0
M  V30 2684 C 270.664 -0.450725 -1.8262 0
M  V30 2685 O 270.022 0.59439 -1.7128 0
M  V30 2686 C 270.07 -2.88627 -2.16164 0
M  V30 2687 O 269.174 -2.56409 -3.22998 0
M  V30 2688 H 268.515 -0.574301 -0.333278 0
M  V30 2689 H 271.045 -1.99853 -0.438152 0
M  V30 2690 H 271.055 -3.14455 -2.59966 0
M  V30 2691 H 269.73 -3.81294 -1.66095 0
M  V30 2692 H 268.307 -2.4136 -2.84253 0
M  V30 2693 N 270.492 0.636531 -1.44174 0
M  V30 2694 C 271.738 1.39826 -1.4689 0
M  V30 2695 C 272.071 1.93947 -0.0990585 0
M  V30 2696 O 271.346 1.73325 0.882544 0
M  V30 2697 C 271.629 2.56751 -2.5249 0
M  V30 2698 C 271.482 2.08014 -3.98811 0
M  V30 2699 C 272.801 3.58946 -2.54649 0
M  V30 2700 H 269.92 0.507075 -0.53483 0
M  V30 2701 H 272.562 0.720188 -1.75822 0
M  V30 2702 H 270.712 3.14597 -2.2795 0
M  V30 2703 H 272.384 1.5504 -4.34466 0
M  V30 2704 H 270.627 1.39242 -4.10846 0
M  V30 2705 H 271.298 2.92169 -4.68339 0
M  V30 2706 H 273.774 3.1089 -2.76563 0
M  V30 2707 H 272.65 4.38286 -3.3045 0
M  V30 2708 H 272.911 4.12655 -1.58646 0
M  V30 2709 N 271.97 1.30982 0.876444 0
M  V30 2710 C 273.216 1.20474 1.63138 0
M  V30 2711 C 273.549 -0.238096 1.92735 0
M  V30 2712 O 272.824 -1.1692 1.55435 0
M  V30 2713 C 273.107 2.04244 2.96574 0
M  V30 2714 C 272.96 3.56793 2.73896 0
M  V30 2715 C 274.279 1.88684 3.97601 0
M  V30 2716 H 271.398 0.439001 0.591985 0
M  V30 2717 H 274.04 1.60704 1.01361 0
M  V30 2718 H 272.19 1.70063 3.493 0
M  V30 2719 H 273.862 4.01077 2.27892 0
M  V30 2720 H 272.105 3.80548 2.08245 0
M  V30 2721 H 272.776 4.10706 3.68815 0
M  V30 2722 H 275.252 2.18584 3.54062 0
M  V30 2723 H 274.128 2.4961 4.88862 0
M  V30 2724 H 274.389 0.848343 4.33884 0
M  V30 2725 N 273.449 -1.08991 1.13837 0
M  V30 2726 C 274.382 -2.15049 0.763477 0
M  V30 2727 C 275.36 -1.60629 -0.252398 0
M  V30 2728 O 276.544 -1.87958 -0.142853 0
M  V30 2729 C 273.671 -3.38441 0.132545 0
M  V30 2730 C 272.717 -4.11596 1.11763 0
M  V30 2731 S 273.55 -4.6521 2.65216 0
M  V30 2732 C 274.706 -5.91896 2.03495 0
M  V30 2733 H 274.939 -2.46518 1.66182 0
M  V30 2734 H 272.472 -1.21008 0.958976 0
M  V30 2735 H 274.43 -4.09883 -0.225074 0
M  V30 2736 H 273.091 -3.05182 -0.743135 0
M  V30 2737 H 272.284 -5.00121 0.624076 0
M  V30 2738 H 271.886 -3.46038 1.41894 0
M  V30 2739 H 274.178 -6.63156 1.38675 0
M  V30 2740 H 275.121 -6.45938 2.9012 0
M  V30 2741 H 275.529 -5.44625 1.48471 0
M  V30 2742 N 274.927 -0.932562 -1.27047 0
M  V30 2743 C 276.155 -0.592031 -1.98249 0
M  V30 2744 C 276.57 0.831062 -1.69525 0
M  V30 2745 O 275.927 1.55299 -0.958561 0
M  V30 2746 C 275.978 -0.814279 -3.5221 0
M  V30 2747 O 275.699 -2.18139 -3.7993 0
M  V30 2748 C 277.2 -0.483121 -4.4066 0
M  V30 2749 H 274.42 -0.223896 -0.632544 0
M  V30 2750 H 276.964 -1.25091 -1.61779 0
M  V30 2751 H 275.119 -0.20213 -3.86872 0
M  V30 2752 H 275.533 -2.235 -4.74498 0
M  V30 2753 H 277.007 -0.689298 -5.47679 0
M  V30 2754 H 277.484 0.581546 -4.35333 0
M  V30 2755 H 278.09 -1.07362 -4.11526 0
M  V30 2756 N 276.405 1.4127 -0.698611 0
M  V30 2757 C 277.654 2.00408 -0.227949 0
M  V30 2758 C 277.967 1.55981 1.18023 0
M  V30 2759 O 279.173 2.07699 1.74852 0
M  V30 2760 C 277.629 3.58129 -0.356636 0
M  V30 2761 C 277.237 4.11536 -1.77037 0
M  V30 2762 C 278.981 4.24466 0.0540969 0
M  V30 2763 C 276.888 5.61701 -1.85055 0
M  V30 2764 H 275.818 0.749586 -0.0814657 0
M  V30 2765 H 278.469 1.61713 -0.867249 0
M  V30 2766 H 276.851 3.94442 0.350965 0
M  V30 2767 H 278.025 3.86636 -2.50698 0
M  V30 2768 H 276.34 3.57736 -2.13105 0
M  V30 2769 H 278.937 5.34698 0.0146723 0
M  V30 2770 H 279.28 4.01687 1.09332 0
M  V30 2771 H 279.813 3.93198 -0.603337 0
M  V30 2772 H 276.552 5.89312 -2.8704 0
M  V30 2773 H 276.072 5.88519 -1.15783 0
M  V30 2774 H 277.751 6.26524 -1.61484 0
M  V30 2775 N 277.883 0.443576 1.51229 0
M  V30 2776 C 279.111 -0.11929 2.06556 0
M  V30 2777 C 279.526 -1.35921 1.31038 0
M  V30 2778 O 278.883 -1.78675 0.371704 0
M  V30 2779 C 278.934 -0.435228 3.5887 0
M  V30 2780 O 278.655 0.755486 4.31537 0
M  V30 2781 C 280.156 -1.04808 4.30732 0
M  V30 2782 H 277.376 -0.0051584 0.67098 0
M  V30 2783 H 279.92 0.624453 1.94733 0
M  V30 2784 H 278.075 -1.12887 3.70588 0
M  V30 2785 H 278.489 0.483491 5.22267 0
M  V30 2786 H 279.963 -1.2191 5.3837 0
M  V30 2787 H 280.44 -2.03081 3.89429 0
M  V30 2788 H 281.046 -0.393637 4.23474 0
M  V30 2789 N 279.361 -1.56624 0.175154 0
M  V30 2790 C 280.609 -1.96609 -0.467885 0
M  V30 2791 C 280.93 -1.06238 -1.63519 0
M  V30 2792 O 280.2 -0.129523 -1.95471 0
M  V30 2793 H 278.78 -0.726008 -0.175845 0
M  V30 2794 H 281.442 -1.93195 0.257234 0
M  V30 2795 H 280.538 -3.00989 -0.825342 0
M  V30 2796 N 280.839 0.0985539 -1.57292 0
M  V30 2797 C 282.064 0.820196 -1.90493 0
M  V30 2798 C 282.489 1.71658 -0.769094 0
M  V30 2799 O 281.847 1.79133 0.279495 0
M  V30 2800 C 281.895 1.61242 -3.22542 0
M  V30 2801 O 280.999 2.72108 -3.09888 0
M  V30 2802 H 280.34 0.225547 -0.62452 0
M  V30 2803 H 282.87 0.0748159 -2.04463 0
M  V30 2804 H 282.88 1.99737 -3.55766 0
M  V30 2805 H 281.555 0.954535 -4.04798 0
M  V30 2806 H 280.132 2.36667 -2.88172 0
M  V30 2807 N 282.317 1.53212 0.369288 0
M  V30 2808 C 283.227 1.82342 1.47609 0
M  V30 2809 C 284.243 0.711532 1.58787 0
M  V30 2810 O 285.419 1.0012 1.74751 0
M  V30 2811 C 282.484 2.00393 2.8292 0
M  V30 2812 C 281.545 3.24297 2.81301 0
M  V30 2813 C 280.778 3.41478 4.10157 0
M  V30 2814 O 281.001 2.63033 5.06132 0
M  V30 2815 O 279.935 4.34817 4.16194 0
M  V30 2816 H 283.761 2.76366 1.25918 0
M  V30 2817 H 281.346 1.38547 0.559034 0
M  V30 2818 H 283.228 2.13859 3.63101 0
M  V30 2819 H 281.903 1.09559 3.04596 0
M  V30 2820 H 280.81 3.16257 1.99831 0
M  V30 2821 H 282.143 4.15041 2.64578 0
M  V30 2822 N 283.795 -0.628877 1.44509 0
M  V30 2823 C 284.758 -1.72263 1.51188 0
M  V30 2824 C 285.758 -1.55907 0.39367 0
M  V30 2825 O 286.948 -1.61361 0.656377 0
M  V30 2826 C 284.08 -3.11365 1.38798 0
M  V30 2827 H 285.273 -1.67714 2.4862 0
M  V30 2828 H 282.826 -0.842737 1.31634 0
M  V30 2829 H 283.561 -3.21507 0.424693 0
M  V30 2830 H 283.346 -3.24644 2.19884 0
M  V30 2831 H 284.836 -3.91075 1.46458 0
M  V30 2832 N 285.273 -1.31445 -0.869486 0
M  V30 2833 C 286.684 -1.19042 -1.43826 0
M  V30 2834 C 287.035 0.202919 -1.95148 0
M  V30 2835 O 286.16 1.10071 -1.86315 0
M  V30 2836 C 286.755 -2.15499 -2.6143 0
M  V30 2837 C 285.314 -2.07028 -3.14351 0
M  V30 2838 C 284.461 -2.04701 -1.87063 0
M  V30 2839 H 287.412 -1.43489 -0.677984 0
M  V30 2840 H 287.433 -1.74488 -3.38134 0
M  V30 2841 H 286.945 -3.16899 -2.24046 0
M  V30 2842 H 285.046 -1.08825 -3.56354 0
M  V30 2843 H 285.159 -2.96157 -3.766 0
M  V30 2844 H 283.523 -1.49724 -2.06046 0
M  V30 2845 H 284.306 -3.07857 -1.51917 0
M  V30 2846 N 286.751 1.08385 -1.14413 0
M  V30 2847 C 288.028 1.77429 -0.823297 0
M  V30 2848 C 288.408 1.9974 0.683163 0
M  V30 2849 O 287.756 1.60739 1.62405 0
M  V30 2850 C 287.966 3.09004 -1.62227 0
M  V30 2851 C 289.314 3.83532 -1.82177 0
M  V30 2852 O 290.338 3.18786 -1.58915 0
M  V30 2853 O 289.197 4.99792 -2.21067 0
M  V30 2854 H 286.291 0.769999 -0.301712 0
M  V30 2855 H 288.837 1.14846 -1.24934 0
M  V30 2856 H 287.609 2.88316 -2.64555 0
M  V30 2857 H 287.232 3.79316 -1.19187 0
M  V30 2858 N 288.23 0.939286 1.26551 0
M  V30 2859 C 289.14 0.453432 2.30176 0
M  V30 2860 C 290.156 -0.471649 1.67486 0
M  V30 2861 O 291.332 -0.35164 1.98306 0
M  V30 2862 C 288.397 -0.275326 3.45605 0
M  V30 2863 C 287.458 0.686084 4.23782 0
M  V30 2864 C 286.691 -0.00798994 5.33699 0
M  V30 2865 O 286.914 -1.22528 5.57085 0
M  V30 2866 O 285.848 0.669746 5.98162 0
M  V30 2867 H 289.674 1.31416 2.73795 0
M  V30 2868 H 287.259 0.705095 1.31715 0
M  V30 2869 H 289.141 -0.685911 4.1578 0
M  V30 2870 H 287.816 -1.11147 3.0402 0
M  V30 2871 H 286.723 1.14658 3.56096 0
M  V30 2872 H 288.056 1.48979 4.69112 0
M  V30 2873 N 289.708 -1.40897 0.706093 0
M  V30 2874 C 290.954 -2.01849 0.250681 0
M  V30 2875 C 291.309 -1.5496 -1.14041 0
M  V30 2876 O 290.602 -0.755566 -1.76073 0
M  V30 2877 C 290.796 -3.5646 0.259099 0
M  V30 2878 C 290.625 -4.18357 1.64947 0
M  V30 2879 C 289.395 -4.522 2.25485 0
M  V30 2880 C 291.593 -4.43856 2.598 0
M  V30 2881 N 289.575 -4.9944 3.56977 0
M  V30 2882 C 290.946 -4.92986 3.75985 0
M  V30 2883 C 293.001 -4.25882 2.57933 0
M  V30 2884 C 291.704 -5.2603 4.90597 0
M  V30 2885 C 293.73 -4.6002 3.71665 0
M  V30 2886 C 293.092 -5.09331 4.86581 0
M  V30 2887 H 289.191 -0.769843 0.137353 0
M  V30 2888 H 291.775 -1.71278 0.925845 0
M  V30 2889 H 289.946 -3.86481 -0.385592 0
M  V30 2890 H 291.678 -4.04144 -0.21213 0
M  V30 2891 H 288.433 -4.3901 1.77671 0
M  V30 2892 H 288.857 -5.27454 4.24407 0
M  V30 2893 H 293.499 -3.86986 1.70298 0
M  V30 2894 H 291.217 -5.63843 5.78884 0
M  V30 2895 H 294.803 -4.47762 3.71484 0
M  V30 2896 H 293.683 -5.35251 5.73129 0
M  V30 2897 N 291.186 -0.45159 -1.50991 0
M  V30 2898 C 292.435 0.111653 -2.01391 0
M  V30 2899 C 292.748 1.42529 -1.33959 0
M  V30 2900 O 293.954 2.07232 -1.75405 0
M  V30 2901 C 292.41 0.249514 -3.59034 0
M  V30 2902 C 292.018 -1.05453 -4.35412 0
M  V30 2903 C 293.762 0.765762 -4.17536 0
M  V30 2904 C 291.669 -0.881529 -5.84793 0
M  V30 2905 H 290.599 0.0455022 -0.752626 0
M  V30 2906 H 293.25 -0.583524 -1.73975 0
M  V30 2907 H 291.632 1.00803 -3.82955 0
M  V30 2908 H 292.806 -1.82248 -4.23229 0
M  V30 2909 H 291.121 -1.50039 -3.88429 0
M  V30 2910 H 293.718 0.911913 -5.26866 0
M  V30 2911 H 294.061 1.75201 -3.77638 0
M  V30 2912 H 294.594 0.0651744 -3.97747 0
M  V30 2913 H 291.333 -1.84057 -6.29129 0
M  V30 2914 H 290.853 -0.153625 -5.99603 0
M  V30 2915 H 292.532 -0.540363 -6.4474 0
M  V30 2916 N 292.664 1.56529 -0.183458 0
M  V30 2917 C 293.91 1.97537 0.459036 0
M  V30 2918 C 294.243 1.06989 1.62071 0
M  V30 2919 O 293.518 0.11948 1.94133 0
M  V30 2920 C 293.801 3.47874 0.930368 0
M  V30 2921 C 293.654 4.492 -0.232317 0
M  V30 2922 C 294.973 4.01612 1.79989 0
M  V30 2923 H 292.092 0.718204 0.165383 0
M  V30 2924 H 294.734 1.88042 -0.272038 0
M  V30 2925 H 292.884 3.56095 1.55333 0
M  V30 2926 H 294.556 4.53027 -0.86972 0
M  V30 2927 H 292.799 4.24657 -0.885928 0
M  V30 2928 H 293.47 5.51823 0.139796 0
M  V30 2929 H 295.946 3.96097 1.27461 0
M  V30 2930 H 294.822 5.07195 2.09867 0
M  V30 2931 H 295.083 3.46163 2.74998 0
M  V30 2932 N 294.142 -0.090211 1.57342 0
M  V30 2933 C 295.391 -0.791531 1.8552 0
M  V30 2934 C 295.704 -1.79659 0.773441 0
M  V30 2935 O 296.91 -2.54616 0.942497 0
M  V30 2936 C 295.366 -1.45856 3.2902 0
M  V30 2937 C 294.974 -0.493017 4.45279 0
M  V30 2938 C 296.718 -2.14332 3.66418 0
M  V30 2939 C 294.625 -1.16491 5.79814 0
M  V30 2940 H 293.555 -0.299356 0.692027 0
M  V30 2941 H 296.206 -0.0445343 1.83446 0
M  V30 2942 H 294.588 -2.25318 3.2565 0
M  V30 2943 H 295.762 0.270464 4.60006 0
M  V30 2944 H 294.077 0.0863061 4.16311 0
M  V30 2945 H 296.674 -2.65344 4.64216 0
M  V30 2946 H 297.017 -2.93447 2.95287 0
M  V30 2947 H 297.55 -1.41724 3.71698 0
M  V30 2948 H 294.289 -0.41447 6.54188 0
M  V30 2949 H 293.809 -1.8997 5.68921 0
M  V30 2950 H 295.488 -1.69001 6.24538 0
M  V30 2951 N 295.62 -1.53406 -0.361157 0
M  V30 2952 C 296.868 -1.69467 -1.10115 0
M  V30 2953 C 297.189 -0.451352 -1.89705 0
M  V30 2954 O 296.459 0.534636 -1.88463 0
M  V30 2955 H 295.039 -0.624749 -0.409508 0
M  V30 2956 H 297.701 -1.90609 -0.406699 0
M  V30 2957 H 296.797 -2.55774 -1.78847 0
M  V30 2958 N 297.098 0.621204 -1.44841 0
M  V30 2959 C 298.346 1.37783 -1.47852 0
M  V30 2960 C 298.667 1.94653 -0.116224 0
M  V30 2961 O 297.937 1.76367 0.852737 0
M  V30 2962 H 296.517 0.511453 -0.544449 0
M  V30 2963 H 299.179 0.730446 -1.80694 0
M  V30 2964 H 298.275 2.20414 -2.20961 0
M  V30 2965 N 298.576 1.31904 0.862503 0
M  V30 2966 C 299.526 1.16772 1.95827 0
M  V30 2967 C 300.51 0.0767098 1.60717 0
M  V30 2968 O 301.702 0.302407 1.74398 0
M  V30 2969 C 298.831 0.884858 3.317 0
M  V30 2970 C 297.917 2.0172 3.73055 0
M  V30 2971 N 298.308 3.265 3.86305 0
M  V30 2972 C 296.606 1.91861 4.02623 0
M  V30 2973 C 297.307 4.00616 4.2176 0
M  V30 2974 N 296.283 3.28847 4.32852 0
M  V30 2975 H 300.085 2.11382 2.04193 0
M  V30 2976 H 297.599 1.2357 1.05377 0
M  V30 2977 H 299.596 0.757419 4.09962 0
M  V30 2978 H 298.256 -0.0529448 3.24657 0
M  V30 2979 H 299.267 3.61529 3.70833 0
M  V30 2980 H 295.944 1.05593 4.03926 0
M  V30 2981 H 297.334 5.08182 4.39546 0
M  V30 2982 N 300.054 -1.07777 1.14986 0
M  V30 2983 C 300.984 -2.16865 0.865557 0
M  V30 2984 C 301.965 -1.69123 -0.182083 0
M  V30 2985 O 303.15 -1.94164 -0.0373815 0
M  V30 2986 C 300.28 -3.45539 0.349313 0
M  V30 2987 C 299.234 -4.06708 1.33313 0
M  V30 2988 C 298.56 -5.30411 0.675918 0
M  V30 2989 C 299.86 -4.47241 2.69764 0
M  V30 2990 H 301.554 -2.40905 1.77778 0
M  V30 2991 H 299.1 -1.15781 0.856203 0
M  V30 2992 H 301.053 -4.21174 0.137983 0
M  V30 2993 H 299.777 -3.21072 -0.598362 0
M  V30 2994 H 298.436 -3.33112 1.53075 0
M  V30 2995 H 298.084 -5.02232 -0.277767 0
M  V30 2996 H 297.784 -5.72293 1.33244 0
M  V30 2997 H 299.308 -6.08755 0.474262 0
M  V30 2998 H 300.722 -5.14025 2.53873 0
M  V30 2999 H 299.119 -5.00062 3.3175 0
M  V30 3000 H 300.189 -3.58818 3.26156 0
M  V30 3001 N 301.532 -0.945985 -1.26051 0
M  V30 3002 C 302.809 -0.513816 -1.88731 0
M  V30 3003 C 303.189 1.00872 -1.8544 0
M  V30 3004 O 302.537 1.8708 -1.312 0
M  V30 3005 C 302.747 -1.08062 -3.31849 0
M  V30 3006 C 304.095 -1.1522 -4.08668 0
M  V30 3007 O 305.119 -1.03155 -3.40936 0
M  V30 3008 O 303.978 -1.34044 -5.29806 0
M  V30 3009 H 301.072 -0.168193 -0.809716 0
M  V30 3010 H 303.618 -1.03886 -1.34186 0
M  V30 3011 H 302.39 -2.1241 -3.2863 0
M  V30 3012 H 302.013 -0.538307 -3.93939 0
M  V30 3013 N 303.011 1.40521 -0.713556 0
M  V30 3014 C 304.236 2.05759 -0.26035 0
M  V30 3015 C 304.661 1.53403 1.08854 0
M  V30 3016 O 304.019 0.668535 1.68524 0
M  V30 3017 C 304.067 3.59745 -0.248122 0
M  V30 3018 O 303.171 4.05123 0.77131 0
M  V30 3019 H 302.512 0.652564 -0.122703 0
M  V30 3020 H 305.042 1.79958 -0.973467 0
M  V30 3021 H 305.052 4.07911 -0.0851129 0
M  V30 3022 H 303.727 3.97218 -1.2325 0
M  V30 3023 H 302.304 3.68422 0.57619 0
M  V30 3024 N 304.489 0.459591 1.5075 0
M  V30 3025 C 305.717 -0.0973749 2.06671 0
M  V30 3026 C 306.132 -1.34524 1.32472 0
M  V30 3027 O 305.489 -1.7827 0.390634 0
M  V30 3028 C 305.54 -0.39714 3.59312 0
M  V30 3029 O 305.261 0.801214 4.30711 0
M  V30 3030 C 306.762 -1.00234 4.31819 0
M  V30 3031 H 303.982 0.00195854 0.670997 0
M  V30 3032 H 306.526 0.645072 1.94059 0
M  V30 3033 H 304.681 -1.08951 3.71764 0
M  V30 3034 H 305.095 0.538857 5.21725 0
M  V30 3035 H 306.569 -1.16193 5.39632 0
M  V30 3036 H 307.046 -1.98939 3.91561 0
M  V30 3037 H 307.652 -0.348699 4.23868 0
M  V30 3038 N 305.967 -1.56429 0.191757 0
M  V30 3039 C 307.216 -1.9666 -0.448088 0
M  V30 3040 C 307.529 -1.08136 -1.62991 0
M  V30 3041 O 308.735 -1.38135 -2.33733 0
M  V30 3042 C 307.191 -3.49753 -0.848585 0
M  V30 3043 C 306.799 -4.46935 0.308764 0
M  V30 3044 C 308.543 -3.9876 -1.4557 0
M  V30 3045 C 306.45 -5.91293 -0.112506 0
M  V30 3046 H 305.38 -0.734312 -0.171179 0
M  V30 3047 H 308.031 -1.81301 0.283242 0
M  V30 3048 H 306.413 -3.60604 -1.63649 0
M  V30 3049 H 307.587 -4.47813 1.08627 0
M  V30 3050 H 305.902 -4.08102 0.827158 0
M  V30 3051 H 308.499 -5.04086 -1.78328 0
M  V30 3052 H 308.842 -3.42875 -2.36099 0
M  V30 3053 H 309.375 -3.9101 -0.731836 0
M  V30 3054 H 306.114 -6.51097 0.758514 0
M  V30 3055 H 305.634 -5.93676 -0.854941 0
M  V30 3056 H 307.313 -6.44663 -0.549448 0
M  V30 3057 N 307.445 0.0818655 -1.57387 0
M  V30 3058 C 308.693 0.781368 -1.86384 0
M  V30 3059 C 309.014 1.78618 -0.782342 0
M  V30 3060 O 308.284 1.94976 0.190061 0
M  V30 3061 H 306.864 0.291562 -0.687751 0
M  V30 3062 H 309.526 0.060348 -1.94807 0
M  V30 3063 H 308.622 1.3038 -2.83562 0
M  V30 3064 N 308.923 1.53595 0.353017 0
M  V30 3065 C 310.148 1.7462 1.11904 0
M  V30 3066 C 310.573 0.479721 1.8188 0
M  V30 3067 O 309.931 -0.567066 1.72204 0
M  V30 3068 C 309.979 2.92029 2.11545 0
M  V30 3069 O 309.083 2.61516 3.18878 0
M  V30 3070 H 308.424 0.579531 0.324099 0
M  V30 3071 H 310.954 2.00525 0.406301 0
M  V30 3072 H 310.964 3.18551 2.5493 0
M  V30 3073 H 309.639 3.83888 1.60008 0
M  V30 3074 H 308.216 2.45852 2.80377 0
M  V30 3075 N 310.401 -0.613514 1.45168 0
M  V30 3076 C 311.351 -1.71871 1.49815 0
M  V30 3077 C 312.335 -1.56774 0.362021 0
M  V30 3078 O 313.527 -1.66212 0.608493 0
M  V30 3079 C 310.656 -3.1061 1.46207 0
M  V30 3080 C 309.742 -3.31114 2.64999 0
M  V30 3081 N 310.133 -3.21904 3.90143 0
M  V30 3082 C 308.431 -3.61966 2.6057 0
M  V30 3083 C 309.132 -3.43577 4.69393 0
M  V30 3084 N 308.108 -3.67287 4.00751 0
M  V30 3085 H 311.91 -1.63235 2.444 0
M  V30 3086 H 309.424 -0.816577 1.40377 0
M  V30 3087 H 311.421 -3.8989 1.4762 0
M  V30 3088 H 310.081 -3.20399 0.52673 0
M  V30 3089 H 311.092 -3.00436 4.21852 0
M  V30 3090 H 307.769 -3.78629 1.75916 0
M  V30 3091 H 309.159 -3.41901 5.78406 0
M  V30 3092 N 311.879 -1.3236 -0.855495 0
M  V30 3093 C 313.107 -1.2587 -1.64208 0
M  V30 3094 C 313.522 0.173457 -1.88002 0
M  V30 3095 O 312.879 1.11027 -1.44842 0
M  V30 3096 C 312.93 -2.01424 -3.00184 0
M  V30 3097 O 312.651 -3.39051 -2.77445 0
M  V30 3098 C 314.152 -2.01948 -3.94629 0
M  V30 3099 H 311.372 -0.434318 -0.511477 0
M  V30 3100 H 313.916 -1.74469 -1.0668 0
M  V30 3101 H 312.071 -1.56549 -3.5436 0
M  V30 3102 H 312.485 -3.77711 -3.63916 0
M  V30 3103 H 313.959 -2.59297 -4.87308 0
M  V30 3104 H 314.436 -1.00554 -4.27534 0
M  V30 3105 H 315.042 -2.46767 -3.4639 0
M  V30 3106 N 313.357 1.07166 -1.15556 0
M  V30 3107 C 314.305 2.16517 -0.8499 0
M  V30 3108 C 315.299 1.68468 0.177454 0
M  V30 3109 O 316.505 1.79971 0.0323026 0
M  V30 3110 H 312.88 0.706652 -0.25719 0
M  V30 3111 H 314.851 2.39514 -1.77976 0
M  V30 3112 C 313.6 3.45855 -0.357682 0
M  V30 3113 H 312.923 3.83214 -1.13961 0
M  V30 3114 H 314.363 4.23607 -0.182489 0
M  V30 3115 C 312.822 3.24062 0.921152 0
M  V30 3116 O 313.352 3.48813 1.9923 0
M  V30 3117 N 311.558 2.77539 0.86141 0
M  V30 3118 H 311.105 2.57598 -0.0104408 0
M  V30 3119 H 311.063 2.63337 1.71758 0
M  V30 3120 N 314.835 0.952656 1.25548 0
M  V30 3121 C 315.745 0.47782 2.29682 0
M  V30 3122 C 316.761 -0.453859 1.67977 0
M  V30 3123 O 317.937 -0.330587 1.98668 0
M  V30 3124 C 315.002 -0.238655 3.45878 0
M  V30 3125 C 314.063 0.730994 4.23031 0
M  V30 3126 C 313.296 0.0486165 5.33678 0
M  V30 3127 O 313.519 -1.16612 5.58353 0
M  V30 3128 O 312.453 0.733152 5.97418 0
M  V30 3129 H 316.279 1.34312 2.72386 0
M  V30 3130 H 313.864 0.719026 1.30959 0
M  V30 3131 H 315.746 -0.641774 4.16484 0
M  V30 3132 H 314.421 -1.07916 3.05181 0
M  V30 3133 H 313.328 1.18428 3.5486 0
M  V30 3134 H 314.661 1.53946 4.67506 0
M  V30 3135 N 316.313 -1.40141 0.720998 0
M  V30 3136 C 317.245 -2.29177 0.0324669 0
M  V30 3137 C 318.258 -1.46105 -0.718126 0
M  V30 3138 O 319.447 -1.69335 -0.564608 0
M  V30 3139 C 316.547 -3.24473 -0.978292 0
M  V30 3140 C 315.72 -4.36423 -0.292115 0
M  V30 3141 C 314.779 -5.12122 -1.20901 0
M  V30 3142 O 313.805 -5.64981 -0.691766 0
M  V30 3143 N 315.007 -5.21992 -2.53978 0
M  V30 3144 H 317.772 -2.88909 0.796984 0
M  V30 3145 H 315.333 -1.51569 0.569068 0
M  V30 3146 H 317.325 -3.71987 -1.59398 0
M  V30 3147 H 315.895 -2.65871 -1.64413 0
M  V30 3148 H 315.115 -3.90967 0.503847 0
M  V30 3149 H 316.403 -5.08467 0.183971 0
M  V30 3150 H 315.801 -4.8054 -2.98493 0
M  V30 3151 H 314.358 -5.72995 -3.10677 0
M  V30 3152 N 317.792 -0.46758 -1.50504 0
M  V30 3153 C 319.017 0.0886943 -2.0721 0
M  V30 3154 C 319.442 1.33057 -1.32956 0
M  V30 3155 O 318.8 1.77354 -0.376197 0
M  V30 3156 C 318.848 0.359202 -3.58806 0
M  V30 3157 O 317.952 1.44034 -3.8643 0
M  V30 3158 H 317.293 -0.0114349 -0.663902 0
M  V30 3159 H 319.823 -0.657613 -1.93744 0
M  V30 3160 H 319.833 0.600742 -4.03553 0
M  V30 3161 H 318.508 -0.548311 -4.1227 0
M  V30 3162 H 317.085 1.18638 -3.53524 0
M  V30 3163 N 319.27 1.56325 -0.20005 0
M  V30 3164 C 320.516 1.98012 0.438059 0
M  V30 3165 C 320.849 1.08702 1.60927 0
M  V30 3166 O 320.124 0.140064 1.93995 0
M  V30 3167 C 320.407 3.48841 0.893419 0
M  V30 3168 C 320.26 4.48928 -0.279947 0
M  V30 3169 C 321.579 4.03498 1.75719 0
M  V30 3170 H 318.698 0.719918 0.157757 0
M  V30 3171 H 321.34 1.87743 -0.291968 0
M  V30 3172 H 319.49 3.57723 1.51547 0
M  V30 3173 H 321.162 4.52079 -0.91772 0
M  V30 3174 H 319.405 4.23694 -0.930919 0
M  V30 3175 H 320.076 5.5194 0.0812601 0
M  V30 3176 H 322.552 3.97427 1.23253 0
M  V30 3177 H 321.428 5.09393 2.04476 0
M  V30 3178 H 321.689 3.4906 2.71311 0
M  V30 3179 N 320.748 -0.0735177 1.57428 0
M  V30 3180 C 321.711 -1.07192 2.02589 0
M  V30 3181 C 322.711 -1.31695 0.922661 0
M  V30 3182 O 323.901 -1.27445 1.18758 0
M  V30 3183 C 321.033 -2.41599 2.40506 0
M  V30 3184 H 322.226 -0.682727 2.92025 0
M  V30 3185 H 319.779 -0.319193 1.53006 0
M  V30 3186 H 320.514 -2.85354 1.5409 0
M  V30 3187 H 320.299 -2.25156 3.21009 0
M  V30 3188 H 321.789 -3.13367 2.76027 0
M  V30 3189 N 322.226 -1.5378 -0.344866 0
M  V30 3190 C 323.637 -1.62428 -0.920552 0
M  V30 3191 C 323.988 -0.504747 -1.89596 0
M  V30 3192 O 323.113 0.365711 -2.13287 0
M  V30 3193 C 323.708 -2.94419 -1.67639 0
M  V30 3194 C 322.267 -3.05333 -2.20111 0
M  V30 3195 C 321.414 -2.57866 -1.01982 0
M  V30 3196 H 324.365 -1.58222 -0.123042 0
M  V30 3197 H 324.386 -2.83384 -2.53917 0
M  V30 3198 H 323.898 -3.7588 -0.966224 0
M  V30 3199 H 321.999 -2.28502 -2.94308 0
M  V30 3200 H 322.112 -4.10778 -2.46573 0
M  V30 3201 H 320.476 -2.13241 -1.39285 0
M  V30 3202 H 321.259 -3.41765 -0.324308 0
M  V30 3203 N 323.704 0.605807 -1.45491 0
M  V30 3204 C 324.952 1.36207 -1.49305 0
M  V30 3205 C 325.273 1.94519 -0.136863 0
M  V30 3206 O 324.543 1.77261 0.833983 0
M  V30 3207 H 323.123 0.50565 -0.549843 0
M  V30 3208 H 325.785 0.711239 -1.81459 0
M  V30 3209 H 324.881 2.18058 -2.23287 0
M  V30 3210 N 325.182 1.32811 0.848464 0
M  V30 3211 C 326.145 1.22194 1.9391 0
M  V30 3212 C 327.145 0.143404 1.60159 0
M  V30 3213 O 328.335 0.394253 1.6968 0
M  V30 3214 C 325.467 0.88067 3.29328 0
M  V30 3215 H 326.66 2.19127 2.04752 0
M  V30 3216 H 324.213 1.16731 1.0394 0
M  V30 3217 H 324.948 -0.0865776 3.24184 0
M  V30 3218 H 324.733 1.66052 3.55203 0
M  V30 3219 H 326.223 0.830871 4.09251 0
M  V30 3220 N 326.66 -1.06551 1.16123 0
M  V30 3221 C 327.937 -1.76097 0.85142 0
M  V30 3222 C 328.317 -2.00802 -0.6513 0
M  V30 3223 O 327.665 -1.63302 -1.59827 0
M  V30 3224 C 327.875 -3.06384 1.67122 0
M  V30 3225 C 329.223 -3.80585 1.88255 0
M  V30 3226 O 330.247 -3.16218 1.63966 0
M  V30 3227 O 329.106 -4.96212 2.2899 0
M  V30 3228 H 326.2 -0.765102 0.313923 0
M  V30 3229 H 328.746 -1.12844 1.26745 0
M  V30 3230 H 327.518 -2.84071 2.69108 0
M  V30 3231 H 327.141 -3.77371 1.25206 0
M  V30 3232 N 328.138 -0.959301 -1.25041 0
M  V30 3233 C 329.415 -0.533805 -1.88175 0
M  V30 3234 C 329.795 0.988994 -1.865 0
M  V30 3235 O 329.143 1.85677 -1.33177 0
M  V30 3236 C 329.353 -1.11575 -3.30684 0
M  V30 3237 C 330.701 -1.19548 -4.07423 0
M  V30 3238 O 331.725 -1.06765 -3.39823 0
M  V30 3239 O 330.584 -1.39656 -5.28354 0
M  V30 3240 H 327.678 -0.176772 -0.807887 0
M  V30 3241 H 330.224 -1.05303 -1.33076 0
M  V30 3242 H 328.996 -2.15884 -3.26358 0
M  V30 3243 H 328.619 -0.580059 -3.93346 0
M  V30 3244 N 329.616 1.39756 -0.72842 0
M  V30 3245 C 330.893 1.94574 -0.200079 0
M  V30 3246 C 331.273 1.66569 1.29684 0
M  V30 3247 O 330.621 0.990326 2.05924 0
M  V30 3248 C 330.831 3.45004 -0.526608 0
M  V30 3249 C 332.179 4.21965 -0.472318 0
M  V30 3250 O 333.203 3.53173 -0.463413 0
M  V30 3251 O 332.062 5.44552 -0.461075 0
M  V30 3252 H 329.156 0.826289 -0.0342851 0
M  V30 3253 H 331.702 1.49293 -0.806829 0
M  V30 3254 H 330.474 3.58796 -1.56144 0
M  V30 3255 H 330.097 3.97449 0.109449 0
M  V30 3256 N 331.094 0.475555 1.50254 0
M  V30 3257 C 332.057 -0.305016 2.27161 0
M  V30 3258 C 333.057 -0.916519 1.32123 0
M  V30 3259 O 334.247 -0.785003 1.5551 0
M  V30 3260 C 331.379 -1.43496 3.09227 0
M  V30 3261 H 332.572 0.369511 2.97615 0
M  V30 3262 H 330.125 0.229747 1.54602 0
M  V30 3263 H 330.86 -2.14441 2.43281 0
M  V30 3264 H 330.645 -1.00223 3.79075 0
M  V30 3265 H 332.135 -1.98548 3.67381 0
M  V30 3266 N 332.573 -1.56217 0.208337 0
M  V30 3267 C 333.798 -2.02782 -0.435222 0
M  V30 3268 C 334.223 -1.08738 -1.53485 0
M  V30 3269 O 333.581 -0.0731855 -1.81152 0
M  V30 3270 C 333.629 -3.47687 -0.956335 0
M  V30 3271 O 332.733 -3.56773 -2.06849 0
M  V30 3272 H 332.074 -0.656403 -0.100158 0
M  V30 3273 H 334.604 -2.02033 0.3231 0
M  V30 3274 H 334.614 -3.87745 -1.26955 0
M  V30 3275 H 333.289 -4.15624 -0.15143 0
M  V30 3276 H 331.866 -3.28597 -1.76292 0
M  V30 3277 N 334.051 0.0651679 -1.57465 0
M  V30 3278 C 335.299 0.761555 -1.87202 0
M  V30 3279 C 335.62 1.77778 -0.801243 0
M  V30 3280 O 334.89 1.95166 0.16937 0
M  V30 3281 H 333.47 0.284251 -0.690804 0
M  V30 3282 H 336.132 0.0396827 -1.9486 0
M  V30 3283 H 335.228 1.27365 -2.84929 0
M  V30 3284 N 335.529 1.53961 0.336706 0
M  V30 3285 C 336.778 1.70751 1.07363 0
M  V30 3286 C 337.091 0.481061 1.89592 0
M  V30 3287 O 338.297 0.530046 2.66276 0
M  V30 3288 C 336.753 3.01965 1.95818 0
M  V30 3289 C 336.361 4.31971 1.18764 0
M  V30 3290 C 338.105 3.28121 2.69327 0
M  V30 3291 C 336.012 5.54255 2.06289 0
M  V30 3292 H 334.942 0.636292 0.404535 0
M  V30 3293 H 337.593 1.80459 0.332681 0
M  V30 3294 H 335.975 2.86132 2.7376 0
M  V30 3295 H 337.149 4.5853 0.456849 0
M  V30 3296 H 335.464 4.12481 0.569946 0
M  V30 3297 H 338.061 4.16673 3.35094 0
M  V30 3298 H 338.404 2.45426 3.36261 0
M  V30 3299 H 338.937 3.44762 1.98454 0
M  V30 3300 H 335.676 6.39513 1.43885 0
M  V30 3301 H 335.196 5.31935 2.77138 0
M  V30 3302 H 336.875 5.90159 2.65182 0
M  V30 3303 N 337.007 -0.598083 1.45811 0
M  V30 3304 C 337.97 -1.69018 1.54808 0
M  V30 3305 C 338.97 -1.55037 0.426652 0
M  V30 3306 O 340.16 -1.59932 0.690456 0
M  V30 3307 C 337.292 -3.0835 1.45371 0
M  V30 3308 H 338.485 -1.62403 2.52121 0
M  V30 3309 H 336.038 -0.814626 1.33392 0
M  V30 3310 H 336.773 -3.20534 0.492793 0
M  V30 3311 H 336.558 -3.19907 2.26721 0
M  V30 3312 H 338.048 -3.8788 1.54721 0
M  V30 3313 N 338.485 -1.33259 -0.841409 0
M  V30 3314 C 339.448 -1.23221 -1.9326 0
M  V30 3315 C 340.448 -0.151895 -1.60081 0
M  V30 3316 O 341.638 -0.403246 -1.69468 0
M  V30 3317 C 338.77 -0.898123 -3.28856 0
M  V30 3318 H 339.963 -2.2021 -2.03587 0
M  V30 3319 H 337.516 -1.17281 -1.03319 0
M  V30 3320 H 338.251 0.0693841 -3.24226 0
M  V30 3321 H 338.036 -1.67934 -3.54317 0
M  V30 3322 H 339.526 -0.852563 -4.08805 0
M  V30 3323 N 339.963 1.05934 -1.16686 0
M  V30 3324 C 341.209 1.79065 -0.95203 0
M  V30 3325 C 341.542 1.87147 0.518629 0
M  V30 3326 O 340.817 1.36574 1.38484 0
M  V30 3327 C 341.1 3.23359 -1.58464 0
M  V30 3328 C 340.953 3.23336 -3.12689 0
M  V30 3329 C 342.272 4.21004 -1.28232 0
M  V30 3330 H 339.391 0.65005 -0.34728 0
M  V30 3331 H 342.033 1.23868 -1.44072 0
M  V30 3332 H 340.183 3.70493 -1.16908 0
M  V30 3333 H 341.855 2.84336 -3.6325 0
M  V30 3334 H 340.098 2.61886 -3.4583 0
M  V30 3335 H 340.769 4.25144 -3.52075 0
M  V30 3336 H 343.245 3.8233 -1.64203 0
M  V30 3337 H 342.121 5.20225 -1.75092 0
M  V30 3338 H 342.382 4.41639 -0.201791 0
M  V30 3339 N 341.441 0.965919 1.2453 0
M  V30 3340 C 342.669 0.644385 1.96609 0
M  V30 3341 C 343.084 -0.785823 1.71669 0
M  V30 3342 O 342.441 -1.52703 0.999399 0
M  V30 3343 C 342.492 0.907375 3.49927 0
M  V30 3344 O 342.213 2.28136 3.74013 0
M  V30 3345 C 343.714 0.599784 4.39224 0
M  V30 3346 H 340.934 0.240588 0.626385 0
M  V30 3347 H 343.478 1.29337 1.58405 0
M  V30 3348 H 341.633 0.304631 3.862 0
M  V30 3349 H 342.047 2.36002 4.68405 0
M  V30 3350 H 343.521 0.834263 5.45659 0
M  V30 3351 H 343.998 -0.465921 4.36722 0
M  V30 3352 H 344.604 1.18235 4.08535 0
M  V30 3353 N 342.919 -1.39368 0.735821 0
M  V30 3354 C 343.829 -2.34395 0.0979693 0
M  V30 3355 C 344.845 -1.58361 -0.720968 0
M  V30 3356 O 346.021 -1.90648 -0.649245 0
M  V30 3357 C 343.086 -3.37393 -0.797916 0
M  V30 3358 C 342.147 -4.29287 0.0333662 0
M  V30 3359 C 341.38 -5.27365 -0.819854 0
M  V30 3360 O 341.603 -5.31959 -2.05855 0
M  V30 3361 O 340.537 -6.01389 -0.248079 0
M  V30 3362 H 344.363 -2.90601 0.882315 0
M  V30 3363 H 341.948 -1.40909 0.4965 0
M  V30 3364 H 343.83 -4.00505 -1.31048 0
M  V30 3365 H 342.505 -2.83571 -1.56106 0
M  V30 3366 H 341.412 -3.69395 0.591475 0
M  V30 3367 H 342.745 -4.86317 0.758752 0
M  V30 3368 N 344.397 -0.483516 -1.5 0
M  V30 3369 C 345.643 0.0672592 -2.02688 0
M  V30 3370 C 345.976 1.38247 -1.36387 0
M  V30 3371 O 345.251 1.88131 -0.493675 0
M  V30 3372 C 345.534 0.238109 -3.59312 0
M  V30 3373 C 345.387 -1.099 -4.36168 0
M  V30 3374 C 346.706 0.986916 -4.28892 0
M  V30 3375 H 343.825 0.0229696 -0.736642 0
M  V30 3376 H 346.467 -0.631527 -1.79197 0
M  V30 3377 H 344.617 0.8333 -3.79458 0
M  V30 3378 H 346.289 -1.73172 -4.27562 0
M  V30 3379 H 344.532 -1.69261 -3.99416 0
M  V30 3380 H 345.203 -0.932954 -5.44059 0
M  V30 3381 H 347.679 0.482302 -4.13295 0
M  V30 3382 H 346.555 1.07527 -5.38265 0
M  V30 3383 H 346.816 2.0265 -3.92919 0
M  V30 3384 N 345.875 1.56104 -0.216619 0
M  V30 3385 C 347.124 1.97348 0.416744 0
M  V30 3386 C 347.437 1.10715 1.6125 0
M  V30 3387 O 348.643 1.41836 2.31506 0
M  V30 3388 C 347.099 3.51059 0.792835 0
M  V30 3389 C 346.707 4.46387 -0.379828 0
M  V30 3390 C 348.451 4.01026 1.39208 0
M  V30 3391 C 346.358 5.91397 0.0184223 0
M  V30 3392 H 345.288 0.736942 0.159475 0
M  V30 3393 H 347.939 1.80827 -0.31205 0
M  V30 3394 H 346.321 3.63162 1.57891 0
M  V30 3395 H 347.495 4.46029 -1.15737 0
M  V30 3396 H 345.81 4.06734 -0.891979 0
M  V30 3397 H 348.407 5.0686 1.70286 0
M  V30 3398 H 348.75 3.46587 2.30614 0
M  V30 3399 H 349.283 3.92125 0.669537 0
M  V30 3400 H 346.022 6.49807 -0.862002 0
M  V30 3401 H 345.542 5.94961 0.760384 0
M  V30 3402 H 347.221 6.45455 0.446818 0
M  V30 3403 N 347.353 -0.0568162 1.57498 0
M  V30 3404 C 348.769 -0.411933 1.54192 0
M  V30 3405 C 348.969 -1.78287 0.938942 0
M  V30 3406 O 348.025 -2.46483 0.547919 0
M  V30 3407 C 349.338 -0.339244 2.9878 0
M  V30 3408 C 350.886 -0.418348 3.10192 0
M  V30 3409 C 351.361 -0.375407 4.56459 0
M  V30 3410 N 352.852 -0.435038 4.61153 0
M  V30 3411 C 353.587 -0.424265 5.71828 0
M  V30 3412 N 353.083 -0.367418 6.91825 0
M  V30 3413 N 354.876 -0.471938 5.60115 0
M  V30 3414 H 347.027 0.840684 1.95055 0
M  V30 3415 H 349.29 0.316987 0.893433 0
M  V30 3416 H 348.996 0.601742 3.46514 0
M  V30 3417 H 348.87 -1.14371 3.59443 0
M  V30 3418 H 351.257 -1.34976 2.62422 0
M  V30 3419 H 351.338 0.414962 2.52412 0
M  V30 3420 H 350.982 0.552219 5.04889 0
M  V30 3421 H 350.912 -1.22645 5.12119 0
M  V30 3422 H 353.403 -0.482612 3.74806 0
M  V30 3423 H 353.716 -0.363535 7.71944 0
M  V30 3424 H 352.061 -0.333879 6.94198 0
M  V30 3425 H 355.252 -0.514145 4.65268 0
M  V30 3426 H 355.425 -0.460073 6.46365 0
M  V30 3427 N 348.832 -1.54138 -0.328536 0
M  V30 3428 C 350.078 -1.7236 -1.06865 0
M  V30 3429 C 350.411 -0.493231 -1.87832 0
M  V30 3430 O 349.686 0.5098 -1.877 0
M  V30 3431 C 349.969 -2.99621 -1.99747 0
M  V30 3432 C 349.822 -4.32899 -1.22143 0
M  V30 3433 C 351.141 -3.22615 -2.99345 0
M  V30 3434 H 348.26 -0.627151 -0.387105 0
M  V30 3435 H 350.902 -1.86827 -0.345767 0
M  V30 3436 H 349.052 -2.87418 -2.61387 0
M  V30 3437 H 350.724 -4.56978 -0.630017 0
M  V30 3438 H 348.967 -4.30628 -0.523628 0
M  V30 3439 H 349.638 -5.18154 -1.90318 0
M  V30 3440 H 352.114 -3.34248 -2.47826 0
M  V30 3441 H 350.99 -4.13027 -3.61524 0
M  V30 3442 H 351.251 -2.3961 -3.71536 0
M  V30 3443 N 350.31 0.590341 -1.46126 0
M  V30 3444 C 351.24 1.71032 -1.58966 0
M  V30 3445 C 352.221 1.64302 -0.440335 0
M  V30 3446 O 353.406 1.82436 -0.665634 0
M  V30 3447 C 350.536 3.09665 -1.57241 0
M  V30 3448 C 349.49 3.31221 -2.71066 0
M  V30 3449 C 348.816 4.70303 -2.54399 0
M  V30 3450 C 350.116 3.19796 -4.1295 0
M  V30 3451 H 351.81 1.60543 -2.52718 0
M  V30 3452 H 349.356 0.770933 -1.21625 0
M  V30 3453 H 351.309 3.87831 -1.64819 0
M  V30 3454 H 350.033 3.21036 -0.600289 0
M  V30 3455 H 348.692 2.55452 -2.62944 0
M  V30 3456 H 348.34 4.78429 -1.55288 0
M  V30 3457 H 348.04 4.85679 -3.30741 0
M  V30 3458 H 349.564 5.50647 -2.63857 0
M  V30 3459 H 350.978 3.87815 -4.22223 0
M  V30 3460 H 349.375 3.46696 -4.89818 0
M  V30 3461 H 350.445 2.16983 -4.33643 0
M  V30 3462 N 351.788 1.33704 0.83433 0
M  V30 3463 C 353.013 1.28615 1.62705 0
M  V30 3464 C 353.438 -0.139242 1.87584 0
M  V30 3465 O 352.796 -1.09734 1.4432 0
M  V30 3466 C 352.844 2.07139 2.95171 0
M  V30 3467 O 351.948 1.4331 3.86699 0
M  V30 3468 H 351.289 0.44226 0.49528 0
M  V30 3469 H 353.819 1.76335 1.03766 0
M  V30 3470 H 353.829 2.18073 3.44831 0
M  V30 3471 H 352.504 3.10779 2.76386 0
M  V30 3472 H 351.081 1.4105 3.45195 0
M  V30 3473 N 353.266 -1.05314 1.17247 0
M  V30 3474 C 354.176 -2.16538 0.90268 0
M  V30 3475 C 355.192 -1.73523 -0.128707 0
M  V30 3476 O 356.368 -2.01337 0.0502701 0
M  V30 3477 C 353.433 -3.44167 0.418356 0
M  V30 3478 C 352.494 -4.01635 1.51618 0
M  V30 3479 C 351.727 -5.23171 1.05487 0
M  V30 3480 O 351.95 -5.70327 -0.0914715 0
M  V30 3481 O 350.884 -5.72848 1.8474 0
M  V30 3482 H 354.71 -2.42145 1.83302 0
M  V30 3483 H 352.295 -1.15037 0.953246 0
M  V30 3484 H 354.177 -4.21112 0.155726 0
M  V30 3485 H 352.852 -3.20063 -0.48385 0
M  V30 3486 H 351.759 -3.26135 1.83268 0
M  V30 3487 H 353.092 -4.30053 2.39405 0
M  V30 3488 N 354.744 -0.972509 -1.24016 0
M  V30 3489 C 355.692 -0.498562 -2.27194 0
M  V30 3490 C 356.686 0.440372 -1.63576 0
M  V30 3491 O 357.892 0.315133 -1.7722 0
M  V30 3492 H 354.267 -0.142775 -0.738322 0
M  V30 3493 H 356.238 -1.38065 -2.64539 0
M  V30 3494 C 354.987 0.191072 -3.47175 0
M  V30 3495 H 354.31 -0.522318 -3.96373 0
M  V30 3496 H 355.75 0.486445 -4.212 0
M  V30 3497 C 354.209 1.41967 -3.05527 0
M  V30 3498 O 354.739 2.51642 -3.13112 0
M  V30 3499 N 352.945 1.28746 -2.60524 0
M  V30 3500 H 352.492 0.395089 -2.54552 0
M  V30 3501 H 352.45 2.11061 -2.33025 0
M  V30 3502 N 356.222 1.38976 -0.743202 0
M  V30 3503 C 357.17 2.32394 -0.0978389 0
M  V30 3504 C 358.164 1.53486 0.716824 0
M  V30 3505 O 359.37 1.69092 0.617088 0
M  V30 3506 H 355.745 0.75189 -0.0128402 0
M  V30 3507 H 357.716 2.84441 -0.901981 0
M  V30 3508 C 356.465 3.38629 0.789036 0
M  V30 3509 H 355.788 3.99432 0.171559 0
M  V30 3510 H 357.228 4.06426 1.20807 0
M  V30 3511 C 355.687 2.76347 1.92702 0
M  V30 3512 O 356.217 2.64836 3.02034 0
M  V30 3513 N 354.423 2.34311 1.71891 0
M  V30 3514 H 353.97 2.43873 0.829675 0
M  V30 3515 H 353.928 1.9298 2.48205 0
M  V30 3516 N 357.7 0.491464 1.49741 0
M  V30 3517 C 358.947 -0.0564256 2.02421 0
M  V30 3518 C 359.275 -1.37872 1.37192 0
M  V30 3519 O 358.53 -1.89375 0.493508 0
M  V30 3520 C 358.829 -0.267329 3.56399 0
M  V30 3521 C 358.495 0.975775 4.40215 0
M  V30 3522 C 357.157 1.31655 4.62839 0
M  V30 3523 C 359.509 1.80251 4.89039 0
M  V30 3524 C 356.837 2.48375 5.31532 0
M  V30 3525 C 359.189 2.96116 5.59015 0
M  V30 3526 C 357.853 3.30585 5.79888 0
M  V30 3527 H 357.123 -0.0206476 0.740712 0
M  V30 3528 H 359.77 0.649686 1.80143 0
M  V30 3529 H 358.075 -1.05588 3.77304 0
M  V30 3530 H 359.772 -0.705549 3.94744 0
M  V30 3531 H 356.362 0.700315 4.2284 0
M  V30 3532 H 360.546 1.55239 4.71396 0
M  V30 3533 H 355.802 2.7533 5.45897 0
M  V30 3534 H 359.976 3.60509 5.95824 0
M  V30 3535 H 357.603 4.21132 6.32892 0
M  V30 3536 N 359.178 -1.55987 0.224894 0
M  V30 3537 C 360.11 -2.17722 -0.716224 0
M  V30 3538 C 361.123 -1.14723 -1.15509 0
M  V30 3539 O 362.312 -1.41688 -1.08567 0
M  V30 3540 C 359.412 -2.74873 -1.98238 0
M  V30 3541 C 358.585 -4.03074 -1.69853 0
M  V30 3542 C 357.644 -4.44757 -2.81208 0
M  V30 3543 O 356.67 -5.11587 -2.49534 0
M  V30 3544 N 357.872 -4.10716 -4.10235 0
M  V30 3545 H 360.637 -2.99109 -0.188123 0
M  V30 3546 H 358.198 -1.6184 0.0440123 0
M  V30 3547 H 360.19 -2.99727 -2.7193 0
M  V30 3548 H 358.76 -1.9777 -2.42086 0
M  V30 3549 H 357.98 -3.86041 -0.797875 0
M  V30 3550 H 359.268 -4.86701 -1.48324 0
M  V30 3551 H 358.666 -3.57019 -4.38809 0
M  V30 3552 H 357.223 -4.40455 -4.80461 0
M  V30 3553 N 360.656 0.0484629 -1.57525 0
M  V30 3554 C 362.067 0.597486 -1.76881 0
M  V30 3555 C 362.418 1.76664 -0.853475 0
M  V30 3556 O 361.543 2.16357 -0.0433656 0
M  V30 3557 C 362.138 1.09066 -3.20765 0
M  V30 3558 C 360.697 1.58535 -3.41385 0
M  V30 3559 C 359.844 0.514868 -2.72478 0
M  V30 3560 H 362.795 -0.177758 -1.57701 0
M  V30 3561 H 362.816 1.95875 -3.2621 0
M  V30 3562 H 362.328 0.239521 -3.8736 0
M  V30 3563 H 360.429 2.45898 -2.79937 0
M  V30 3564 H 360.542 1.64622 -4.49929 0
M  V30 3565 H 358.906 0.965407 -2.35695 0
M  V30 3566 H 359.689 -0.32648 -3.41744 0
M  V30 3567 N 362.134 1.5431 0.320358 0
M  V30 3568 C 363.081 1.83918 1.39438 0
M  V30 3569 C 364.051 0.686525 1.51248 0
M  V30 3570 O 365.236 0.933269 1.66417 0
M  V30 3571 C 362.376 2.075 2.75749 0
M  V30 3572 C 361.489 3.35177 2.72544 0
M  V30 3573 C 360.624 3.48704 4.00723 0
M  V30 3574 C 359.663 4.70244 3.91838 0
M  V30 3575 N 358.8 4.80679 5.11754 0
M  V30 3576 H 363.64 2.75544 1.13489 0
M  V30 3577 H 361.177 1.36459 0.549309 0
M  V30 3578 H 363.135 2.19166 3.54996 0
M  V30 3579 H 361.765 1.19163 3 0
M  V30 3580 H 360.817 3.32233 1.85271 0
M  V30 3581 H 362.129 4.24534 2.61863 0
M  V30 3582 H 361.283 3.59928 4.88402 0
M  V30 3583 H 360.022 2.57445 4.14214 0
M  V30 3584 H 359.027 4.59072 3.02544 0
M  V30 3585 H 360.252 5.6289 3.7991 0
M  V30 3586 H 358.198 3.92337 5.25745 0
M  V30 3587 H 358.115 5.64007 5.0342 0
M  V30 3588 H 359.383 4.96239 6.01138 0
M  V30 3589 N 363.613 -0.582584 1.46437 0
M  V30 3590 C 365.029 -0.905962 1.31394 0
M  V30 3591 C 365.229 -1.99468 0.285476 0
M  V30 3592 O 364.285 -2.50566 -0.311914 0
M  V30 3593 C 365.598 -1.3232 2.70022 0
M  V30 3594 C 367.146 -1.43604 2.78113 0
M  V30 3595 C 367.621 -1.88694 4.17323 0
M  V30 3596 N 369.112 -1.95887 4.19741 0
M  V30 3597 C 369.847 -2.32051 5.24347 0
M  V30 3598 N 369.343 -2.67006 6.39281 0
M  V30 3599 N 371.136 -2.32606 5.11713 0
M  V30 3600 H 363.287 0.1366 2.1196 0
M  V30 3601 H 365.55 -0.00155736 0.947999 0
M  V30 3602 H 365.256 -0.597242 3.46592 0
M  V30 3603 H 365.13 -2.28469 3.00136 0
M  V30 3604 H 367.517 -2.15286 2.01832 0
M  V30 3605 H 367.598 -0.457059 2.51684 0
M  V30 3606 H 367.242 -1.1759 4.941 0
M  V30 3607 H 367.172 -2.8755 4.4116 0
M  V30 3608 H 369.663 -1.71362 3.36814 0
M  V30 3609 H 369.976 -2.93554 7.14875 0
M  V30 3610 H 368.321 -2.64644 6.42642 0
M  V30 3611 H 371.512 -2.04721 4.2096 0
M  V30 3612 H 371.685 -2.60462 5.93349 0
M  V30 3613 N 365.091 -1.34144 -0.827227 0
M  V30 3614 C 366.316 -1.29476 -1.62021 0
M  V30 3615 C 366.741 0.129292 -1.87655 0
M  V30 3616 O 366.099 1.08967 -1.449 0
M  V30 3617 C 366.147 -2.08702 -2.94068 0
M  V30 3618 O 365.251 -1.45359 -3.85933 0
M  V30 3619 H 364.592 -0.444881 -0.492927 0
M  V30 3620 H 367.122 -1.76882 -1.02829 0
M  V30 3621 H 367.132 -2.19898 -3.43669 0
M  V30 3622 H 365.807 -3.12241 -2.74734 0
M  V30 3623 H 364.384 -1.42879 -3.44442 0
M  V30 3624 N 366.569 1.04691 -1.17803 0
M  V30 3625 C 367.818 1.77176 -0.963931 0
M  V30 3626 C 368.131 1.88888 0.508015 0
M  V30 3627 O 369.337 2.58164 0.840465 0
M  V30 3628 C 367.793 3.18518 -1.67555 0
M  V30 3629 C 367.401 3.14919 -3.18637 0
M  V30 3630 C 369.145 3.95424 -1.54402 0
M  V30 3631 C 367.052 4.51081 -3.82466 0
M  V30 3632 H 365.982 0.664116 -0.357023 0
M  V30 3633 H 368.633 1.17303 -1.4111 0
M  V30 3634 H 367.015 3.78748 -1.15613 0
M  V30 3635 H 368.189 2.64178 -3.77554 0
M  V30 3636 H 366.504 2.51512 -3.31859 0
M  V30 3637 H 369.101 4.96106 -1.99456 0
M  V30 3638 H 369.444 4.13343 -0.495329 0
M  V30 3639 H 369.977 3.41754 -2.0359 0
M  V30 3640 H 366.716 4.38368 -4.87354 0
M  V30 3641 H 366.236 5.01951 -3.28337 0
M  V30 3642 H 367.915 5.2001 -3.84965 0
M  V30 3643 N 368.047 0.979072 1.23499 0
M  V30 3644 C 369.01 0.523244 2.23147 0
M  V30 3645 C 370.01 -0.386406 1.56088 0
M  V30 3646 O 371.2 -0.180283 1.73265 0
M  V30 3647 C 368.332 -0.240739 3.40049 0
M  V30 3648 H 369.525 1.40432 2.64989 0
M  V30 3649 H 367.078 0.764824 1.36309 0
M  V30 3650 H 367.813 -1.13841 3.03662 0
M  V30 3651 H 367.598 0.412207 3.89927 0
M  V30 3652 H 369.088 -0.548297 4.13985 0
M  V30 3653 N 369.525 -1.3858 0.750561 0
M  V30 3654 C 370.772 -2.00184 0.305373 0
M  V30 3655 C 371.1 -1.59575 -1.11203 0
M  V30 3656 O 370.355 -0.823236 -1.77542 0
M  V30 3657 C 370.654 -3.55455 0.372373 0
M  V30 3658 C 370.32 -4.15765 1.745 0
M  V30 3659 C 368.982 -4.31951 2.12065 0
M  V30 3660 C 371.334 -4.49067 2.64553 0
M  V30 3661 C 368.662 -4.78734 3.39162 0
M  V30 3662 C 371.014 -4.97265 3.91038 0
M  V30 3663 C 369.678 -5.11658 4.28676 0
M  V30 3664 H 368.948 -0.732526 0.111744 0
M  V30 3665 H 371.595 -1.65673 0.960451 0
M  V30 3666 H 369.9 -3.90084 -0.366272 0
M  V30 3667 H 371.597 -4.00999 0.00953918 0
M  V30 3668 H 368.187 -4.03579 1.44297 0
M  V30 3669 H 372.371 -4.36166 2.36796 0
M  V30 3670 H 367.627 -4.88062 3.68246 0
M  V30 3671 H 371.801 -5.22003 4.60962 0
M  V30 3672 H 369.428 -5.47668 5.27222 0
M  V30 3673 N 371.003 -0.499398 -1.49478 0
M  V30 3674 C 371.936 0.326491 -2.25852 0
M  V30 3675 C 372.914 0.971776 -1.30366 0
M  V30 3676 O 374.098 1.00219 -1.59651 0
M  V30 3677 C 371.225 1.45969 -3.05632 0
M  V30 3678 C 370.271 0.928938 -4.16261 0
M  V30 3679 S 371.104 -0.179012 -5.35201 0
M  V30 3680 C 372.26 0.957389 -6.18534 0
M  V30 3681 H 372.493 -0.321746 -2.95554 0
M  V30 3682 H 370.026 -0.284674 -1.51753 0
M  V30 3683 H 371.984 2.109 -3.52181 0
M  V30 3684 H 370.645 2.07953 -2.35402 0
M  V30 3685 H 369.838 1.77813 -4.71592 0
M  V30 3686 H 369.44 0.356869 -3.72293 0
M  V30 3687 H 371.732 1.86296 -6.51383 0
M  V30 3688 H 372.675 0.442733 -7.06715 0
M  V30 3689 H 373.083 1.224 -5.5107 0
M  V30 3690 N 372.481 1.55866 -0.233164 0
M  V30 3691 C 373.444 2.1953 0.658715 0
M  V30 3692 C 374.444 1.16053 1.11303 0
M  V30 3693 O 375.634 1.41218 1.01996 0
M  V30 3694 C 372.766 2.82791 1.90373 0
M  V30 3695 H 373.959 2.99721 0.10347 0
M  V30 3696 H 371.512 1.56291 0.0164245 0
M  V30 3697 H 372.247 2.06501 2.50056 0
M  V30 3698 H 372.032 3.58578 1.58632 0
M  V30 3699 H 373.522 3.31556 2.53891 0
M  V30 3700 N 373.959 -0.0401083 1.57549 0
M  V30 3701 C 375.189 -0.744115 1.92734 0
M  V30 3702 C 375.597 -1.70005 0.830348 0
M  V30 3703 O 374.94 -1.82576 -0.20286 0
M  V30 3704 C 375.002 -1.56516 3.2364 0
M  V30 3705 C 374.666 -0.7752 4.50377 0
M  V30 3706 C 375.663 -0.0803326 5.19838 0
M  V30 3707 C 373.348 -0.733002 4.96923 0
M  V30 3708 C 375.342 0.646154 6.34116 0
M  V30 3709 C 373.029 -0.00276321 6.111 0
M  V30 3710 C 374.027 0.685585 6.7955 0
M  V30 3711 O 373.715 1.40399 7.91545 0
M  V30 3712 H 373.447 -0.214861 0.640945 0
M  V30 3713 H 376.001 -0.00503675 2.05399 0
M  V30 3714 H 374.231 -2.3478 3.07271 0
M  V30 3715 H 375.92 -2.15076 3.44234 0
M  V30 3716 H 376.686 -0.104035 4.84888 0
M  V30 3717 H 372.565 -1.25827 4.43496 0
M  V30 3718 H 376.109 1.18398 6.87479 0
M  V30 3719 H 372.006 0.0229012 6.45496 0
M  V30 3720 H 372.774 1.31653 8.07843 0
M  V30 3721 N 375.437 -1.54477 -0.31217 0
M  V30 3722 C 376.4 -1.83923 -1.36766 0
M  V30 3723 C 377.4 -0.711563 -1.44199 0
M  V30 3724 O 378.59 -0.979866 -1.44029 0
M  V30 3725 C 375.722 -2.0095 -2.75376 0
M  V30 3726 H 376.915 -2.78239 -1.11906 0
M  V30 3727 H 374.468 -1.46369 -0.548257 0
M  V30 3728 H 375.203 -1.08883 -3.05475 0
M  V30 3729 H 374.988 -2.83018 -2.71373 0
M  V30 3730 H 376.478 -2.2514 -3.51713 0
M  V30 3731 N 376.915 0.57481 -1.46744 0
M  V30 3732 C 377.878 1.66533 -1.57478 0
M  V30 3733 C 378.878 1.54338 -0.451263 0
M  V30 3734 O 380.068 1.58814 -0.715813 0
M  V30 3735 C 377.2 3.05999 -1.50259 0
M  V30 3736 H 378.393 1.58372 -2.54673 0
M  V30 3737 H 375.946 0.793301 -1.34672 0
M  V30 3738 H 376.681 3.19709 -0.543725 0
M  V30 3739 H 376.466 3.16259 -2.31781 0
M  V30 3740 H 377.956 3.8537 -1.60872 0
M  V30 3741 N 378.394 1.34581 0.820102 0
M  V30 3742 C 379.304 1.28471 1.96297 0
M  V30 3743 C 380.32 0.191902 1.72939 0
M  V30 3744 O 381.496 0.418879 1.96996 0
M  V30 3745 C 378.561 1.04281 3.30645 0
M  V30 3746 C 377.622 2.22745 3.66992 0
M  V30 3747 C 376.855 1.997 4.9493 0
M  V30 3748 O 377.078 0.956656 5.6232 0
M  V30 3749 O 376.012 2.86723 5.2922 0
M  V30 3750 H 379.838 2.24624 2.04396 0
M  V30 3751 H 377.423 1.14816 0.955913 0
M  V30 3752 H 379.305 0.925841 4.11104 0
M  V30 3753 H 377.98 0.111697 3.23507 0
M  V30 3754 H 376.887 2.40003 2.86966 0
M  V30 3755 H 378.22 3.14257 3.78819 0
M  V30 3756 N 379.872 -1.04064 1.18357 0
M  V30 3757 C 380.782 -2.15569 0.925596 0
M  V30 3758 C 381.798 -1.7365 -0.110295 0
M  V30 3759 O 382.974 -2.01273 0.0716218 0
M  V30 3760 C 380.039 -3.43704 0.454836 0
M  V30 3761 C 379.1 -4.00004 1.55869 0
M  V30 3762 C 378.333 -5.22023 1.1103 0
M  V30 3763 O 378.556 -5.70392 -0.0309756 0
M  V30 3764 O 377.49 -5.70856 1.90805 0
M  V30 3765 H 381.316 -2.40187 1.8586 0
M  V30 3766 H 378.901 -1.1402 0.965394 0
M  V30 3767 H 380.783 -4.20923 0.200382 0
M  V30 3768 H 379.458 -3.20559 -0.449876 0
M  V30 3769 H 378.365 -3.24172 1.86716 0
M  V30 3770 H 379.698 -4.2749 2.43953 0
M  V30 3771 N 381.35 -0.985608 -1.22978 0
M  V30 3772 C 382.596 -0.65836 -1.91816 0
M  V30 3773 C 382.929 0.806692 -1.76653 0
M  V30 3774 O 382.204 1.58252 -1.13078 0
M  V30 3775 C 382.487 -1.056 -3.44268 0
M  V30 3776 C 382.34 -2.57906 -3.68516 0
M  V30 3777 C 383.659 -0.603781 -4.35939 0
M  V30 3778 H 380.778 -0.24065 -0.696604 0
M  V30 3779 H 383.42 -1.22783 -1.44998 0
M  V30 3780 H 381.57 -0.571445 -3.84274 0
M  V30 3781 H 383.242 -3.13976 -3.3796 0
M  V30 3782 H 381.485 -3.00305 -3.13048 0
M  V30 3783 H 382.156 -2.80779 -4.75255 0
M  V30 3784 H 384.632 -1.01987 -4.03408 0
M  V30 3785 H 383.508 -0.910383 -5.41298 0
M  V30 3786 H 383.769 0.495761 -4.39312 0
M  V30 3787 N 382.828 1.3818 -0.7579 0
M  V30 3788 C 384.076 1.99624 -0.315361 0
M  V30 3789 C 384.397 1.60464 1.10799 0
M  V30 3790 O 383.667 0.863507 1.75842 0
M  V30 3791 H 382.247 0.73831 -0.113611 0
M  V30 3792 H 384.909 1.68878 -0.972952 0
M  V30 3793 H 384.005 3.09754 -0.381931 0
M  V30 3794 N 384.306 0.507319 1.49211 0
M  V30 3795 C 385.236 -0.256939 2.32082 0
M  V30 3796 C 386.217 -0.956609 1.40652 0
M  V30 3797 O 387.402 -0.946788 1.69557 0
M  V30 3798 C 384.532 -1.31802 3.21318 0
M  V30 3799 C 383.486 -0.737855 4.21592 0
M  V30 3800 C 382.812 -1.89992 4.99807 0
M  V30 3801 C 384.112 0.275325 5.21574 0
M  V30 3802 H 385.806 0.434798 2.96226 0
M  V30 3803 H 383.352 0.210546 1.42452 0
M  V30 3804 H 385.305 -1.86045 3.78107 0
M  V30 3805 H 384.029 -2.03903 2.5513 0
M  V30 3806 H 382.688 -0.217126 3.65956 0
M  V30 3807 H 382.336 -2.60877 4.30061 0
M  V30 3808 H 382.036 -1.51777 5.6766 0
M  V30 3809 H 383.56 -2.44657 5.59442 0
M  V30 3810 H 384.974 -0.179193 5.7302 0
M  V30 3811 H 383.371 0.573649 5.97352 0
M  V30 3812 H 384.441 1.18903 4.70096 0
M  V30 3813 N 385.784 -1.5574 0.241426 0
M  V30 3814 C 387.2 -1.59196 -0.113548 0
M  V30 3815 C 387.4 -1.25852 -1.57364 0
M  V30 3816 O 386.456 -1.00322 -2.31715 0
M  V30 3817 C 387.769 -2.99814 0.230695 0
M  V30 3818 C 389.317 -3.12513 0.174547 0
M  V30 3819 C 389.792 -4.55342 0.492744 0
M  V30 3820 N 391.283 -4.61076 0.443043 0
M  V30 3821 C 392.018 -5.6956 0.662484 0
M  V30 3822 N 391.514 -6.86328 0.944761 0
M  V30 3823 N 393.307 -5.58957 0.593564 0
M  V30 3824 H 385.458 -1.75685 1.19368 0
M  V30 3825 H 387.721 -0.81756 0.479896 0
M  V30 3826 H 387.427 -3.28932 1.24485 0
M  V30 3827 H 387.301 -3.74568 -0.444833 0
M  V30 3828 H 389.688 -2.83179 -0.830277 0
M  V30 3829 H 389.769 -2.40045 0.883845 0
M  V30 3830 H 389.413 -4.85396 1.4951 0
M  V30 3831 H 389.343 -5.26062 -0.23797 0
M  V30 3832 H 391.834 -3.77179 0.233374 0
M  V30 3833 H 392.147 -7.64935 1.09977 0
M  V30 3834 H 390.492 -6.88025 0.982175 0
M  V30 3835 H 393.683 -4.66611 0.373123 0
M  V30 3836 H 393.856 -6.43433 0.767981 0
M  V30 3837 N 387.262 0.0317525 -1.57568 0
M  V30 3838 C 388.51 0.721676 -1.88776 0
M  V30 3839 C 388.831 1.76039 -0.838772 0
M  V30 3840 O 388.101 1.95482 0.127935 0
M  V30 3841 H 386.681 0.269534 -0.696678 0
M  V30 3842 H 389.343 -0.00165879 -1.949 0
M  V30 3843 H 388.439 1.21293 -2.87566 0
M  V30 3844 N 388.74 1.54641 0.303973 0
M  V30 3845 C 389.965 1.78092 1.06292 0
M  V30 3846 C 390.39 0.537342 1.80262 0
M  V30 3847 O 389.748 -0.511993 1.7392 0
M  V30 3848 C 389.796 2.98612 2.02147 0
M  V30 3849 O 388.9 2.71528 3.10397 0
M  V30 3850 H 388.241 0.589548 0.305497 0
M  V30 3851 H 390.771 2.01716 0.3423 0
M  V30 3852 H 390.781 3.265 2.44667 0
M  V30 3853 H 389.456 3.88785 1.47714 0
M  V30 3854 H 388.033 2.54648 2.72413 0
M  V30 3855 N 390.218 -0.567019 1.47046 0
M  V30 3856 C 391.15 -1.68985 1.54844 0
M  V30 3857 C 392.163 -1.56869 0.435431 0
M  V30 3858 O 393.352 -1.64006 0.70457 0
M  V30 3859 C 390.452 -3.07373 1.42742 0
M  V30 3860 C 389.625 -3.45339 2.6844 0
M  V30 3861 C 388.684 -4.62849 2.50314 0
M  V30 3862 O 387.71 -4.67922 3.24095 0
M  V30 3863 N 388.912 -5.58726 1.57499 0
M  V30 3864 H 391.677 -1.62745 2.51663 0
M  V30 3865 H 389.238 -0.753411 1.43302 0
M  V30 3866 H 391.23 -3.83803 1.28365 0
M  V30 3867 H 389.8 -3.07893 0.540445 0
M  V30 3868 H 389.02 -2.58455 2.97648 0
M  V30 3869 H 390.308 -3.67476 3.51907 0
M  V30 3870 H 389.706 -5.57376 0.966876 0
M  V30 3871 H 388.263 -6.34523 1.49078 0
M  V30 3872 N 391.696 -1.35014 -0.812953 0
M  V30 3873 C 392.973 -1.18502 -1.55617 0
M  V30 3874 C 393.353 0.238421 -2.09749 0
M  V30 3875 O 392.701 1.2411 -1.91857 0
M  V30 3876 C 392.911 -2.24783 -2.66971 0
M  V30 3877 C 394.259 -2.60268 -3.35478 0
M  V30 3878 O 395.283 -2.23648 -2.77236 0
M  V30 3879 O 394.142 -3.2321 -4.40678 0
M  V30 3880 H 391.236 -0.459984 -0.687272 0
M  V30 3881 H 393.782 -1.46677 -0.853464 0
M  V30 3882 H 392.554 -3.20284 -2.24798 0
M  V30 3883 H 392.177 -1.97841 -3.44884 0
M  V30 3884 N 393.175 1.03435 -1.18907 0
M  V30 3885 C 394.105 2.13503 -0.945448 0
M  V30 3886 C 395.086 1.69682 0.119189 0
M  V30 3887 O 396.271 1.94169 -0.034707 0
M  V30 3888 C 393.401 3.44004 -0.477316 0
M  V30 3889 C 392.355 4.0148 -1.48316 0
M  V30 3890 C 391.681 5.27537 -0.872311 0
M  V30 3891 C 392.981 4.36921 -2.86177 0
M  V30 3892 H 394.675 2.34141 -1.86597 0
M  V30 3893 H 392.221 1.12523 -0.898584 0
M  V30 3894 H 394.174 4.20372 -0.294204 0
M  V30 3895 H 392.898 3.23072 0.478786 0
M  V30 3896 H 391.557 3.27201 -1.65332 0
M  V30 3897 H 391.205 5.02917 0.0911752 0
M  V30 3898 H 390.905 5.66954 -1.54393 0
M  V30 3899 H 392.429 6.06576 -0.699871 0
M  V30 3900 H 393.843 5.04248 -2.72776 0
M  V30 3901 H 392.24 4.87405 -3.50081 0
M  V30 3902 H 393.31 3.46466 -3.39248 0
M  V30 3903 N 394.653 0.992116 1.22453 0
M  V30 3904 C 395.616 0.546883 2.2258 0
M  V30 3905 C 396.616 -0.369829 1.56489 0
M  V30 3906 O 397.806 -0.161896 1.73446 0
M  V30 3907 C 394.938 -0.204659 3.40285 0
M  V30 3908 H 396.131 1.43234 2.63484 0
M  V30 3909 H 393.684 0.779239 1.3549 0
M  V30 3910 H 394.419 -1.10614 3.04853 0
M  V30 3911 H 394.204 0.45354 3.89468 0
M  V30 3912 H 395.694 -0.504358 4.14543 0
M  V30 3913 N 396.131 -1.37776 0.765217 0
M  V30 3914 C 397.079 -2.32209 0.134798 0
M  V30 3915 C 398.073 -1.54607 -0.692315 0
M  V30 3916 O 399.279 -1.70052 -0.590109 0
M  V30 3917 H 395.654 -0.751591 0.0248005 0
M  V30 3918 H 397.625 -2.8297 0.947119 0
M  V30 3919 C 396.374 -3.39841 -0.735063 0
M  V30 3920 H 395.697 -3.99654 -0.107991 0
M  V30 3921 H 397.137 -4.08296 -1.14326 0
M  V30 3922 C 395.596 -2.79378 -1.88281 0
M  V30 3923 O 396.126 -2.69608 -2.97783 0
M  V30 3924 N 394.332 -2.37016 -1.68142 0
M  V30 3925 H 393.879 -2.45162 -0.790772 0
M  V30 3926 H 393.837 -1.96905 -2.45104 0
M  V30 3927 N 397.609 -0.515225 -1.4894 0
M  V30 3928 C 398.541 0.292481 -2.27326 0
M  V30 3929 C 399.554 0.917838 -1.3446 0
M  V30 3930 O 400.743 0.798772 -1.5963 0
M  V30 3931 C 397.843 1.42803 -3.07344 0
M  V30 3932 C 397.016 0.907347 -4.27885 0
M  V30 3933 C 396.075 1.92222 -4.89834 0
M  V30 3934 O 395.101 1.48506 -5.49486 0
M  V30 3935 N 396.303 3.25355 -4.80754 0
M  V30 3936 H 399.068 -0.379721 -2.97285 0
M  V30 3937 H 396.629 -0.348638 -1.58102 0
M  V30 3938 H 398.621 2.10481 -3.45658 0
M  V30 3939 H 397.191 2.00414 -2.39902 0
M  V30 3940 H 396.411 0.0550218 -3.94162 0
M  V30 3941 H 397.699 0.538108 -5.05946 0
M  V30 3942 H 397.097 3.6355 -4.33414 0
M  V30 3943 H 395.654 3.88707 -5.23211 0
M  V30 3944 N 399.087 1.5561 -0.249682 0
M  V30 3945 C 400.317 2.03116 0.377803 0
M  V30 3946 C 400.725 1.12822 1.51881 0
M  V30 3947 O 400.068 0.13562 1.83199 0
M  V30 3948 C 400.13 3.46866 0.944693 0
M  V30 3949 C 399.794 4.56955 -0.0644259 0
M  V30 3950 C 400.791 5.12485 -0.874957 0
M  V30 3951 C 398.476 5.01936 -0.19132 0
M  V30 3952 C 400.47 6.11491 -1.79881 0
M  V30 3953 C 398.157 6.00773 -1.11868 0
M  V30 3954 C 399.155 6.5543 -1.92095 0
M  V30 3955 O 398.843 7.5234 -2.83267 0
M  V30 3956 H 398.575 0.669489 0.0935961 0
M  V30 3957 H 401.129 2.02004 -0.371966 0
M  V30 3958 H 399.359 3.45136 1.74407 0
M  V30 3959 H 401.048 3.77856 1.48255 0
M  V30 3960 H 401.814 4.78564 -0.787523 0
M  V30 3961 H 397.693 4.59055 0.423072 0
M  V30 3962 H 401.237 6.54078 -2.42543 0
M  V30 3963 H 397.134 6.34114 -1.20703 0
M  V30 3964 H 397.902 7.69966 -2.7766 0
M  V30 3965 N 400.565 -0.0233959 1.57583 0
M  V30 3966 C 401.512 -1.02224 2.06927 0
M  V30 3967 C 402.482 -1.35575 0.959617 0
M  V30 3968 O 403.667 -1.45815 1.23055 0
M  V30 3969 C 400.807 -2.31636 2.5581 0
M  V30 3970 C 399.92 -2.04394 3.80588 0
M  V30 3971 C 399.055 -3.27717 4.18061 0
M  V30 3972 C 398.094 -2.96056 5.3574 0
M  V30 3973 N 397.231 -4.11847 5.68618 0
M  V30 3974 H 402.071 -0.594504 2.9201 0
M  V30 3975 H 399.608 -0.281921 1.44373 0
M  V30 3976 H 401.566 -3.07258 2.82221 0
M  V30 3977 H 400.196 -2.72122 1.73636 0
M  V30 3978 H 399.248 -1.19244 3.61227 0
M  V30 3979 H 400.56 -1.77042 4.66323 0
M  V30 3980 H 399.714 -4.11702 4.4563 0
M  V30 3981 H 398.453 -3.58188 3.30988 0
M  V30 3982 H 397.458 -2.10474 5.07918 0
M  V30 3983 H 398.683 -2.66857 6.24471 0
M  V30 3984 H 396.629 -4.42258 4.84504 0
M  V30 3985 H 396.546 -3.87938 6.48876 0
M  V30 3986 H 397.814 -4.96689 6.00766 0
M  V30 3987 N 402.043 -1.548 -0.295768 0
M  V30 3988 C 403.268 -1.78653 -1.05346 0
M  V30 3989 C 403.693 -0.546894 -1.79974 0
M  V30 3990 O 403.051 0.502763 -1.7419 0
M  V30 3991 C 403.099 -2.99679 -2.00561 0
M  V30 3992 O 402.203 -2.7317 -3.08953 0
M  V30 3993 H 401.544 -0.59116 -0.302367 0
M  V30 3994 H 404.074 -2.01895 -0.331598 0
M  V30 3995 H 404.084 -3.27793 -2.42932 0
M  V30 3996 H 402.759 -3.89562 -1.4565 0
M  V30 3997 H 401.336 -2.56089 -2.71059 0
M  V30 3998 N 403.521 0.559213 -1.47345 0
M  V30 3999 C 404.431 1.69388 -1.62311 0
M  V30 4000 C 405.447 1.6648 -0.505993 0
M  V30 4001 O 406.623 1.85964 -0.773262 0
M  V30 4002 C 403.688 3.05894 -1.63185 0
M  V30 4003 C 402.749 3.19885 -2.86307 0
M  V30 4004 C 401.982 4.49879 -2.87131 0
M  V30 4005 O 402.205 5.35217 -1.97229 0
M  V30 4006 O 401.139 4.67618 -3.78968 0
M  V30 4007 H 404.965 1.59706 -2.58317 0
M  V30 4008 H 402.55 0.728989 -1.30407 0
M  V30 4009 H 404.432 3.87133 -1.66451 0
M  V30 4010 H 403.107 3.15964 -0.70345 0
M  V30 4011 H 402.014 2.38052 -2.88587 0
M  V30 4012 H 403.347 3.14718 -3.78435 0
M  V30 4013 N 404.999 1.35443 0.805782 0
M  V30 4014 C 406.247 1.28507 1.55982 0
M  V30 4015 C 406.568 -0.140046 1.94496 0
M  V30 4016 O 405.838 -1.07666 1.63661 0
M  V30 4017 H 404.418 0.472676 0.578434 0
M  V30 4018 H 407.08 1.69555 0.961098 0
M  V30 4019 H 406.176 1.90148 2.47488 0
M  V30 4020 N 406.477 -1.02803 1.19454 0
M  V30 4021 C 407.424 -2.11099 0.933046 0
M  V30 4022 C 408.394 -1.65571 -0.132447 0
M  V30 4023 O 409.579 -1.90797 0.00987576 0
M  V30 4024 C 406.719 -3.41763 0.478747 0
M  V30 4025 C 405.832 -4.00833 1.6111 0
M  V30 4026 C 404.967 -5.19511 1.10825 0
M  V30 4027 C 404.006 -5.70639 2.21445 0
M  V30 4028 N 403.143 -6.80589 1.72461 0
M  V30 4029 H 407.983 -2.32804 1.86028 0
M  V30 4030 H 405.52 -1.14179 0.927441 0
M  V30 4031 H 407.478 -4.16736 0.196745 0
M  V30 4032 H 406.108 -3.20166 -0.411493 0
M  V30 4033 H 405.16 -3.23066 2.00829 0
M  V30 4034 H 406.472 -4.34794 2.4445 0
M  V30 4035 H 405.626 -6.01645 0.781533 0
M  V30 4036 H 404.365 -4.87086 0.244606 0
M  V30 4037 H 403.37 -4.87116 2.54947 0
M  V30 4038 H 404.595 -6.05102 3.08267 0
M  V30 4039 H 402.541 -6.50016 0.884056 0
M  V30 4040 H 402.458 -7.13681 2.49389 0
M  V30 4041 H 403.726 -7.66317 1.42755 0
M  V30 4042 N 407.956 -0.998596 -1.21925 0
M  V30 4043 C 408.904 -0.546641 -2.26085 0
M  V30 4044 C 409.898 0.405576 -1.64473 0
M  V30 4045 O 411.104 0.277471 -1.77849 0
M  V30 4046 H 407.479 -0.158403 -0.735127 0
M  V30 4047 H 409.45 -1.43645 -2.61551 0
M  V30 4048 C 408.199 0.117388 -3.47502 0
M  V30 4049 H 407.522 -0.606277 -3.95176 0
M  V30 4050 H 408.962 0.396993 -4.22137 0
M  V30 4051 C 407.421 1.35455 -3.0847 0
M  V30 4052 O 407.951 2.44944 -3.18379 0
M  V30 4053 N 406.157 1.23191 -2.63196 0
M  V30 4054 H 405.704 0.341006 -2.55333 0
M  V30 4055 H 405.662 2.06071 -2.37449 0
M  V30 4056 N 409.434 1.37368 -0.772513 0
M  V30 4057 C 410.68 1.99969 -0.337681 0
M  V30 4058 C 411.013 1.61184 1.08321 0
M  V30 4059 O 410.288 0.858395 1.74533 0
M  V30 4060 C 410.571 3.56858 -0.482121 0
M  V30 4061 C 410.424 4.0555 -1.94549 0
M  V30 4062 C 411.743 4.39955 0.113143 0
M  V30 4063 H 408.862 0.726464 -0.124171 0
M  V30 4064 H 411.504 1.63034 -0.975699 0
M  V30 4065 H 409.654 3.88452 0.0610361 0
M  V30 4066 H 411.326 3.84518 -2.54841 0
M  V30 4067 H 409.569 3.57715 -2.45403 0
M  V30 4068 H 410.24 5.14587 -1.9976 0
M  V30 4069 H 412.716 4.14623 -0.35031 0
M  V30 4070 H 411.592 5.48897 -0.0180514 0
M  V30 4071 H 411.853 4.25403 1.20354 0
M  V30 4072 N 410.912 0.523116 1.48665 0
M  V30 4073 C 412.158 -0.0134963 2.02796 0
M  V30 4074 C 412.491 -1.34582 1.40004 0
M  V30 4075 O 411.766 -1.86756 0.543381 0
M  V30 4076 C 412.049 -0.14276 3.59817 0
M  V30 4077 C 411.902 1.21425 4.331 0
M  V30 4078 C 413.221 -0.872856 4.31357 0
M  V30 4079 H 410.34 -0.00343074 0.736992 0
M  V30 4080 H 412.982 0.678816 1.7746 0
M  V30 4081 H 411.132 -0.732401 3.81534 0
M  V30 4082 H 412.804 1.84447 4.2282 0
M  V30 4083 H 411.047 1.79791 3.94788 0
M  V30 4084 H 411.718 1.07687 5.41394 0
M  V30 4085 H 414.194 -0.372555 4.14429 0
M  V30 4086 H 413.07 -0.932185 5.40927 0
M  V30 4087 H 413.331 -1.92161 3.98154 0
M  V30 4088 N 412.39 -1.55475 0.257931 0
M  V30 4089 C 413.615 -2.04064 -0.370488 0
M  V30 4090 C 414.04 -1.13565 -1.49948 0
M  V30 4091 O 413.398 -0.130781 -1.80828 0
M  V30 4092 C 413.446 -3.50554 -0.845237 0
M  V30 4093 O 412.55 -3.63173 -1.95394 0
M  V30 4094 H 411.891 -0.659257 -0.0792243 0
M  V30 4095 H 414.421 -2.00903 0.387212 0
M  V30 4096 H 414.431 -3.91588 -1.14555 0
M  V30 4097 H 413.106 -4.15896 -0.0191259 0
M  V30 4098 H 411.683 -3.34039 -1.65748 0
M  V30 4099 N 413.868 0.0150385 -1.57593 0
M  V30 4100 C 414.831 0.995996 -2.06428 0
M  V30 4101 C 415.831 1.2818 -0.970903 0
M  V30 4102 O 417.021 1.22949 -1.23406 0
M  V30 4103 C 414.153 2.32506 -2.49307 0
M  V30 4104 H 415.346 0.573873 -2.94358 0
M  V30 4105 H 412.899 0.262186 -1.54085 0
M  V30 4106 H 413.634 2.79438 -1.64575 0
M  V30 4107 H 413.419 2.13087 -3.29145 0
M  V30 4108 H 414.909 3.02906 -2.87468 0
M  V30 4109 N 415.346 1.54954 0.287554 0
M  V30 4110 C 416.276 1.89839 1.35954 0
M  V30 4111 C 417.257 0.758675 1.52244 0
M  V30 4112 O 418.442 1.01557 1.65529 0
M  V30 4113 C 415.572 2.15753 2.72154 0
M  V30 4114 C 414.526 3.3159 2.70614 0
M  V30 4115 C 413.852 3.42952 4.10229 0
M  V30 4116 C 415.152 4.68359 2.31165 0
M  V30 4117 H 416.846 2.79625 1.07007 0
M  V30 4118 H 414.392 1.3454 0.513316 0
M  V30 4119 H 416.345 2.38743 3.47246 0
M  V30 4120 H 415.069 1.22752 3.02654 0
M  V30 4121 H 413.728 3.08545 1.97979 0
M  V30 4122 H 413.376 2.47443 4.37928 0
M  V30 4123 H 413.076 4.20826 4.10097 0
M  V30 4124 H 414.6 3.68218 4.87081 0
M  V30 4125 H 416.014 4.9099 2.95976 0
M  V30 4126 H 414.411 5.49044 2.42221 0
M  V30 4127 H 415.481 4.68165 1.26291 0
M  V30 4128 N 416.824 -0.551391 1.4764 0
M  V30 4129 C 417.756 -1.67333 1.56628 0
M  V30 4130 C 418.769 -1.56398 0.452045 0
M  V30 4131 O 419.958 -1.6325 0.721926 0
M  V30 4132 C 417.058 -3.05841 1.45994 0
M  V30 4133 C 416.231 -3.42472 2.72088 0
M  V30 4134 C 415.29 -4.60168 2.55209 0
M  V30 4135 O 414.316 -4.64458 3.2904 0
M  V30 4136 N 415.518 -5.57024 1.63416 0
M  V30 4137 H 418.283 -1.60066 2.53375 0
M  V30 4138 H 415.844 -0.738169 1.44093 0
M  V30 4139 H 417.836 -3.8242 1.32428 0
M  V30 4140 H 416.406 -3.07302 0.573071 0
M  V30 4141 H 415.626 -2.55284 3.00373 0
M  V30 4142 H 416.914 -3.63723 3.55785 0
M  V30 4143 H 416.312 -5.56319 1.02594 0
M  V30 4144 H 414.869 -6.32906 1.558 0
M  V30 4145 N 418.302 -1.35869 -0.798587 0
M  V30 4146 C 419.232 -1.32118 -1.92528 0
M  V30 4147 C 420.213 -0.194209 -1.68988 0
M  V30 4148 O 421.398 -0.390426 -1.90235 0
M  V30 4149 C 418.528 -1.10047 -3.29404 0
M  V30 4150 C 417.482 -2.19471 -3.67446 0
M  V30 4151 C 416.808 -1.82555 -5.02571 0
M  V30 4152 C 418.108 -3.61495 -3.76987 0
M  V30 4153 H 419.802 -2.26394 -1.95924 0
M  V30 4154 H 417.348 -1.08981 -0.94123 0
M  V30 4155 H 419.301 -1.06061 -4.07835 0
M  V30 4156 H 418.025 -0.122195 -3.26371 0
M  V30 4157 H 416.684 -2.22568 -2.91306 0
M  V30 4158 H 416.332 -0.833249 -4.9605 0
M  V30 4159 H 416.032 -2.5581 -5.28995 0
M  V30 4160 H 417.556 -1.80108 -5.83432 0
M  V30 4161 H 418.97 -3.60676 -4.4563 0
M  V30 4162 H 417.367 -4.33577 -4.14887 0
M  V30 4163 H 418.437 -3.97065 -2.78329 0
M  V30 4164 N 419.78 1.02168 -1.19998 0
M  V30 4165 C 421.057 1.72816 -0.916191 0
M  V30 4166 C 421.437 2.03081 0.576325 0
M  V30 4167 O 420.785 1.69122 1.53656 0
M  V30 4168 C 420.995 2.9997 -1.78378 0
M  V30 4169 C 422.343 3.73336 -2.02251 0
M  V30 4170 O 423.367 3.09914 -1.75589 0
M  V30 4171 O 422.226 4.87371 -2.47249 0
M  V30 4172 H 419.32 0.752924 -0.342103 0
M  V30 4173 H 421.866 1.08062 -1.30846 0
M  V30 4174 H 420.638 2.73888 -2.79466 0
M  V30 4175 H 420.261 3.72464 -1.39126 0
M  V30 4176 N 421.258 1.00505 1.21394 0
M  V30 4177 C 422.191 0.51032 2.22421 0
M  V30 4178 C 423.169 -0.436 1.56645 0
M  V30 4179 O 424.353 -0.358709 1.85055 0
M  V30 4180 C 421.48 -0.258733 3.3771 0
M  V30 4181 C 420.526 0.635395 4.2174 0
M  V30 4182 S 421.359 2.09783 4.92698 0
M  V30 4183 C 422.515 1.33862 6.11418 0
M  V30 4184 H 422.748 1.36637 2.64041 0
M  V30 4185 H 420.281 0.812991 1.31262 0
M  V30 4186 H 422.239 -0.696372 4.0455 0
M  V30 4187 H 420.9 -1.0902 2.94573 0
M  V30 4188 H 420.093 0.0430189 5.03982 0
M  V30 4189 H 419.695 1.01031 3.60095 0
M  V30 4190 H 421.987 0.612541 6.74725 0
M  V30 4191 H 422.93 2.13675 6.75092 0
M  V30 4192 H 423.338 0.846568 5.58116 0
M  V30 4193 N 422.737 -1.36956 0.779787 0
M  V30 4194 C 423.965 -2.03755 0.359398 0
M  V30 4195 C 424.38 -1.58807 -1.02106 0
M  V30 4196 O 423.737 -0.773024 -1.6532 0
M  V30 4197 C 423.788 -3.59251 0.402568 0
M  V30 4198 O 423.509 -4.02557 1.72858 0
M  V30 4199 C 425.01 -4.43291 -0.0284068 0
M  V30 4200 H 422.23 -0.654148 0.149437 0
M  V30 4201 H 424.774 -1.75128 1.05595 0
M  V30 4202 H 422.929 -3.86621 -0.245478 0
M  V30 4203 H 423.343 -4.97111 1.67275 0
M  V30 4204 H 424.817 -5.51975 0.0529466 0
M  V30 4205 H 425.294 -4.25719 -1.07982 0
M  V30 4206 H 425.9 -4.21163 0.591758 0
M  V30 4207 N 424.215 -0.530993 -1.48385 0
M  V30 4208 C 425.163 0.244595 -2.3131 0
M  V30 4209 C 426.157 0.93451 -1.41291 0
M  V30 4210 O 427.363 0.85878 -1.58193 0
M  V30 4211 H 423.738 0.0977472 -0.74562 0
M  V30 4212 H 425.709 -0.474369 -2.94605 0
M  V30 4213 C 424.458 1.2779 -3.23365 0
M  V30 4214 H 423.781 0.756439 -3.92579 0
M  V30 4215 H 425.221 1.79198 -3.84271 0
M  V30 4216 C 423.68 2.31205 -2.45042 0
M  V30 4217 O 424.21 3.37661 -2.17596 0
M  V30 4218 N 422.416 2.04446 -2.0652 0
M  V30 4219 H 421.963 1.17891 -2.2904 0
M  V30 4220 H 421.921 2.73861 -1.54427 0
M  V30 4221 N 425.693 1.55336 -0.266172 0
M  V30 4222 C 426.923 2.03506 0.356239 0
M  V30 4223 C 427.331 1.14426 1.50676 0
M  V30 4224 O 426.674 0.155043 1.83045 0
M  V30 4225 C 426.736 3.47848 0.90785 0
M  V30 4226 C 426.4 4.56861 -0.112888 0
M  V30 4227 C 427.397 5.11528 -0.929264 0
M  V30 4228 C 425.082 5.01704 -0.244546 0
M  V30 4229 C 427.076 6.09549 -1.86357 0
M  V30 4230 C 424.763 5.99553 -1.18234 0
M  V30 4231 C 425.761 6.53356 -1.99036 0
M  V30 4232 O 425.449 7.49293 -2.91231 0
M  V30 4233 H 425.181 0.670444 0.08649 0
M  V30 4234 H 427.735 2.01598 -0.39337 0
M  V30 4235 H 425.965 3.46967 1.70737 0
M  V30 4236 H 427.654 3.79407 1.44239 0
M  V30 4237 H 428.42 4.77701 -0.838237 0
M  V30 4238 H 424.299 4.59477 0.374359 0
M  V30 4239 H 427.843 6.51469 -2.49467 0
M  V30 4240 H 423.74 6.32799 -1.27421 0
M  V30 4241 H 424.508 7.66978 -2.8581 0
M  V30 4242 N 427.171 -0.0066808 1.57599 0
M  V30 4243 C 428.118 -1.00024 2.08 0
M  V30 4244 C 429.088 -1.34549 0.973943 0
M  V30 4245 O 430.273 -1.44502 1.24595 0
M  V30 4246 C 427.413 -2.2891 2.58252 0
M  V30 4247 C 426.526 -2.00346 3.82734 0
M  V30 4248 C 425.661 -3.23265 4.21513 0
M  V30 4249 C 424.7 -2.90357 5.3885 0
M  V30 4250 N 423.837 -4.05793 5.72954 0
M  V30 4251 H 428.677 -0.563499 2.92624 0
M  V30 4252 H 426.214 -0.266592 1.44664 0
M  V30 4253 H 428.172 -3.04247 2.85464 0
M  V30 4254 H 426.802 -2.70265 1.76512 0
M  V30 4255 H 425.854 -1.15406 3.62471 0
M  V30 4256 H 427.166 -1.72086 4.68175 0
M  V30 4257 H 426.32 -4.06953 4.49971 0
M  V30 4258 H 425.059 -3.54657 3.34768 0
M  V30 4259 H 424.064 -2.05075 5.10122 0
M  V30 4260 H 425.289 -2.60219 6.27266 0
M  V30 4261 H 423.235 -4.37094 4.89167 0
M  V30 4262 H 423.152 -3.81034 6.52954 0
M  V30 4263 H 424.42 -4.90289 6.06001 0
M  V30 4264 N 428.649 -1.55105 -0.279332 0
M  V30 4265 C 429.897 -1.75066 -1.00977 0
M  V30 4266 C 430.218 -0.551276 -1.87045 0
M  V30 4267 O 429.488 0.433984 -1.91032 0
M  V30 4268 H 428.068 -0.645578 -0.375816 0
M  V30 4269 H 430.73 -1.92497 -0.305089 0
M  V30 4270 H 429.826 -2.64894 -1.65038 0
M  V30 4271 N 430.127 0.543554 -1.4793 0
M  V30 4272 C 431.352 1.32995 -1.59145 0
M  V30 4273 C 431.777 1.86472 -0.246956 0
M  V30 4274 O 431.135 1.63696 0.779324 0
M  V30 4275 C 431.183 2.46623 -2.63077 0
M  V30 4276 O 430.287 3.49261 -2.19295 0
M  V30 4277 H 429.628 0.394472 -0.534124 0
M  V30 4278 H 432.158 0.655489 -1.93816 0
M  V30 4279 H 432.168 2.93001 -2.83926 0
M  V30 4280 H 430.843 2.07059 -3.60693 0
M  V30 4281 H 429.42 3.09094 -2.08603 0
M  V30 4282 N 431.605 1.3629 0.791371 0
M  V30 4283 C 432.568 1.30309 1.88553 0
M  V30 4284 C 433.568 0.211204 1.59407 0
M  V30 4285 O 434.758 0.465865 1.67855 0
M  V30 4286 C 431.89 1.01956 3.25297 0
M  V30 4287 H 433.083 2.27614 1.95273 0
M  V30 4288 H 430.636 1.21035 0.988953 0
M  V30 4289 H 431.371 0.050998 3.2426 0
M  V30 4290 H 431.156 1.80968 3.4784 0
M  V30 4291 H 432.646 1.0037 4.05359 0
M  V30 4292 N 433.083 -1.0153 1.20538 0
M  V30 4293 C 434.015 -2.10224 0.913155 0
M  V30 4294 C 435.028 -1.62495 -0.0995998 0
M  V30 4295 O 436.217 -1.78014 0.131582 0
M  V30 4296 C 433.317 -3.37111 0.347717 0
M  V30 4297 C 432.49 -4.13971 1.41233 0
M  V30 4298 C 431.549 -5.19158 0.857976 0
M  V30 4299 O 430.575 -5.48 1.53897 0
M  V30 4300 N 431.777 -5.7955 -0.331966 0
M  V30 4301 H 434.542 -2.35879 1.84881 0
M  V30 4302 H 432.103 -1.17931 1.10923 0
M  V30 4303 H 434.095 -4.04683 -0.0373026 0
M  V30 4304 H 432.665 -3.08696 -0.492527 0
M  V30 4305 H 431.885 -3.41351 1.97163 0
M  V30 4306 H 433.173 -4.62103 2.12928 0
M  V30 4307 H 432.571 -5.58455 -0.902478 0
M  V30 4308 H 431.128 -6.48464 -0.65861 0
M  V30 4309 N 434.561 -1.01147 -1.20859 0
M  V30 4310 C 435.838 -0.613136 -1.85742 0
M  V30 4311 C 436.218 0.909004 -1.90526 0
M  V30 4312 O 435.566 1.79862 -1.40932 0
M  V30 4313 C 435.776 -1.255 -3.25654 0
M  V30 4314 C 437.124 -1.3672 -4.01986 0
M  V30 4315 O 438.148 -1.21082 -3.34989 0
M  V30 4316 O 437.007 -1.6194 -5.21956 0
M  V30 4317 H 434.101 -0.210878 -0.799662 0
M  V30 4318 H 436.647 -1.10853 -1.2849 0
M  V30 4319 H 435.419 -2.29532 -3.16908 0
M  V30 4320 H 435.042 -0.746369 -3.90532 0
M  V30 4321 N 436.039 1.36541 -0.78704 0
M  V30 4322 C 437.285 1.99599 -0.358872 0
M  V30 4323 C 437.618 1.62323 1.06606 0
M  V30 4324 O 436.893 0.876858 1.73613 0
M  V30 4325 C 437.176 3.56327 -0.519944 0
M  V30 4326 C 437.029 4.03464 -1.98839 0
M  V30 4327 C 438.348 4.4005 0.0664737 0
M  V30 4328 H 435.467 0.725107 -0.131869 0
M  V30 4329 H 438.109 1.6199 -0.992936 0
M  V30 4330 H 436.259 3.88495 0.0198321 0
M  V30 4331 H 437.931 3.81793 -2.58905 0
M  V30 4332 H 436.174 3.55092 -2.49183 0
M  V30 4333 H 436.845 5.12439 -2.05207 0
M  V30 4334 H 439.321 4.14228 -0.394267 0
M  V30 4335 H 438.197 5.48847 -0.0762682 0
M  V30 4336 H 438.458 4.26655 1.15835 0
M  V30 4337 N 437.518 0.538854 1.48102 0
M  V30 4338 C 438.764 0.00801365 2.02798 0
M  V30 4339 C 439.097 -1.3309 1.41424 0
M  V30 4340 O 438.372 -1.86169 0.563158 0
M  V30 4341 C 438.655 -0.104589 3.59948 0
M  V30 4342 C 438.508 1.26012 4.31788 0
M  V30 4343 C 439.827 -0.827055 4.32259 0
M  V30 4344 H 436.946 0.00438624 0.736987 0
M  V30 4345 H 439.588 0.6976 1.7673 0
M  V30 4346 H 437.738 -0.691893 3.82289 0
M  V30 4347 H 439.41 1.88922 4.2084 0
M  V30 4348 H 437.653 1.83968 3.92859 0
M  V30 4349 H 438.324 1.13424 5.40221 0
M  V30 4350 H 440.8 -0.328578 4.14801 0
M  V30 4351 H 439.676 -0.87476 5.41885 0
M  V30 4352 H 439.937 -1.87927 4.0017 0
M  V30 4353 N 438.996 -1.55193 0.274407 0
M  V30 4354 C 440.243 -1.99581 -0.342579 0
M  V30 4355 C 440.571 -1.1628 -1.55914 0
M  V30 4356 O 439.826 -0.22029 -1.94456 0
M  V30 4357 C 440.125 -3.49019 -0.769458 0
M  V30 4358 C 439.791 -4.49598 0.342389 0
M  V30 4359 C 438.453 -4.76821 0.647686 0
M  V30 4360 C 440.805 -5.0964 1.09163 0
M  V30 4361 C 438.133 -5.61354 1.70581 0
M  V30 4362 C 440.485 -5.95323 2.13948 0
M  V30 4363 C 439.149 -6.20867 2.45113 0
M  V30 4364 H 438.419 -0.730319 -0.125358 0
M  V30 4365 H 441.066 -1.87529 0.387971 0
M  V30 4366 H 439.371 -3.58544 -1.57967 0
M  V30 4367 H 441.068 -3.8077 -1.25757 0
M  V30 4368 H 437.658 -4.28496 0.094318 0
M  V30 4369 H 441.842 -4.88632 0.869024 0
M  V30 4370 H 437.098 -5.79392 1.9523 0
M  V30 4371 H 441.272 -6.40881 2.72478 0
M  V30 4372 H 438.899 -6.86162 3.27239 0
M  V30 4373 N 440.474 -0.00167713 -1.576 0
M  V30 4374 C 441.723 0.682021 -1.89819 0
M  V30 4375 C 442.036 1.74844 -0.876871 0
M  V30 4376 O 443.242 2.48688 -1.08934 0
M  V30 4377 C 441.698 1.26425 -3.36964 0
M  V30 4378 C 441.306 0.232568 -4.47396 0
M  V30 4379 C 443.05 1.92604 -3.78291 0
M  V30 4380 C 440.957 0.824882 -5.85619 0
M  V30 4381 H 439.887 0.258499 -0.708304 0
M  V30 4382 H 442.538 -0.0624957 -1.83394 0
M  V30 4383 H 440.92 2.05949 -3.38232 0
M  V30 4384 H 442.094 -0.5382 -4.57646 0
M  V30 4385 H 440.409 -0.32888 -4.15099 0
M  V30 4386 H 443.006 2.37827 -4.78897 0
M  V30 4387 H 443.349 2.75732 -3.11894 0
M  V30 4388 H 443.882 1.19812 -3.79328 0
M  V30 4389 H 440.621 0.0323542 -6.55492 0
M  V30 4390 H 440.141 1.56477 -5.79029 0
M  V30 4391 H 441.82 1.32301 -6.33329 0
M  V30 4392 N 441.952 1.55251 0.271103 0
M  V30 4393 C 443.18 1.79974 1.02064 0
M  V30 4394 C 443.595 0.574003 1.79863 0
M  V30 4395 O 442.952 -0.456962 1.76686 0
M  V30 4396 C 443.003 3.02603 1.97772 0
M  V30 4397 O 442.724 4.20443 1.23124 0
M  V30 4398 C 444.225 3.39944 2.84522 0
M  V30 4399 H 441.445 0.599489 0.301419 0
M  V30 4400 H 443.989 2.02268 0.301313 0
M  V30 4401 H 442.144 2.8243 2.65165 0
M  V30 4402 H 442.558 4.89783 1.87651 0
M  V30 4403 H 444.032 4.28915 3.47471 0
M  V30 4404 H 444.509 2.59432 3.54389 0
M  V30 4405 H 445.115 3.62383 2.22618 0
M  V30 4406 N 443.43 -0.535701 1.48216 0
M  V30 4407 C 444.707 -1.29683 1.46429 0
M  V30 4408 C 445.087 -2.10391 0.172852 0
M  V30 4409 O 444.435 -2.12282 -0.845488 0
M  V30 4410 C 444.645 -2.18313 2.72287 0
M  V30 4411 C 445.993 -2.78639 3.20383 0
M  V30 4412 O 447.017 -2.28604 2.73164 0
M  V30 4413 O 445.876 -3.69636 4.02531 0
M  V30 4414 H 442.97 -0.585026 0.584529 0
M  V30 4415 H 445.516 -0.552827 1.60443 0
M  V30 4416 H 444.288 -1.58421 3.57797 0
M  V30 4417 H 443.911 -2.99971 2.60966 0
M  V30 4418 N 444.908 -1.36708 -0.784132 0
M  V30 4419 C 446.138 -1.34203 -1.57077 0
M  V30 4420 C 446.546 0.0774945 -1.89041 0
M  V30 4421 O 445.889 1.04628 -1.50992 0
M  V30 4422 C 445.951 -2.10351 -2.91535 0
M  V30 4423 C 445.615 -3.59405 -2.82272 0
M  V30 4424 C 446.612 -4.53545 -2.54151 0
M  V30 4425 C 444.297 -4.02362 -3.00683 0
M  V30 4426 C 446.291 -5.8862 -2.44551 0
M  V30 4427 C 443.978 -5.37526 -2.90704 0
M  V30 4428 C 444.976 -6.30468 -2.62677 0
M  V30 4429 O 444.664 -7.63149 -2.52702 0
M  V30 4430 H 444.396 -0.461791 -0.493685 0
M  V30 4431 H 446.95 -1.80475 -0.980712 0
M  V30 4432 H 445.18 -1.5875 -3.52612 0
M  V30 4433 H 446.869 -2.00636 -3.52845 0
M  V30 4434 H 447.635 -4.21669 -2.39625 0
M  V30 4435 H 443.514 -3.30389 -3.21503 0
M  V30 4436 H 447.058 -6.61133 -2.22596 0
M  V30 4437 H 442.955 -5.69008 -3.04795 0
M  V30 4438 H 443.723 -7.73331 -2.68144 0
M  V30 4439 N 446.386 1.0089 -1.21074 0
M  V30 4440 C 447.614 1.78191 -1.05145 0
M  V30 4441 C 448.029 1.84537 0.398952 0
M  V30 4442 O 447.386 1.30393 1.27687 0
M  V30 4443 C 447.437 3.22288 -1.63746 0
M  V30 4444 O 447.158 3.16315 -3.03111 0
M  V30 4445 C 448.659 4.16106 -1.52875 0
M  V30 4446 H 445.879 0.560129 -0.369454 0
M  V30 4447 H 448.423 1.26945 -1.60328 0
M  V30 4448 H 446.578 3.70655 -1.12664 0
M  V30 4449 H 446.992 4.06817 -3.31059 0
M  V30 4450 H 448.466 5.15026 -1.98626 0
M  V30 4451 H 448.943 4.36541 -0.482521 0
M  V30 4452 H 449.549 3.73625 -2.03185 0
M  V30 4453 N 447.864 1.01787 1.20321 0
M  V30 4454 C 449.141 0.622978 1.85414 0
M  V30 4455 C 449.521 -0.898887 1.91006 0
M  V30 4456 O 448.869 -1.79112 1.41884 0
M  V30 4457 C 449.079 1.27226 3.24984 0
M  V30 4458 C 450.427 1.3885 4.01255 0
M  V30 4459 O 451.451 1.22857 3.34342 0
M  V30 4460 O 450.31 1.64705 5.2109 0
M  V30 4461 H 447.404 0.215116 0.798533 0
M  V30 4462 H 449.95 1.11533 1.27901 0
M  V30 4463 H 448.722 2.31209 3.15687 0
M  V30 4464 H 448.345 0.767069 3.90131 0
M  V30 4465 N 449.342 -1.36122 0.79427 0
M  V30 4466 C 450.567 -2.03891 0.379871 0
M  V30 4467 C 450.992 -1.59488 -0.997251 0
M  V30 4468 O 450.35 -0.765652 -1.64339 0
M  V30 4469 C 450.398 -3.57687 0.457442 0
M  V30 4470 O 449.502 -4.08931 -0.5338 0
M  V30 4471 H 448.843 -0.6443 0.160541 0
M  V30 4472 H 451.373 -1.73976 1.07673 0
M  V30 4473 H 451.383 -4.06721 0.322792 0
M  V30 4474 H 450.058 -3.89357 1.46199 0
M  V30 4475 H 448.635 -3.71154 -0.360409 0
M  V30 4476 N 450.82 -0.546701 -1.47814 0
M  V30 4477 C 451.768 0.220048 -2.31557 0
M  V30 4478 C 452.762 0.919472 -1.42275 0
M  V30 4479 O 453.968 0.841953 -1.59095 0
M  V30 4480 H 450.343 0.0898334 -0.746615 0
M  V30 4481 H 452.314 -0.505589 -2.94086 0
M  V30 4482 C 451.063 1.24353 -3.24702 0
M  V30 4483 H 450.386 0.714758 -3.93359 0
M  V30 4484 H 451.826 1.75112 -3.8615 0
M  V30 4485 C 450.285 2.28593 -2.47481 0
M  V30 4486 O 450.815 3.35334 -2.21165 0
M  V30 4487 N 449.021 2.02244 -2.08676 0
M  V30 4488 H 448.568 1.15455 -2.30278 0
M  V30 4489 H 448.526 2.72207 -1.57323 0
M  V30 4490 N 452.299 1.55045 -0.282633 0
M  V30 4491 C 453.546 1.9976 0.33199 0
M  V30 4492 C 453.874 1.17105 1.55295 0
M  V30 4493 O 453.129 0.230599 1.94337 0
M  V30 4494 C 453.428 3.49422 0.750938 0
M  V30 4495 C 453.094 4.4941 -0.366228 0
M  V30 4496 C 451.756 4.76471 -0.672964 0
M  V30 4497 C 454.108 5.09054 -1.11864 0
M  V30 4498 C 451.436 5.60442 -1.73556 0
M  V30 4499 C 453.788 5.9418 -2.17102 0
M  V30 4500 C 452.452 6.19558 -2.48402 0
M  V30 4501 H 451.722 0.730974 0.121484 0
M  V30 4502 H 454.369 1.8732 -0.39791 0
M  V30 4503 H 452.674 3.59377 1.56063 0
M  V30 4504 H 454.371 3.81432 1.23736 0
M  V30 4505 H 450.961 4.2844 -0.117041 0
M  V30 4506 H 455.145 4.88165 -0.894925 0
M  V30 4507 H 450.401 5.78349 -1.983 0
M  V30 4508 H 454.575 6.39427 -2.75873 0
M  V30 4509 H 452.202 6.84417 -3.30874 0
M  V30 4510 N 453.777 0.010035 1.57597 0
M  V30 4511 C 455.005 -0.683413 1.95287 0
M  V30 4512 C 455.42 -1.66747 0.885481 0
M  V30 4513 O 454.777 -1.82003 -0.134629 0
M  V30 4514 C 454.828 -1.40652 3.33015 0
M  V30 4515 O 454.549 -0.461916 4.35658 0
M  V30 4516 C 456.05 -2.19356 3.85225 0
M  V30 4517 H 453.27 -0.189708 0.643624 0
M  V30 4518 H 455.814 0.0641359 2.04399 0
M  V30 4519 H 453.969 -2.10562 3.2518 0
M  V30 4520 H 454.383 -0.973215 5.15392 0
M  V30 4521 H 455.857 -2.65433 4.83993 0
M  V30 4522 H 456.334 -3.02457 3.18459 0
M  V30 4523 H 456.94 -1.54442 3.96267 0
M  V30 4524 N 455.255 -1.55392 -0.262866 0
M  V30 4525 C 456.187 -1.85392 -1.34768 0
M  V30 4526 C 457.2 -0.739069 -1.45057 0
M  V30 4527 O 458.389 -1.01703 -1.46693 0
M  V30 4528 C 455.489 -2.01088 -2.72795 0
M  V30 4529 C 454.662 -3.31828 -2.84972 0
M  V30 4530 C 453.721 -3.37464 -4.03738 0
M  V30 4531 O 452.747 -4.10778 -3.94018 0
M  V30 4532 N 453.949 -2.65599 -5.16176 0
M  V30 4533 H 456.714 -2.79029 -1.09375 0
M  V30 4534 H 454.275 -1.55434 -0.452981 0
M  V30 4535 H 456.267 -2.02217 -3.50557 0
M  V30 4536 H 454.837 -1.1427 -2.90966 0
M  V30 4537 H 454.057 -3.43152 -1.94012 0
M  V30 4538 H 455.345 -4.18032 -2.90045 0
M  V30 4539 H 454.743 -2.05736 -5.26962 0
M  V30 4540 H 453.3 -2.72439 -5.92132 0
M  V30 4541 N 456.733 0.527833 -1.48498 0
M  V30 4542 C 457.963 1.30633 -1.60058 0
M  V30 4543 C 458.371 1.87394 -0.260786 0
M  V30 4544 O 457.714 1.67227 0.760317 0
M  V30 4545 C 457.776 2.49361 -2.58958 0
M  V30 4546 C 457.44 2.13671 -4.03972 0
M  V30 4547 C 458.437 1.69217 -4.91591 0
M  V30 4548 C 456.122 2.24129 -4.49524 0
M  V30 4549 C 458.116 1.35689 -6.2279 0
M  V30 4550 C 455.803 1.90212 -5.80743 0
M  V30 4551 C 456.801 1.46063 -6.67199 0
M  V30 4552 O 456.489 1.12593 -7.95976 0
M  V30 4553 H 456.221 0.403444 -0.54241 0
M  V30 4554 H 458.775 0.643233 -1.95068 0
M  V30 4555 H 457.005 3.18659 -2.19073 0
M  V30 4556 H 458.694 3.11421 -2.6033 0
M  V30 4557 H 459.46 1.60607 -4.57636 0
M  V30 4558 H 455.339 2.57447 -3.82416 0
M  V30 4559 H 458.883 1.01157 -6.90227 0
M  V30 4560 H 454.78 1.98464 -6.14233 0
M  V30 4561 H 455.548 1.25972 -8.08748 0
M  V30 4562 N 458.211 1.37122 0.776871 0
M  V30 4563 C 459.141 1.35164 1.90402 0
M  V30 4564 C 460.122 0.221069 1.68657 0
M  V30 4565 O 461.307 0.420642 1.8959 0
M  V30 4566 C 458.437 1.15274 3.27611 0
M  V30 4567 C 457.391 2.25289 3.63908 0
M  V30 4568 C 456.717 1.90527 4.99603 0
M  V30 4569 C 458.017 3.67446 3.71188 0
M  V30 4570 H 459.711 2.29482 1.92297 0
M  V30 4571 H 457.257 1.10465 0.923773 0
M  V30 4572 H 459.21 1.12536 4.06096 0
M  V30 4573 H 457.934 0.174102 3.26136 0
M  V30 4574 H 456.593 2.27174 2.87728 0
M  V30 4575 H 456.241 0.91206 4.94662 0
M  V30 4576 H 455.941 2.64193 5.24858 0
M  V30 4577 H 457.465 1.89367 5.80493 0
M  V30 4578 H 458.879 3.67719 4.39836 0
M  V30 4579 H 457.276 4.40123 4.07936 0
M  V30 4580 H 458.346 4.01443 2.71977 0
M  V30 4581 N 459.689 -1.00246 1.21608 0
M  V30 4582 C 460.917 -1.77631 1.06089 0
M  V30 4583 C 461.332 -1.84746 -0.38916 0
M  V30 4584 O 460.689 -1.31068 -1.26994 0
M  V30 4585 C 460.74 -3.21415 1.65453 0
M  V30 4586 O 460.461 -3.14703 3.04785 0
M  V30 4587 C 461.962 -4.15289 1.55079 0
M  V30 4588 H 459.182 -0.558162 0.37242 0
M  V30 4589 H 461.726 -1.26093 1.60999 0
M  V30 4590 H 459.881 -3.70053 1.14629 0
M  V30 4591 H 460.295 -4.05056 3.33212 0
M  V30 4592 H 461.769 -5.13965 2.01355 0
M  V30 4593 H 462.246 -4.36279 0.505665 0
M  V30 4594 H 462.852 -3.72543 2.05163 0
M  V30 4595 N 461.167 -1.02423 -1.1978 0
M  V30 4596 C 462.099 -0.559152 -2.22275 0
M  V30 4597 C 463.112 0.36251 -1.58713 0
M  V30 4598 O 464.301 0.159641 -1.77785 0
M  V30 4599 C 461.401 0.205094 -3.38279 0
M  V30 4600 C 460.574 -0.720361 -4.31427 0
M  V30 4601 C 459.633 -0.00234368 -5.262 0
M  V30 4602 O 458.659 -0.627378 -5.65732 0
M  V30 4603 N 459.861 1.26996 -5.66438 0
M  V30 4604 H 462.626 -1.44064 -2.62804 0
M  V30 4605 H 460.187 -0.902692 -1.34399 0
M  V30 4606 H 462.179 0.694868 -3.9869 0
M  V30 4607 H 460.749 0.987947 -2.96578 0
M  V30 4608 H 459.969 -1.39031 -3.68869 0
M  V30 4609 H 461.257 -1.3495 -4.90577 0
M  V30 4610 H 460.655 1.79858 -5.36347 0
M  V30 4611 H 459.212 1.70432 -6.29123 0
M  V30 4612 N 462.645 1.35699 -0.801477 0
M  V30 4613 C 463.575 2.32436 -0.222658 0
M  V30 4614 C 464.556 1.5723 0.649057 0
M  V30 4615 O 465.741 1.85324 0.580387 0
M  V30 4616 C 462.871 3.41469 0.633719 0
M  V30 4617 C 461.825 4.27774 -0.139083 0
M  V30 4618 C 461.151 5.28082 0.838666 0
M  V30 4619 C 462.451 5.04946 -1.33517 0
M  V30 4620 H 464.145 2.81094 -1.03086 0
M  V30 4621 H 461.691 1.35146 -0.497155 0
M  V30 4622 H 463.644 4.08143 1.04868 0
M  V30 4623 H 462.368 2.91408 1.47475 0
M  V30 4624 H 461.027 3.62673 -0.535156 0
M  V30 4625 H 460.675 4.7429 1.67506 0
M  V30 4626 H 460.375 5.86695 0.32594 0
M  V30 4627 H 461.899 5.97628 1.25194 0
M  V30 4628 H 463.313 5.64593 -0.995349 0
M  V30 4629 H 461.71 5.7303 -1.78202 0
M  V30 4630 H 462.78 4.35886 -2.12442 0
M  V30 4631 N 464.123 0.554532 1.47522 0
M  V30 4632 C 465.056 -0.242442 2.26908 0
M  V30 4633 C 466.034 -0.922722 1.33883 0
M  V30 4634 O 467.218 -0.942244 1.63261 0
M  V30 4635 C 464.345 -1.34525 3.10839 0
M  V30 4636 C 463.391 -0.773805 4.19422 0
M  V30 4637 S 464.224 0.377525 5.34168 0
M  V30 4638 C 465.38 -0.727164 6.21662 0
M  V30 4639 H 465.613 0.431218 2.94156 0
M  V30 4640 H 463.146 0.3408 1.50592 0
M  V30 4641 H 465.104 -1.97683 3.59766 0
M  V30 4642 H 463.765 -1.99073 2.42958 0
M  V30 4643 H 462.958 -1.60187 4.77866 0
M  V30 4644 H 462.56 -0.218448 3.73361 0
M  V30 4645 H 464.852 -1.61992 6.57849 0
M  V30 4646 H 465.795 -0.180135 7.07871 0
M  V30 4647 H 466.203 -1.01863 5.55233 0
M  V30 4648 N 465.601 -1.54893 0.290851 0
M  V30 4649 C 466.878 -1.91991 -0.373989 0
M  V30 4650 C 467.258 -1.21694 -1.72493 0
M  V30 4651 O 466.606 -0.34917 -2.25816 0
M  V30 4652 C 466.816 -3.45419 -0.498703 0
M  V30 4653 C 468.164 -4.1748 -0.774298 0
M  V30 4654 O 469.188 -3.51398 -0.582908 0
M  V30 4655 O 468.047 -5.3445 -1.14129 0
M  V30 4656 H 465.141 -0.800593 -0.207315 0
M  V30 4657 H 467.687 -1.66297 0.338164 0
M  V30 4658 H 466.459 -3.88688 0.451392 0
M  V30 4659 H 466.082 -3.77117 -1.25972 0
M  V30 4660 N 467.08 -0.0183926 -1.57589 0
M  V30 4661 C 467.99 0.982943 -2.13015 0
M  V30 4662 C 469.006 1.36443 -1.07979 0
M  V30 4663 O 470.182 1.44802 -1.3998 0
M  V30 4664 C 467.247 2.25024 -2.63752 0
M  V30 4665 C 466.308 1.93018 -3.83461 0
M  V30 4666 C 465.541 3.13706 -4.31769 0
M  V30 4667 O 465.764 4.2601 -3.79305 0
M  V30 4668 O 464.698 2.96629 -5.23732 0
M  V30 4669 H 468.524 0.541709 -2.9883 0
M  V30 4670 H 466.109 0.201565 -1.48034 0
M  V30 4671 H 467.991 2.99441 -2.96502 0
M  V30 4672 H 466.666 2.68349 -1.81026 0
M  V30 4673 H 465.573 1.16019 -3.55655 0
M  V30 4674 H 466.906 1.54516 -4.67317 0
M  V30 4675 N 468.558 1.5553 0.254621 0
M  V30 4676 C 469.788 1.80784 1.00004 0
M  V30 4677 C 470.196 0.59071 1.79742 0
M  V30 4678 O 469.539 -0.449988 1.78103 0
M  V30 4679 C 469.601 2.99268 1.99196 0
M  V30 4680 C 469.265 4.35595 1.38224 0
M  V30 4681 C 470.262 5.13884 0.788611 0
M  V30 4682 C 467.947 4.82281 1.40393 0
M  V30 4683 C 469.941 6.37004 0.224783 0
M  V30 4684 C 467.628 6.05351 0.836243 0
M  V30 4685 C 468.626 6.82551 0.24769 0
M  V30 4686 O 468.314 8.03297 -0.311249 0
M  V30 4687 H 468.046 0.60565 0.300274 0
M  V30 4688 H 470.6 2.03411 0.285143 0
M  V30 4689 H 468.83 2.72377 2.74496 0
M  V30 4690 H 470.519 3.11682 2.60018 0
M  V30 4691 H 471.285 4.78938 0.764423 0
M  V30 4692 H 467.164 4.22189 1.85142 0
M  V30 4693 H 470.708 6.97203 -0.235235 0
M  V30 4694 H 466.605 6.39776 0.857733 0
M  V30 4695 H 467.373 8.1825 -0.20237 0
M  V30 4696 N 470.036 -0.519951 1.48776 0
M  V30 4697 C 470.966 -1.63253 1.66945 0
M  V30 4698 C 471.947 -1.62014 0.518224 0
M  V30 4699 O 473.132 -1.79053 0.751919 0
M  V30 4700 C 470.262 -3.0181 1.71836 0
M  V30 4701 C 469.216 -3.17911 2.8656 0
M  V30 4702 C 468.542 -4.5763 2.76548 0
M  V30 4703 C 469.842 -2.99729 4.27738 0
M  V30 4704 H 471.536 -1.48302 2.6009 0
M  V30 4705 H 469.082 -0.712026 1.25165 0
M  V30 4706 H 471.035 -3.79525 1.83135 0
M  V30 4707 H 469.759 -3.17806 0.752775 0
M  V30 4708 H 468.418 -2.42616 2.74833 0
M  V30 4709 H 468.066 -4.70476 1.77937 0
M  V30 4710 H 467.766 -4.69346 3.53536 0
M  V30 4711 H 469.29 -5.37431 2.89828 0
M  V30 4712 H 470.704 -3.67228 4.40246 0
M  V30 4713 H 469.101 -3.22932 5.05801 0
M  V30 4714 H 470.171 -1.96047 4.43502 0
M  V30 4715 N 471.514 -1.37532 -0.769588 0
M  V30 4716 C 472.925 -1.29382 -1.346 0
M  V30 4717 C 473.276 0.0576039 -1.96115 0
M  V30 4718 O 472.401 0.95947 -1.93967 0
M  V30 4719 C 472.996 -2.34298 -2.44724 0
M  V30 4720 C 471.555 -2.29776 -2.98128 0
M  V30 4721 C 470.702 -2.18013 -1.71364 0
M  V30 4722 H 473.653 -1.48123 -0.56968 0
M  V30 4723 H 473.674 -1.99089 -3.24259 0
M  V30 4724 H 473.186 -3.32645 -1.99922 0
M  V30 4725 H 471.287 -1.34959 -3.47299 0
M  V30 4726 H 471.4 -3.23276 -3.53595 0
M  V30 4727 H 469.764 -1.64595 -1.94372 0
M  V30 4728 H 470.547 -3.18278 -1.28662 0
M  V30 4729 N 472.992 0.995999 -1.22138 0
M  V30 4730 C 474.217 1.77601 -1.0711 0
M  V30 4731 C 474.642 1.84339 0.374264 0
M  V30 4732 O 474 1.29359 1.27028 0
M  V30 4733 C 474.048 3.18897 -1.68336 0
M  V30 4734 O 473.152 4.01663 -0.934928 0
M  V30 4735 H 472.493 0.547011 -0.376397 0
M  V30 4736 H 475.023 1.25137 -1.6187 0
M  V30 4737 H 475.033 3.69539 -1.72931 0
M  V30 4738 H 473.708 3.13308 -2.73516 0
M  V30 4739 H 472.285 3.60204 -0.964751 0
M  V30 4740 N 474.47 1.03057 1.19235 0
M  V30 4741 C 475.4 0.633497 2.24742 0
M  V30 4742 C 476.381 -0.358335 1.66283 0
M  V30 4743 O 477.566 -0.240676 1.92703 0
M  V30 4744 C 474.696 -0.0147648 3.47297 0
M  V30 4745 C 473.65 0.899527 4.18441 0
M  V30 4746 C 472.976 0.116281 5.34574 0
M  V30 4747 C 474.276 2.21404 4.73051 0
M  V30 4748 H 475.97 1.5155 2.58211 0
M  V30 4749 H 473.516 0.73014 1.24117 0
M  V30 4750 H 475.469 -0.304202 4.20301 0
M  V30 4751 H 474.193 -0.931577 3.13032 0
M  V30 4752 H 472.852 1.17319 3.47321 0
M  V30 4753 H 472.5 -0.802619 4.96555 0
M  V30 4754 H 472.2 0.725293 5.83107 0
M  V30 4755 H 473.724 -0.166376 6.10373 0
M  V30 4756 H 475.138 1.98601 5.37802 0
M  V30 4757 H 473.535 2.77512 5.32078 0
M  V30 4758 H 474.605 2.86752 3.91026 0
M  V30 4759 N 475.948 -1.35272 0.808662 0
M  V30 4760 C 477.176 -2.02946 0.402537 0
M  V30 4761 C 477.591 -1.60937 -0.987147 0
M  V30 4762 O 476.948 -0.807917 -1.63643 0
M  V30 4763 C 476.999 -3.58317 0.47868 0
M  V30 4764 O 476.72 -3.98799 1.81358 0
M  V30 4765 C 478.221 -4.43251 0.0656281 0
M  V30 4766 H 475.441 -0.650831 0.163279 0
M  V30 4767 H 477.985 -1.72849 1.09286 0
M  V30 4768 H 476.14 -3.87055 -0.163415 0
M  V30 4769 H 476.554 -4.93451 1.77781 0
M  V30 4770 H 478.028 -5.51738 0.170017 0
M  V30 4771 H 478.505 -4.27913 -0.989278 0
M  V30 4772 H 479.111 -4.19813 0.68096 0
M  V30 4773 N 477.426 -0.562348 -1.47226 0
M  V30 4774 C 478.656 -0.0451619 -2.06551 0
M  V30 4775 C 479.064 1.25626 -1.41473 0
M  V30 4776 O 478.407 1.76563 -0.507061 0
M  V30 4777 C 478.469 0.216068 -3.5885 0
M  V30 4778 C 478.133 -0.996691 -4.45999 0
M  V30 4779 C 479.13 -1.90358 -4.83797 0
M  V30 4780 C 476.815 -1.21281 -4.87438 0
M  V30 4781 C 478.809 -3.01023 -5.6184 0
M  V30 4782 C 476.496 -2.32255 -5.65244 0
M  V30 4783 C 477.494 -3.21956 -6.02356 0
M  V30 4784 O 477.182 -4.31005 -6.78594 0
M  V30 4785 H 476.914 -0.0451646 -0.67449 0
M  V30 4786 H 479.468 -0.776842 -1.90143 0
M  V30 4787 H 477.698 1.00212 -3.7349 0
M  V30 4788 H 479.387 0.679264 -4.00176 0
M  V30 4789 H 480.153 -1.74868 -4.52378 0
M  V30 4790 H 476.032 -0.523767 -4.58015 0
M  V30 4791 H 479.576 -3.71064 -5.90726 0
M  V30 4792 H 475.473 -2.47715 -5.96077 0
M  V30 4793 H 476.241 -4.29118 -6.96994 0
M  V30 4794 N 478.904 1.54736 -0.299062 0
M  V30 4795 C 480.152 1.99706 0.31017 0
M  V30 4796 C 480.473 1.18896 1.54559 0
M  V30 4797 O 479.743 0.284445 1.93824 0
M  V30 4798 H 478.323 0.737686 0.117596 0
M  V30 4799 H 480.985 1.9054 -0.409943 0
M  V30 4800 H 480.081 3.06596 0.58355 0
M  V30 4801 N 480.382 0.0267497 1.57577 0
M  V30 4802 C 481.629 -0.652404 1.91703 0
M  V30 4803 C 481.957 -1.72271 0.902936 0
M  V30 4804 O 481.212 -1.955 -0.0884843 0
M  V30 4805 C 481.511 -1.30914 3.3256 0
M  V30 4806 C 481.177 -0.369441 4.49384 0
M  V30 4807 C 479.839 -0.110791 4.81072 0
M  V30 4808 C 482.191 0.275971 5.20469 0
M  V30 4809 C 479.519 0.801116 5.81205 0
M  V30 4810 C 481.871 1.17592 6.21575 0
M  V30 4811 C 480.535 1.44348 6.51705 0
M  V30 4812 H 479.805 -0.238732 0.70149 0
M  V30 4813 H 482.452 0.0880091 1.91298 0
M  V30 4814 H 480.757 -2.12425 3.29216 0
M  V30 4815 H 482.454 -1.84115 3.56234 0
M  V30 4816 H 479.044 -0.581211 4.24641 0
M  V30 4817 H 483.228 0.0892 4.9622 0
M  V30 4818 H 478.484 1.01614 6.02897 0
M  V30 4819 H 482.658 1.68223 6.75777 0
M  V30 4820 H 480.285 2.15176 7.29111 0
M  V30 4821 N 481.861 -1.55662 -0.24637 0
M  V30 4822 C 483.138 -1.68272 -0.997198 0
M  V30 4823 C 483.518 -0.566785 -2.03349 0
M  V30 4824 O 482.866 0.429688 -2.24424 0
M  V30 4825 C 483.076 -3.08594 -1.63006 0
M  V30 4826 C 484.424 -3.6721 -2.13171 0
M  V30 4827 O 485.448 -3.11397 -1.72946 0
M  V30 4828 O 484.307 -4.65054 -2.87031 0
M  V30 4829 H 481.401 -0.684429 -0.464205 0
M  V30 4830 H 483.947 -1.67993 -0.240114 0
M  V30 4831 H 482.719 -3.81264 -0.880527 0
M  V30 4832 H 482.342 -3.12886 -2.45333 0
M  V30 4833 N 483.339 0.512053 -1.4905 0
M  V30 4834 C 484.567 1.29116 -1.61669 0
M  V30 4835 C 484.982 1.86655 -0.283787 0
M  V30 4836 O 484.339 1.67293 0.729331 0
M  V30 4837 C 484.39 2.4293 -2.67707 0
M  V30 4838 O 484.111 1.87758 -3.95826 0
M  V30 4839 C 485.612 3.34476 -2.90931 0
M  V30 4840 H 482.832 0.392009 -0.544583 0
M  V30 4841 H 485.376 0.615881 -1.95006 0
M  V30 4842 H 483.531 3.06308 -2.37179 0
M  V30 4843 H 483.945 2.62393 -4.54148 0
M  V30 4844 H 485.419 4.10642 -3.68886 0
M  V30 4845 H 485.896 3.90801 -2.00427 0
M  V30 4846 H 486.502 2.76874 -3.22832 0
M  V30 4847 N 484.817 1.37938 0.762283 0
M  V30 4848 C 486.057 1.35076 1.53407 0
M  V30 4849 C 486.421 -0.061546 1.91901 0
M  V30 4850 O 487.622 -0.214973 2.67939 0
M  V30 4851 C 485.893 2.27206 2.75884 0
M  V30 4852 S 487.452 2.42283 3.65848 0
M  V30 4853 H 484.27 0.479387 0.52508 0
M  V30 4854 H 486.872 1.7378 0.895586 0
M  V30 4855 H 485.576 3.28724 2.457 0
M  V30 4856 H 485.107 1.8962 3.44685 0
M  V30 4857 H 487.122 1.64044 4.68299 0
M  V30 4858 N 486.295 -0.989507 1.22664 0
M  V30 4859 C 487.543 -1.72612 1.05117 0
M  V30 4860 C 487.864 -1.90552 -0.414131 0
M  V30 4861 O 487.134 -1.4676 -1.29762 0
M  V30 4862 H 485.714 -0.639555 0.385977 0
M  V30 4863 H 488.376 -1.19158 1.54232 0
M  V30 4864 H 487.472 -2.71926 1.53175 0
M  V30 4865 N 487.773 -1.03688 -1.18687 0
M  V30 4866 C 489.003 -0.756819 -1.92239 0
M  V30 4867 C 489.411 0.689374 -1.76194 0
M  V30 4868 O 488.754 1.48126 -1.08648 0
M  V30 4869 C 488.816 -1.03851 -3.44173 0
M  V30 4870 C 488.48 -2.47785 -3.83994 0
M  V30 4871 C 489.477 -3.4595 -3.88091 0
M  V30 4872 C 487.162 -2.82397 -4.154 0
M  V30 4873 C 489.156 -4.76779 -4.23038 0
M  V30 4874 C 486.843 -4.13433 -4.50018 0
M  V30 4875 C 487.841 -5.10434 -4.53813 0
M  V30 4876 O 487.529 -6.39122 -4.87625 0
M  V30 4877 H 487.261 -0.275678 -0.617234 0
M  V30 4878 H 489.815 -1.38658 -1.51536 0
M  V30 4879 H 488.045 -0.351612 -3.85098 0
M  V30 4880 H 489.734 -0.746846 -3.9897 0
M  V30 4881 H 490.5 -3.20549 -3.63969 0
M  V30 4882 H 486.379 -2.07568 -4.11627 0
M  V30 4883 H 489.923 -5.52488 -4.25914 0
M  V30 4884 H 485.82 -4.38604 -4.736 0
M  V30 4885 H 486.588 -6.43715 -5.05542 0
M  V30 4886 N 489.251 1.34841 -0.815825 0
M  V30 4887 C 490.214 2.27959 -0.238185 0
M  V30 4888 C 491.214 1.49983 0.579816 0
M  V30 4889 O 492.404 1.69617 0.396953 0
M  V30 4890 C 489.536 3.34314 0.666876 0
M  V30 4891 H 490.729 2.80558 -1.05958 0
M  V30 4892 H 488.282 1.44852 -0.587156 0
M  V30 4893 H 489.017 2.86916 1.5116 0
M  V30 4894 H 488.802 3.92014 0.0819106 0
M  V30 4895 H 490.292 4.0379 1.06506 0
M  V30 4896 N 490.729 0.570148 1.46925 0
M  V30 4897 C 491.969 0.0534743 2.0433 0
M  V30 4898 C 492.333 -1.27729 1.4335 0
M  V30 4899 O 493.534 -1.88244 1.91879 0
M  V30 4900 C 491.805 -0.0244296 3.57392 0
M  V30 4901 S 493.364 -0.485351 4.36108 0
M  V30 4902 H 490.182 0.0313908 0.710307 0
M  V30 4903 H 492.784 0.759808 1.80131 0
M  V30 4904 H 491.488 0.948261 3.99295 0
M  V30 4905 H 491.019 -0.753922 3.86108 0
M  V30 4906 H 493.034 -1.74258 4.64595 0
M  V30 4907 N 492.207 -1.54576 0.307264 0
M  V30 4908 C 493.432 -2.05139 -0.305379 0
M  V30 4909 C 493.857 -1.18278 -1.46259 0
M  V30 4910 O 493.215 -0.188243 -1.8032 0
M  V30 4911 C 493.263 -3.53066 -0.733283 0
M  V30 4912 O 492.367 -3.69206 -1.83741 0
M  V30 4913 H 491.708 -0.661444 -0.0582105 0
M  V30 4914 H 494.238 -1.99569 0.450931 0
M  V30 4915 H 494.248 -3.95034 -1.02039 0
M  V30 4916 H 492.923 -4.15746 0.113198 0
M  V30 4917 H 491.5 -3.39143 -1.55037 0
M  V30 4918 N 493.685 -0.035106 -1.57561 0
M  V30 4919 C 494.962 0.681212 -1.83354 0
M  V30 4920 C 495.342 1.89986 -0.920252 0
M  V30 4921 O 494.69 2.28489 0.0226815 0
M  V30 4922 C 494.9 1.05376 -3.32712 0
M  V30 4923 C 496.248 1.44286 -3.99333 0
M  V30 4924 O 497.272 1.14656 -3.37242 0
M  V30 4925 O 496.131 1.99518 -5.08778 0
M  V30 4926 H 493.225 0.334741 -0.756226 0
M  V30 4927 H 495.771 -0.0632448 -1.69582 0
M  V30 4928 H 494.543 0.186668 -3.90854 0
M  V30 4929 H 494.166 1.85619 -3.51613 0
M  V30 4930 N 495.163 1.55791 0.238111 0
M  V30 4931 C 496.113 1.87444 1.29803 0
M  V30 4932 C 497.097 0.736043 1.43078 0
M  V30 4933 O 498.289 0.998146 1.46171 0
M  V30 4934 C 495.418 2.18028 2.65177 0
M  V30 4935 C 494.504 3.38217 2.55871 0
M  V30 4936 N 494.895 4.57264 2.16202 0
M  V30 4937 C 493.193 3.41502 2.86866 0
M  V30 4938 C 493.894 5.3941 2.17744 0
M  V30 4939 N 492.87 4.78695 2.57589 0
M  V30 4940 H 496.672 2.7701 0.981965 0
M  V30 4941 H 494.186 1.56135 0.44672 0
M  V30 4942 H 496.183 2.38873 3.4168 0
M  V30 4943 H 494.843 1.29765 2.97643 0
M  V30 4944 H 495.854 4.82727 1.87602 0
M  V30 4945 H 492.531 2.63536 3.23813 0
M  V30 4946 H 493.921 6.44671 1.89339 0
M  V30 4947 N 496.642 -0.504142 1.49319 0
M  V30 4948 C 497.605 -1.5883 1.65244 0
M  V30 4949 C 498.605 -1.52009 0.524386 0
M  V30 4950 O 499.795 -1.55218 0.79077 0
M  V30 4951 C 496.927 -2.98481 1.64687 0
M  V30 4952 H 498.12 -1.4604 2.61939 0
M  V30 4953 H 495.673 -0.728144 1.38303 0
M  V30 4954 H 496.408 -3.16751 0.695644 0
M  V30 4955 H 496.193 -3.0484 2.46607 0
M  V30 4956 H 497.683 -3.77256 1.79075 0
M  V30 4957 N 498.12 -1.38341 -0.754957 0
M  V30 4958 C 499.345 -1.37882 -1.5493 0
M  V30 4959 C 499.77 0.0296385 -1.88077 0
M  V30 4960 O 499.128 1.01133 -1.50472 0
M  V30 4961 C 499.176 -2.23996 -2.82592 0
M  V30 4962 O 498.28 -1.65612 -3.77686 0
M  V30 4963 H 497.621 -0.470384 -0.468652 0
M  V30 4964 H 500.151 -1.82084 -0.933082 0
M  V30 4965 H 500.161 -2.37806 -3.3153 0
M  V30 4966 H 498.836 -3.26365 -2.57796 0
M  V30 4967 H 497.413 -1.60936 -3.36384 0
M  V30 4968 N 499.598 0.982988 -1.23187 0
M  V30 4969 C 500.844 1.7273 -1.07405 0
M  V30 4970 C 501.199 1.885 0.385447 0
M  V30 4971 O 500.492 1.4243 1.28157 0
M  V30 4972 C 500.686 3.12736 -1.73006 0
M  V30 4973 C 500.515 3.10621 -3.25184 0
M  V30 4974 C 499.285 3.15957 -3.94334 0
M  V30 4975 C 501.483 2.93992 -4.21987 0
M  V30 4976 N 499.465 3.03701 -5.33516 0
M  V30 4977 C 500.836 2.8987 -5.48065 0
M  V30 4978 C 502.891 2.78457 -4.12754 0
M  V30 4979 C 501.594 2.71804 -6.65969 0
M  V30 4980 C 503.62 2.61754 -5.30319 0
M  V30 4981 C 502.982 2.58328 -6.55321 0
M  V30 4982 H 499.081 0.641279 -0.447533 0
M  V30 4983 H 501.665 1.16664 -1.55877 0
M  V30 4984 H 499.836 3.67026 -1.2707 0
M  V30 4985 H 501.568 3.75786 -1.50224 0
M  V30 4986 H 498.323 3.24034 -3.45397 0
M  V30 4987 H 498.747 3.00855 -6.06478 0
M  V30 4988 H 503.389 2.79898 -3.16886 0
M  V30 4989 H 501.107 2.69108 -7.61975 0
M  V30 4990 H 504.693 2.50702 -5.25014 0
M  V30 4991 H 503.573 2.45564 -7.4476 0
M  V30 4992 N 501.076 1.04316 1.18135 0
M  V30 4993 C 502.026 0.606731 2.19779 0
M  V30 4994 C 503.01 -0.352144 1.56999 0
M  V30 4995 O 504.202 -0.170795 1.76174 0
M  V30 4996 C 501.331 -0.0262443 3.4329 0
M  V30 4997 C 500.417 0.955928 4.13186 0
M  V30 4998 N 500.808 2.12395 4.59045 0
M  V30 4999 C 499.106 0.782473 4.39082 0
M  V30 5000 C 499.807 2.74458 5.12882 0
M  V30 5001 N 498.783 2.02316 5.04548 0
M  V30 5002 H 502.585 1.49679 2.5293 0
M  V30 5003 H 500.099 0.912088 1.34368 0
M  V30 5004 H 502.096 -0.356617 4.15372 0
M  V30 5005 H 500.756 -0.911811 3.11635 0
M  V30 5006 H 501.767 2.50272 4.53414 0
M  V30 5007 H 498.444 -0.0527906 4.17467 0
M  V30 5008 H 499.834 3.73459 5.5855 0
M  V30 5009 N 502.554 -1.34406 0.822964 0
M  V30 5010 C 503.502 -2.31428 0.233165 0
M  V30 5011 C 504.496 -1.57404 -0.626118 0
M  V30 5012 O 505.702 -1.72402 -0.517453 0
M  V30 5013 H 502.077 -0.749863 0.0566557 0
M  V30 5014 H 504.048 -2.78699 1.06628 0
M  V30 5015 C 502.797 -3.42653 -0.590264 0
M  V30 5016 H 502.12 -3.99753 0.0616129 0
M  V30 5017 H 503.56 -4.12778 -0.969054 0
M  V30 5018 C 502.019 -2.87112 -1.76262 0
M  V30 5019 O 502.549 -2.81995 -2.8608 0
M  V30 5020 N 500.755 -2.43934 -1.57938 0
M  V30 5021 H 500.302 -2.48296 -0.686078 0
M  V30 5022 H 500.26 -2.07123 -2.36532 0
M  V30 5023 N 504.032 -0.577932 -1.46621 0
M  V30 5024 C 504.995 0.147805 -2.28723 0
M  V30 5025 C 505.995 0.823325 -1.38123 0
M  V30 5026 O 507.185 0.676011 -1.60548 0
M  V30 5027 C 504.317 1.21853 -3.18378 0
M  V30 5028 H 505.51 -0.573654 -2.94362 0
M  V30 5029 H 503.063 -0.335703 -1.52652 0
M  V30 5030 H 503.798 1.97173 -2.57475 0
M  V30 5031 H 503.583 0.738714 -3.85078 0
M  V30 5032 H 505.073 1.72768 -3.80186 0
M  V30 5033 N 505.51 1.54411 -0.315457 0
M  V30 5034 C 506.758 2.00023 0.288971 0
M  V30 5035 C 507.079 1.20529 1.5329 0
M  V30 5036 O 506.349 0.304986 1.93511 0
M  V30 5037 H 504.929 0.738891 0.109766 0
M  V30 5038 H 507.591 1.90094 -0.430129 0
M  V30 5039 H 506.687 3.07198 0.550999 0
M  V30 5040 N 506.988 0.0434614 1.5754 0
M  V30 5041 C 508.218 -0.640905 1.96408 0
M  V30 5042 C 508.626 -1.65365 0.919297 0
M  V30 5043 O 507.969 -1.83395 -0.105795 0
M  V30 5044 C 508.031 -1.39141 3.31482 0
M  V30 5045 C 507.695 -0.535375 4.53853 0
M  V30 5046 C 508.692 0.195335 5.19533 0
M  V30 5047 C 506.377 -0.468564 5.0011 0
M  V30 5048 C 508.371 0.981377 6.298 0
M  V30 5049 C 506.058 0.321171 6.10255 0
M  V30 5050 C 507.056 1.04484 6.74961 0
M  V30 5051 O 506.744 1.8216 7.8299 0
M  V30 5052 H 506.476 -0.180584 0.651433 0
M  V30 5053 H 509.03 0.103848 2.05137 0
M  V30 5054 H 507.26 -2.18162 3.19284 0
M  V30 5055 H 508.949 -1.96526 3.55151 0
M  V30 5056 H 509.715 0.15314 4.84758 0
M  V30 5057 H 505.594 -1.02142 4.49542 0
M  V30 5058 H 509.138 1.54674 6.80237 0
M  V30 5059 H 505.035 0.365032 6.44467 0
M  V30 5060 H 505.803 1.74289 7.99728 0
M  V30 5061 N 508.466 -1.55915 -0.229846 0
M  V30 5062 C 509.877 -1.68809 -0.797531 0
M  V30 5063 C 510.228 -0.643995 -1.8533 0
M  V30 5064 O 509.353 0.206492 -2.15413 0
M  V30 5065 C 509.948 -3.06043 -1.45338 0
M  V30 5066 C 508.507 -3.20819 -1.96856 0
M  V30 5067 C 507.654 -2.6472 -0.825736 0
M  V30 5068 H 510.605 -1.58699 -0.00533733 0
M  V30 5069 H 510.626 -3.01438 -2.32196 0
M  V30 5070 H 510.138 -3.82012 -0.684743 0
M  V30 5071 H 508.239 -2.49704 -2.76548 0
M  V30 5072 H 508.352 -4.27937 -2.15423 0
M  V30 5073 H 506.716 -2.22985 -1.23084 0
M  V30 5074 H 507.499 -3.43229 -0.0699019 0
M  V30 5075 N 509.944 0.496216 -1.49584 0
M  V30 5076 C 510.907 1.57952 -1.66084 0
M  V30 5077 C 511.907 1.51729 -0.53244 0
M  V30 5078 O 513.097 1.54796 -0.79899 0
M  V30 5079 C 510.229 2.97604 -1.66268 0
M  V30 5080 H 511.422 1.44649 -2.6271 0
M  V30 5081 H 508.975 0.7208 -1.38687 0
M  V30 5082 H 509.71 3.16378 -0.712432 0
M  V30 5083 H 509.495 3.03528 -2.4822 0
M  V30 5084 H 510.985 3.76301 -1.81073 0
M  V30 5085 N 511.423 1.38739 0.74761 0
M  V30 5086 C 512.386 1.36241 1.84312 0
M  V30 5087 C 513.386 0.261811 1.58654 0
M  V30 5088 O 514.576 0.519031 1.66288 0
M  V30 5089 C 511.708 1.12253 3.21888 0
M  V30 5090 H 512.901 2.33712 1.87933 0
M  V30 5091 H 510.454 1.2412 0.949946 0
M  V30 5092 H 511.189 0.154133 3.23934 0
M  V30 5093 H 510.974 1.91943 3.41907 0
M  V30 5094 H 512.464 1.13215 4.0196 0
M  V30 5095 N 512.901 -0.976442 1.23707 0
M  V30 5096 C 513.834 -2.06793 0.964973 0
M  V30 5097 C 514.812 -1.62304 -0.0981472 0
M  V30 5098 O 515.996 -1.88464 0.0369477 0
M  V30 5099 C 513.123 -3.35636 0.454522 0
M  V30 5100 C 512.169 -3.99069 1.50485 0
M  V30 5101 S 513.002 -4.37814 3.0835 0
M  V30 5102 C 514.158 -5.69805 2.58985 0
M  V30 5103 H 514.391 -2.29556 1.88922 0
M  V30 5104 H 511.924 -1.11317 1.06995 0
M  V30 5105 H 513.882 -4.10162 0.166626 0
M  V30 5106 H 512.543 -3.10876 -0.448871 0
M  V30 5107 H 511.736 -4.91896 1.09792 0
M  V30 5108 H 511.338 -3.30938 1.7423 0
M  V30 5109 H 513.63 -6.46919 2.01252 0
M  V30 5110 H 514.573 -6.15345 3.50366 0
M  V30 5111 H 514.981 -5.27994 1.99705 0
M  V30 5112 N 514.379 -1.04941 -1.1758 0
M  V30 5113 C 515.79 -0.784501 -1.69418 0
M  V30 5114 C 516.141 0.693625 -1.8353 0
M  V30 5115 O 515.266 1.53925 -1.52106 0
M  V30 5116 C 515.861 -1.41746 -3.07723 0
M  V30 5117 C 514.42 -1.20066 -3.56737 0
M  V30 5118 C 513.567 -1.5026 -2.33061 0
M  V30 5119 H 516.518 -1.21469 -1.02133 0
M  V30 5120 H 516.539 -0.825381 -3.7144 0
M  V30 5121 H 516.051 -2.49325 -2.9742 0
M  V30 5122 H 514.152 -0.144006 -3.72322 0
M  V30 5123 H 514.265 -1.90384 -4.39648 0
M  V30 5124 H 512.629 -0.922598 -2.37403 0
M  V30 5125 H 513.412 -2.58967 -2.25368 0
M  V30 5126 N 515.857 1.33968 -0.830081 0
M  V30 5127 C 517.104 1.98063 -0.421566 0
M  V30 5128 C 517.432 1.65787 1.0171 0
M  V30 5129 O 516.687 0.925348 1.72441 0
M  V30 5130 C 516.986 3.52679 -0.57898 0
M  V30 5131 C 516.652 4.04884 -1.98443 0
M  V30 5132 C 515.314 4.18852 -2.36888 0
M  V30 5133 C 517.666 4.32879 -2.90285 0
M  V30 5134 C 514.994 4.58145 -3.66497 0
M  V30 5135 C 517.346 4.7362 -4.19364 0
M  V30 5136 C 516.01 4.85794 -4.57778 0
M  V30 5137 H 515.28 0.724765 -0.154262 0
M  V30 5138 H 517.927 1.59792 -1.05541 0
M  V30 5139 H 516.232 3.91556 0.138219 0
M  V30 5140 H 517.929 4.00261 -0.243317 0
M  V30 5141 H 514.519 3.9448 -1.67581 0
M  V30 5142 H 518.703 4.21619 -2.61823 0
M  V30 5143 H 513.959 4.65762 -3.96075 0
M  V30 5144 H 518.133 4.9424 -4.90612 0
M  V30 5145 H 515.76 5.15998 -5.58256 0
M  V30 5146 N 517.335 0.585699 1.46312 0
M  V30 5147 C 518.245 -0.148236 2.34131 0
M  V30 5148 C 519.261 -0.882972 1.49932 0
M  V30 5149 O 520.437 -0.845484 1.82794 0
M  V30 5150 C 517.502 -1.14714 3.27172 0
M  V30 5151 C 516.563 -0.416746 4.27272 0
M  V30 5152 C 515.796 -1.36806 5.15868 0
M  V30 5153 O 516.019 -2.60475 5.07454 0
M  V30 5154 O 514.953 -0.877018 5.95476 0
M  V30 5155 H 518.779 0.572882 2.98248 0
M  V30 5156 H 516.364 0.346082 1.45336 0
M  V30 5157 H 518.246 -1.72303 3.84564 0
M  V30 5158 H 516.921 -1.84967 2.65648 0
M  V30 5159 H 515.828 0.201061 3.73559 0
M  V30 5160 H 517.161 0.244872 4.9159 0
M  V30 5161 N 518.813 -1.54241 0.323641 0
M  V30 5162 C 520.038 -2.05452 -0.283605 0
M  V30 5163 C 520.463 -1.19823 -1.44997 0
M  V30 5164 O 519.821 -0.207358 -1.8011 0
M  V30 5165 C 519.869 -3.53823 -0.695795 0
M  V30 5166 O 518.973 -3.71134 -1.79815 0
M  V30 5167 H 518.314 -0.662024 -0.0511917 0
M  V30 5168 H 520.844 -1.99079 0.472073 0
M  V30 5169 H 520.854 -3.96094 -0.978434 0
M  V30 5170 H 519.529 -4.15602 0.157287 0
M  V30 5171 H 518.106 -3.40768 -1.51431 0
M  V30 5172 N 520.291 -0.0518155 -1.57515 0
M  V30 5173 C 521.238 0.922352 -2.11569 0
M  V30 5174 C 522.208 1.30842 -1.02321 0
M  V30 5175 O 523.393 1.39778 -1.29872 0
M  V30 5176 C 520.533 2.19167 -2.6657 0
M  V30 5177 C 519.646 1.86003 -3.89906 0
M  V30 5178 C 518.781 3.07398 -4.33221 0
M  V30 5179 C 517.82 2.70158 -5.49255 0
M  V30 5180 N 516.957 3.84248 -5.8762 0
M  V30 5181 H 521.797 0.454506 -2.94514 0
M  V30 5182 H 519.334 0.212718 -1.45554 0
M  V30 5183 H 521.292 2.93443 -2.96559 0
M  V30 5184 H 519.922 2.63528 -1.86421 0
M  V30 5185 H 518.974 1.01874 -3.66505 0
M  V30 5186 H 520.286 1.54592 -4.74239 0
M  V30 5187 H 519.44 3.89972 -4.64765 0
M  V30 5188 H 518.179 3.41988 -3.477 0
M  V30 5189 H 517.184 1.86001 -5.17382 0
M  V30 5190 H 518.409 2.36759 -6.36492 0
M  V30 5191 H 516.355 4.18638 -5.05053 0
M  V30 5192 H 516.272 3.56538 -6.66646 0
M  V30 5193 H 517.54 4.6746 -6.2378 0
M  V30 5194 N 521.769 1.56035 0.221574 0
M  V30 5195 C 523.016 1.79047 0.94597 0
M  V30 5196 C 523.344 0.62057 1.84334 0
M  V30 5197 O 522.599 -0.395053 1.91671 0
M  V30 5198 C 522.898 3.07813 1.8162 0
M  V30 5199 C 522.564 4.3797 1.07206 0
M  V30 5200 C 521.226 4.73334 0.866508 0
M  V30 5201 C 523.578 5.18326 0.546565 0
M  V30 5202 C 520.906 5.8657 0.123549 0
M  V30 5203 C 523.258 6.32335 -0.18305 0
M  V30 5204 C 521.922 6.66301 -0.399861 0
M  V30 5205 H 521.192 0.655178 0.346155 0
M  V30 5206 H 523.839 1.90299 0.214146 0
M  V30 5207 H 522.144 2.91682 2.61589 0
M  V30 5208 H 523.841 3.2282 2.37884 0
M  V30 5209 H 520.431 4.10202 1.24226 0
M  V30 5210 H 524.615 4.9144 0.692847 0
M  V30 5211 H 519.871 6.11376 -0.0546591 0
M  V30 5212 H 524.045 6.9383 -0.59775 0
M  V30 5213 H 521.672 7.53889 -0.977489 0
M  V30 5214 N 523.247 -0.488276 1.49845 0
M  V30 5215 C 524.195 -1.60917 1.67954 0
M  V30 5216 C 525.189 -1.6038 0.54539 0
M  V30 5217 O 526.395 -1.64736 0.7254 0
M  V30 5218 H 522.77 -0.533658 0.529824 0
M  V30 5219 H 524.741 -1.428 2.62013 0
M  V30 5220 C 523.49 -2.98975 1.77509 0
M  V30 5221 H 522.813 -3.00099 2.6416 0
M  V30 5222 H 524.253 -3.76906 1.9421 0
M  V30 5223 C 522.712 -3.3282 0.522745 0
M  V30 5224 O 523.242 -4.00208 -0.345866 0
M  V30 5225 N 521.448 -2.8808 0.381882 0
M  V30 5226 H 520.995 -2.33415 1.08974 0
M  V30 5227 H 520.953 -3.11091 -0.454929 0
M  V30 5228 N 524.725 -1.39134 -0.740242 0
M  V30 5229 C 526.002 -1.26584 -1.49117 0
M  V30 5230 C 526.382 0.126902 -2.10718 0
M  V30 5231 O 525.73 1.13765 -1.98166 0
M  V30 5232 C 525.94 -2.38619 -2.54681 0
M  V30 5233 C 527.288 -2.77685 -3.21211 0
M  V30 5234 O 528.312 -2.38029 -2.64991 0
M  V30 5235 O 527.171 -3.46115 -4.22926 0
M  V30 5236 H 524.265 -0.495769 -0.661923 0
M  V30 5237 H 526.811 -1.50995 -0.774514 0
M  V30 5238 H 525.583 -3.3175 -2.07504 0
M  V30 5239 H 525.206 -2.15845 -3.33911 0
M  V30 5240 N 526.204 0.969867 -1.24223 0
M  V30 5241 C 527.434 1.74502 -1.106 0
M  V30 5242 C 527.842 1.86038 0.344483 0
M  V30 5243 O 527.185 1.3465 1.24961 0
M  V30 5244 C 527.247 3.18391 -1.66935 0
M  V30 5245 C 526.911 3.30334 -3.15798 0
M  V30 5246 C 527.908 3.15832 -4.12973 0
M  V30 5247 C 525.593 3.54644 -3.55715 0
M  V30 5248 C 527.587 3.25461 -5.48045 0
M  V30 5249 C 525.274 3.63912 -4.90929 0
M  V30 5250 C 526.272 3.49332 -5.86904 0
M  V30 5251 O 525.96 3.58251 -7.1966 0
M  V30 5252 H 525.692 0.554119 -0.387206 0
M  V30 5253 H 528.246 1.22646 -1.64764 0
M  V30 5254 H 526.476 3.71543 -1.07203 0
M  V30 5255 H 528.165 3.77707 -1.48634 0
M  V30 5256 H 528.931 2.96937 -3.83476 0
M  V30 5257 H 524.81 3.65059 -2.81519 0
M  V30 5258 H 528.354 3.13998 -6.22937 0
M  V30 5259 H 524.251 3.82319 -5.20098 0
M  V30 5260 H 525.019 3.7498 -7.27552 0
M  V30 5261 N 527.682 1.05563 1.17022 0
M  V30 5262 C 528.63 0.653887 2.2322 0
M  V30 5263 C 529.624 -0.326642 1.66221 0
M  V30 5264 O 530.83 -0.192301 1.7897 0
M  V30 5265 H 527.205 0.193297 0.726733 0
M  V30 5266 H 529.176 1.5596 2.54399 0
M  V30 5267 C 527.925 0.0485434 3.47666 0
M  V30 5268 H 527.248 0.79413 3.91834 0
M  V30 5269 H 528.688 -0.195133 4.23551 0
M  V30 5270 C 527.147 -1.20583 3.14581 0
M  V30 5271 O 527.677 -2.29475 3.29703 0
M  V30 5272 N 525.883 -1.10493 2.68774 0
M  V30 5273 H 525.43 -0.218795 2.56669 0
M  V30 5274 H 525.388 -1.94507 2.47011 0
M  V30 5275 N 529.16 -1.33526 0.837174 0
M  V30 5276 C 530.571 -1.80182 0.489017 0
M  V30 5277 C 530.922 -1.69285 -0.991826 0
M  V30 5278 O 530.047 -1.24113 -1.77271 0
M  V30 5279 C 530.642 -3.27149 0.880866 0
M  V30 5280 C 529.201 -3.71828 0.584872 0
M  V30 5281 C 528.348 -2.54974 1.09011 0
M  V30 5282 H 531.299 -1.21071 1.02603 0
M  V30 5283 H 531.32 -3.80024 0.190239 0
M  V30 5284 H 530.832 -3.35048 1.95869 0
M  V30 5285 H 528.933 -3.69457 -0.48295 0
M  V30 5286 H 529.046 -4.65366 1.13892 0
M  V30 5287 H 527.41 -2.4952 0.511047 0
M  V30 5288 H 528.193 -2.65637 2.17467 0
M  V30 5289 N 530.638 -0.59345 -1.46 0
M  V30 5290 C 532.054 -0.255965 -1.57534 0
M  V30 5291 C 532.254 1.24167 -1.58697 0
M  V30 5292 O 531.31 2.02398 -1.50968 0
M  V30 5293 C 532.623 -0.91466 -2.86451 0
M  V30 5294 C 534.171 -0.889253 -3.00102 0
M  V30 5295 C 534.646 -1.52769 -4.3177 0
M  V30 5296 N 536.137 -1.49253 -4.38495 0
M  V30 5297 C 536.872 -1.9558 -5.39014 0
M  V30 5298 N 536.368 -2.49929 -6.46148 0
M  V30 5299 N 538.161 -1.86432 -5.30282 0
M  V30 5300 H 530.312 -1.56604 -1.43489 0
M  V30 5301 H 532.575 -0.655207 -0.685133 0
M  V30 5302 H 532.281 -1.96861 -2.91442 0
M  V30 5303 H 532.155 -0.429356 -3.74748 0
M  V30 5304 H 534.542 0.156111 -2.94687 0
M  V30 5305 H 534.623 -1.41268 -2.13253 0
M  V30 5306 H 534.267 -2.57231 -4.37944 0
M  V30 5307 H 534.197 -0.979398 -5.17412 0
M  V30 5308 H 536.688 -1.09536 -3.61677 0
M  V30 5309 H 537.001 -2.83109 -7.19075 0
M  V30 5310 H 535.346 -2.53961 -6.46938 0
M  V30 5311 H 538.537 -1.43722 -4.4549 0
M  V30 5312 H 538.71 -2.22852 -6.08474 0
M  V30 5313 N 532.116 1.54067 -0.331816 0
M  V30 5314 C 533.365 1.99895 0.269209 0
M  V30 5315 C 533.678 1.22371 1.52593 0
M  V30 5316 O 534.884 1.58618 2.20347 0
M  V30 5317 C 533.34 3.55972 0.530244 0
M  V30 5318 C 532.948 4.4234 -0.709901 0
M  V30 5319 C 534.692 4.10247 1.09077 0
M  V30 5320 C 532.599 5.89905 -0.420312 0
M  V30 5321 H 531.529 0.746741 0.104371 0
M  V30 5322 H 534.18 1.78014 -0.445324 0
M  V30 5323 H 532.562 3.73873 1.30518 0
M  V30 5324 H 533.736 4.36215 -1.48504 0
M  V30 5325 H 532.051 3.98997 -1.19123 0
M  V30 5326 H 534.648 5.18095 1.32219 0
M  V30 5327 H 534.991 3.62739 2.0427 0
M  V30 5328 H 535.524 3.96011 0.376824 0
M  V30 5329 H 532.263 6.41623 -1.34164 0
M  V30 5330 H 531.783 5.98962 0.316962 0
M  V30 5331 H 533.462 6.46991 -0.0331956 0
M  V30 5332 N 533.594 0.0601682 1.57485 0
M  V30 5333 C 534.544 -0.920969 2.08572 0
M  V30 5334 C 535.528 -1.26617 0.992827 0
M  V30 5335 O 536.72 -1.24708 1.25606 0
M  V30 5336 C 533.849 -2.19267 2.64153 0
M  V30 5337 C 532.935 -1.87447 3.80427 0
M  V30 5338 N 533.326 -1.26025 4.89848 0
M  V30 5339 C 531.624 -2.17265 3.89502 0
M  V30 5340 C 532.325 -1.12036 5.70809 0
M  V30 5341 N 531.301 -1.62624 5.18705 0
M  V30 5342 H 535.103 -0.441561 2.90564 0
M  V30 5343 H 532.617 -0.144043 1.6176 0
M  V30 5344 H 534.614 -2.90462 2.99061 0
M  V30 5345 H 533.274 -2.67806 1.83603 0
M  V30 5346 H 534.285 -0.931336 5.09457 0
M  V30 5347 H 530.962 -2.68262 3.19909 0
M  V30 5348 H 532.352 -0.642783 6.68818 0
M  V30 5349 N 535.072 -1.5615 -0.213296 0
M  V30 5350 C 536.3 -1.83638 -0.953139 0
M  V30 5351 C 536.715 -0.640362 -1.77609 0
M  V30 5352 O 536.072 0.391071 -1.78261 0
M  V30 5353 C 536.123 -3.09735 -1.86405 0
M  V30 5354 O 535.844 -4.24723 -1.07435 0
M  V30 5355 C 537.345 -3.5027 -2.71709 0
M  V30 5356 H 534.565 -0.610263 -0.278962 0
M  V30 5357 H 537.109 -2.03247 -0.226035 0
M  V30 5358 H 535.264 -2.92077 -2.545 0
M  V30 5359 H 535.678 -4.9641 -1.69343 0
M  V30 5360 H 537.152 -4.41515 -3.31313 0
M  V30 5361 H 537.629 -2.72406 -3.44516 0
M  V30 5362 H 538.235 -3.70396 -2.09015 0
M  V30 5363 N 536.55 0.480323 -1.50102 0
M  V30 5364 C 537.778 1.25657 -1.64371 0
M  V30 5365 C 538.193 1.86011 -0.323316 0
M  V30 5366 O 537.55 1.68803 0.693682 0
M  V30 5367 C 537.601 2.37197 -2.728 0
M  V30 5368 O 537.322 1.7932 -3.9972 0
M  V30 5369 C 538.823 3.2823 -2.9796 0
M  V30 5370 H 536.043 0.380369 -0.552775 0
M  V30 5371 H 538.587 0.574379 -1.96268 0
M  V30 5372 H 536.742 3.01208 -2.43623 0
M  V30 5373 H 537.156 2.52701 -4.59611 0
M  V30 5374 H 538.63 4.02725 -3.77513 0
M  V30 5375 H 539.107 3.86462 -2.08671 0
M  V30 5376 H 539.713 2.69964 -3.28633 0
M  V30 5377 N 538.028 1.39524 0.732853 0
M  V30 5378 C 538.96 1.34318 1.85718 0
M  V30 5379 C 539.973 0.251576 1.60844 0
M  V30 5380 O 541.162 0.510685 1.71039 0
M  V30 5381 C 538.262 1.06334 3.21786 0
M  V30 5382 C 537.435 2.26813 3.73998 0
M  V30 5383 C 536.494 1.95253 4.88634 0
M  V30 5384 O 535.52 2.67957 5.02183 0
M  V30 5385 N 536.722 0.919984 5.73164 0
M  V30 5386 H 539.487 2.3121 1.90688 0
M  V30 5387 H 537.048 1.33654 0.91368 0
M  V30 5388 H 539.04 0.832363 3.96048 0
M  V30 5389 H 537.61 0.181682 3.12072 0
M  V30 5390 H 536.83 2.65849 2.91064 0
M  V30 5391 H 538.118 3.0717 4.05616 0
M  V30 5392 H 537.516 0.317487 5.64808 0
M  V30 5393 H 536.073 0.748905 6.47483 0
M  V30 5394 N 539.506 -0.963266 1.24736 0
M  V30 5395 C 540.783 -1.68248 0.9976 0
M  V30 5396 C 541.163 -2.05599 -0.478776 0
M  V30 5397 O 540.511 -1.7626 -1.45412 0
M  V30 5398 C 540.721 -2.91118 1.92487 0
M  V30 5399 C 542.069 -3.63261 2.19833 0
M  V30 5400 O 543.093 -3.01184 1.90176 0
M  V30 5401 O 541.952 -4.75019 2.7022 0
M  V30 5402 H 539.046 -0.735744 0.377637 0
M  V30 5403 H 541.592 -1.01696 1.35853 0
M  V30 5404 H 540.364 -2.60242 2.92215 0
M  V30 5405 H 539.987 -3.65402 1.56738 0
M  V30 5406 N 540.985 -1.06182 -1.16461 0
M  V30 5407 C 542.213 -0.798583 -1.90867 0
M  V30 5408 C 542.628 0.646921 -1.77371 0
M  V30 5409 O 541.985 1.44279 -1.11758 0
M  V30 5410 C 542.036 -1.18258 -3.4161 0
M  V30 5411 O 541.757 -2.57135 -3.54701 0
M  V30 5412 C 543.258 -0.946917 -4.33069 0
M  V30 5413 H 540.478 -0.289603 -0.605286 0
M  V30 5414 H 543.022 -1.41515 -1.47627 0
M  V30 5415 H 541.177 -0.610562 -3.82558 0
M  V30 5416 H 541.591 -2.72477 -4.4817 0
M  V30 5417 H 543.065 -1.26523 -5.37304 0
M  V30 5418 H 543.542 0.117406 -4.39043 0
M  V30 5419 H 544.148 -1.50326 -3.97847 0
M  V30 5420 N 542.463 1.3308 -0.844243 0
M  V30 5421 C 543.393 2.3161 -0.296493 0
M  V30 5422 C 544.374 1.59215 0.598707 0
M  V30 5423 O 545.559 1.87077 0.521134 0
M  V30 5424 C 542.689 3.43313 0.524762 0
M  V30 5425 C 541.643 4.27115 -0.275106 0
M  V30 5426 C 540.969 5.30483 0.670236 0
M  V30 5427 C 542.269 5.00443 -1.49514 0
M  V30 5428 H 543.963 2.77672 -1.11976 0
M  V30 5429 H 541.509 1.33496 -0.539899 0
M  V30 5430 H 543.462 4.11273 0.918298 0
M  V30 5431 H 542.186 2.95952 1.3813 0
M  V30 5432 H 540.845 3.60787 -0.650267 0
M  V30 5433 H 540.493 4.79379 1.52332 0
M  V30 5434 H 540.193 5.87435 0.139123 0
M  V30 5435 H 541.717 6.01308 1.06117 0
M  V30 5436 H 543.131 5.61141 -1.17447 0
M  V30 5437 H 541.528 5.67071 -1.96343 0
M  V30 5438 H 542.598 4.28906 -2.26202 0
M  V30 5439 N 543.941 0.601185 1.45683 0
M  V30 5440 C 544.904 -0.111398 2.28929 0
M  V30 5441 C 545.904 -0.801246 1.39416 0
M  V30 5442 O 547.094 -0.650383 1.61603 0
M  V30 5443 C 544.226 -1.16773 3.20276 0
M  V30 5444 H 545.419 0.620412 2.93413 0
M  V30 5445 H 542.972 0.359946 1.52099 0
M  V30 5446 H 543.707 -1.93051 2.60579 0
M  V30 5447 H 543.492 -0.677358 3.86205 0
M  V30 5448 H 544.982 -1.66698 3.82886 0
M  V30 5449 N 545.419 -1.53889 0.339982 0
M  V30 5450 C 546.367 -2.26391 -0.533822 0
M  V30 5451 C 547.361 -1.28404 -1.10493 0
M  V30 5452 O 548.567 -1.46124 -1.05108 0
M  V30 5453 H 544.942 -0.727385 -0.190828 0
M  V30 5454 H 546.913 -2.98233 0.0997484 0
M  V30 5455 C 545.662 -3.04707 -1.67479 0
M  V30 5456 H 544.985 -3.79934 -1.2446 0
M  V30 5457 H 546.425 -3.58657 -2.26144 0
M  V30 5458 C 544.884 -2.13989 -2.60212 0
M  V30 5459 O 545.414 -1.73361 -3.62366 0
M  V30 5460 N 543.62 -1.79141 -2.28816 0
M  V30 5461 H 543.167 -2.12378 -1.45785 0
M  V30 5462 H 543.125 -1.18725 -2.91121 0
M  V30 5463 N 546.897 -0.0685191 -1.57451 0
M  V30 5464 C 548.122 0.613919 -1.98106 0
M  V30 5465 C 548.547 1.62551 -0.946501 0
M  V30 5466 O 547.905 1.81085 0.0882824 0
M  V30 5467 C 547.953 1.26189 -3.378 0
M  V30 5468 O 547.057 2.37773 -3.36954 0
M  V30 5469 H 546.398 0.158163 -0.644888 0
M  V30 5470 H 548.928 -0.142063 -2.04106 0
M  V30 5471 H 548.938 1.60951 -3.74912 0
M  V30 5472 H 547.613 0.520625 -4.12629 0
M  V30 5473 H 546.19 2.04829 -3.11608 0
M  V30 5474 N 548.375 1.56261 0.205012 0
M  V30 5475 C 549.652 1.70856 0.952233 0
M  V30 5476 C 550.032 0.620501 2.01775 0
M  V30 5477 O 549.38 -0.370035 2.25484 0
M  V30 5478 C 549.59 3.12807 1.54767 0
M  V30 5479 C 550.938 3.72733 2.0336 0
M  V30 5480 O 551.962 3.15873 1.64629 0
M  V30 5481 O 550.821 4.72501 2.746 0
M  V30 5482 H 547.915 0.696496 0.445895 0
M  V30 5483 H 550.461 1.6857 0.195489 0
M  V30 5484 H 549.233 3.83465 0.779132 0
M  V30 5485 H 548.856 3.1928 2.36951 0
M  V30 5486 N 549.853 -0.472356 1.50355 0
M  V30 5487 C 551.264 -1.05326 1.54154 0
M  V30 5488 C 551.615 -1.93155 0.344303 0
M  V30 5489 O 550.74 -2.09479 -0.542928 0
M  V30 5490 C 551.335 -1.91691 2.79356 0
M  V30 5491 C 549.894 -2.44892 2.8584 0
M  V30 5492 C 549.041 -1.23205 2.48426 0
M  V30 5493 H 551.992 -0.255027 1.56637 0
M  V30 5494 H 552.013 -2.76742 2.6114 0
M  V30 5495 H 551.525 -1.27741 3.66475 0
M  V30 5496 H 549.626 -3.12399 2.0307 0
M  V30 5497 H 549.739 -2.80086 3.88701 0
M  V30 5498 H 548.103 -1.56643 2.00836 0
M  V30 5499 H 548.886 -0.609194 3.37852 0
M  V30 5500 N 551.331 -1.39911 -0.725443 0
M  V30 5501 C 552.559 -1.40949 -1.51463 0
M  V30 5502 C 552.974 -0.0065242 -1.88799 0
M  V30 5503 O 552.331 0.967163 -1.54765 0
M  V30 5504 C 552.382 -2.29119 -2.79619 0
M  V30 5505 O 552.103 -3.63952 -2.43866 0
M  V30 5506 C 553.604 -2.38642 -3.73584 0
M  V30 5507 H 550.824 -0.481091 -0.467752 0
M  V30 5508 H 553.368 -1.83843 -0.895651 0
M  V30 5509 H 551.523 -1.89612 -3.37826 0
M  V30 5510 H 551.937 -4.10677 -3.26258 0
M  V30 5511 H 553.411 -3.04563 -4.60375 0
M  V30 5512 H 553.888 -1.40846 -4.16004 0
M  V30 5513 H 554.494 -2.78659 -3.21293 0
M  V30 5514 N 552.809 0.956637 -1.25245 0
M  V30 5515 C 554.057 1.69764 -1.09657 0
M  V30 5516 C 554.378 1.91583 0.363464 0
M  V30 5517 O 553.648 1.50149 1.25825 0
M  V30 5518 H 552.228 0.629097 -0.402798 0
M  V30 5519 H 554.89 1.15026 -1.57337 0
M  V30 5520 H 553.986 2.67769 -1.60331 0
M  V30 5521 N 554.287 1.06798 1.15896 0
M  V30 5522 C 555.512 0.808739 1.90982 0
M  V30 5523 C 555.937 -0.6316 1.77179 0
M  V30 5524 O 555.295 -1.4407 1.10061 0
M  V30 5525 C 555.343 1.21468 3.39526 0
M  V30 5526 O 554.447 0.356562 4.10856 0
M  V30 5527 H 553.788 0.29512 0.594811 0
M  V30 5528 H 556.318 1.42513 1.46804 0
M  V30 5529 H 556.328 1.18844 3.90308 0
M  V30 5530 H 555.003 2.26379 3.48891 0
M  V30 5531 H 553.58 0.444808 3.70238 0
M  V30 5532 N 555.766 -1.3263 0.851289 0
M  V30 5533 C 556.716 -2.26451 0.265302 0
M  V30 5534 C 557.7 -1.49814 -0.586899 0
M  V30 5535 O 558.892 -1.71525 -0.436834 0
M  V30 5536 C 556.021 -3.38895 -0.548212 0
M  V30 5537 C 555.107 -4.2292 0.316189 0
M  V30 5538 N 555.498 -4.86014 1.40084 0
M  V30 5539 C 553.796 -4.45876 0.105356 0
M  V30 5540 C 554.497 -5.48667 1.93235 0
M  V30 5541 N 553.473 -5.29455 1.232 0
M  V30 5542 H 557.275 -2.72757 1.09457 0
M  V30 5543 H 554.789 -1.4668 0.697047 0
M  V30 5544 H 556.786 -4.05111 -0.984402 0
M  V30 5545 H 555.446 -2.94135 -1.37531 0
M  V30 5546 H 556.457 -4.86212 1.78377 0
M  V30 5547 H 553.134 -4.11804 -0.687299 0
M  V30 5548 H 554.524 -6.08865 2.84135 0
M  V30 5549 N 557.244 -0.608902 -1.45362 0
M  V30 5550 C 558.207 0.0992563 -2.28985 0
M  V30 5551 C 559.207 0.793841 -1.39838 0
M  V30 5552 O 560.397 0.641804 -1.61946 0
M  V30 5553 C 557.529 1.15073 -3.20891 0
M  V30 5554 H 558.722 -0.635964 -2.93079 0
M  V30 5555 H 556.275 -0.368007 -1.51906 0
M  V30 5556 H 557.01 1.91667 -2.616 0
M  V30 5557 H 556.795 0.656867 -3.86559 0
M  V30 5558 H 558.285 1.64665 -3.83765 0
M  V30 5559 N 558.722 1.53707 -0.348139 0
M  V30 5560 C 559.669 2.25173 0.506518 0
M  V30 5561 C 560.639 1.25174 1.09182 0
M  V30 5562 O 561.824 1.53917 1.12757 0
M  V30 5563 C 558.964 3.03141 1.64923 0
M  V30 5564 C 558.077 4.18002 1.0908 0
M  V30 5565 C 557.212 4.83447 2.20119 0
M  V30 5566 C 556.251 5.90369 1.61651 0
M  V30 5567 N 555.388 6.49575 2.66451 0
M  V30 5568 H 560.228 2.97799 -0.109452 0
M  V30 5569 H 557.765 1.46953 -0.0657866 0
M  V30 5570 H 559.723 3.46607 2.32205 0
M  V30 5571 H 558.353 2.32803 2.23612 0
M  V30 5572 H 557.405 3.79145 0.308783 0
M  V30 5573 H 558.717 4.94892 0.623178 0
M  V30 5574 H 557.871 5.30008 2.95257 0
M  V30 5575 H 556.61 4.05991 2.70227 0
M  V30 5576 H 555.615 5.43186 0.850209 0
M  V30 5577 H 556.84 6.69735 1.1239 0
M  V30 5578 H 554.786 5.74981 3.15805 0
M  V30 5579 H 554.703 7.21952 2.24325 0
M  V30 5580 H 555.971 7.00789 3.41344 0
M  V30 5581 N 560.2 0.0768682 1.57412 0
M  V30 5582 C 561.147 -0.888577 2.13009 0
M  V30 5583 C 562.117 -1.29198 1.0439 0
M  V30 5584 O 563.302 -1.37694 1.3208 0
M  V30 5585 C 560.442 -2.14899 2.70023 0
M  V30 5586 C 559.555 -1.79777 3.92816 0
M  V30 5587 C 558.69 -3.00467 4.38056 0
M  V30 5588 C 557.729 -2.61385 5.53484 0
M  V30 5589 N 556.866 -3.74851 5.93659 0
M  V30 5590 H 561.706 -0.407593 2.95199 0
M  V30 5591 H 559.243 -0.189534 1.45874 0
M  V30 5592 H 561.201 -2.88688 3.0119 0
M  V30 5593 H 559.831 -2.60529 1.9059 0
M  V30 5594 H 558.883 -0.960301 3.68079 0
M  V30 5595 H 560.195 -1.47027 4.76639 0
M  V30 5596 H 559.349 -3.82529 4.7091 0
M  V30 5597 H 558.088 -3.36413 3.53097 0
M  V30 5598 H 557.093 -1.77746 5.20275 0
M  V30 5599 H 558.318 -2.26603 6.40178 0
M  V30 5600 H 556.264 -4.1055 5.11649 0
M  V30 5601 H 556.181 -3.45887 6.72234 0
M  V30 5602 H 557.449 -4.57477 6.31138 0
M  V30 5603 N 561.678 -1.56367 -0.196722 0
M  V30 5604 C 562.925 -1.80529 -0.917366 0
M  V30 5605 C 563.253 -0.649817 -1.83324 0
M  V30 5606 O 562.508 0.36451 -1.92275 0
M  V30 5607 C 562.807 -3.10663 -1.767 0
M  V30 5608 C 562.473 -4.3962 -1.00225 0
M  V30 5609 C 561.135 -4.74653 -0.791095 0
M  V30 5610 C 563.487 -5.1913 -0.464035 0
M  V30 5611 C 560.815 -5.86692 -0.0302155 0
M  V30 5612 C 563.167 -6.31964 0.283625 0
M  V30 5613 C 561.831 -6.65581 0.505813 0
M  V30 5614 H 561.101 -0.660602 -0.335688 0
M  V30 5615 H 563.748 -1.90615 -0.183844 0
M  V30 5616 H 562.053 -2.95807 -2.56915 0
M  V30 5617 H 563.75 -3.26563 -2.32718 0
M  V30 5618 H 560.34 -4.12127 -1.17684 0
M  V30 5619 H 564.524 -4.9248 -0.614575 0
M  V30 5620 H 559.78 -6.11211 0.151917 0
M  V30 5621 H 563.954 -6.92791 0.708057 0
M  V30 5622 H 561.581 -7.52239 1.0973 0
M  V30 5623 N 563.156 0.464375 -1.50603 0
M  V30 5624 C 564.384 1.23907 -1.65695 0
M  V30 5625 C 564.799 1.85658 -0.343027 0
M  V30 5626 O 564.156 1.69529 0.675739 0
M  V30 5627 C 564.207 2.3429 -2.75301 0
M  V30 5628 O 563.928 1.7507 -4.01599 0
M  V30 5629 C 565.429 3.25051 -3.01424 0
M  V30 5630 H 562.649 0.374485 -0.556778 0
M  V30 5631 H 565.193 0.55353 -1.96866 0
M  V30 5632 H 563.348 2.98607 -2.46804 0
M  V30 5633 H 563.762 2.47812 -4.62266 0
M  V30 5634 H 565.236 3.98699 -3.81763 0
M  V30 5635 H 565.713 3.84227 -2.12758 0
M  V30 5636 H 566.319 2.66463 -3.31477 0
M  V30 5637 N 564.634 1.40294 0.718013 0
M  V30 5638 C 565.566 1.36281 1.84283 0
M  V30 5639 C 566.579 0.268621 1.60569 0
M  V30 5640 O 567.768 0.528798 1.70487 0
M  V30 5641 C 564.868 1.09741 3.2064 0
M  V30 5642 C 564.041 2.30767 3.71571 0
M  V30 5643 C 563.1 2.00424 4.86535 0
M  V30 5644 O 562.126 2.73268 4.99313 0
M  V30 5645 N 563.328 0.980724 5.72156 0
M  V30 5646 H 566.093 2.3322 1.88225 0
M  V30 5647 H 563.654 1.34616 0.899453 0
M  V30 5648 H 565.646 0.874322 3.95143 0
M  V30 5649 H 564.216 0.214771 3.11861 0
M  V30 5650 H 563.436 2.68921 2.88228 0
M  V30 5651 H 564.724 3.11455 4.02335 0
M  V30 5652 H 564.122 0.377375 5.6444 0
M  V30 5653 H 562.679 0.817538 6.46653 0
M  V30 5654 N 566.112 -0.949982 1.2575 0
M  V30 5655 C 567.042 -2.06483 1.09028 0
M  V30 5656 C 568.023 -1.701 -0.00201532 0
M  V30 5657 O 569.208 -1.93469 0.168383 0
M  V30 5658 C 566.338 -3.39899 0.71316 0
M  V30 5659 C 565.292 -3.90309 1.75621 0
M  V30 5660 C 564.618 -5.20274 1.23365 0
M  V30 5661 C 565.918 -4.16169 3.15596 0
M  V30 5662 H 567.612 -2.20731 2.02283 0
M  V30 5663 H 565.158 -1.06066 0.973964 0
M  V30 5664 H 567.111 -4.17346 0.58309 0
M  V30 5665 H 565.835 -3.25602 -0.255091 0
M  V30 5666 H 564.494 -3.15035 1.8748 0
M  V30 5667 H 564.142 -5.02351 0.255491 0
M  V30 5668 H 563.842 -5.54971 1.93082 0
M  V30 5669 H 565.366 -6.00314 1.11607 0
M  V30 5670 H 566.78 -4.84259 3.06864 0
M  V30 5671 H 565.177 -4.62131 3.82825 0
M  V30 5672 H 566.247 -3.22273 3.6231 0
M  V30 5673 N 567.59 -1.07411 -1.15328 0
M  V30 5674 C 568.838 -0.796073 -1.85761 0
M  V30 5675 C 569.159 0.679864 -1.82764 0
M  V30 5676 O 568.429 1.49242 -1.269 0
M  V30 5677 H 567.009 -0.291495 -0.687779 0
M  V30 5678 H 569.671 -1.35799 -1.39802 0
M  V30 5679 H 568.767 -1.13114 -2.90881 0
M  V30 5680 N 569.068 1.32177 -0.85831 0
M  V30 5681 C 569.998 2.31282 -0.321041 0
M  V30 5682 C 570.979 1.59841 0.581786 0
M  V30 5683 O 572.164 1.87619 0.501262 0
M  V30 5684 C 569.294 3.4385 0.48832 0
M  V30 5685 C 568.248 4.26799 -0.320391 0
M  V30 5686 C 567.574 5.31164 0.613934 0
M  V30 5687 C 568.874 4.98829 -1.54813 0
M  V30 5688 H 570.568 2.76469 -1.14915 0
M  V30 5689 H 568.114 1.32916 -0.554028 0
M  V30 5690 H 570.067 4.12224 0.874626 0
M  V30 5691 H 568.791 2.97401 1.34983 0
M  V30 5692 H 567.45 3.60077 -0.688497 0
M  V30 5693 H 567.098 4.80967 1.47239 0
M  V30 5694 H 566.798 5.8755 0.0768097 0
M  V30 5695 H 568.322 6.024 0.997336 0
M  V30 5696 H 569.736 5.59864 -1.23392 0
M  V30 5697 H 568.133 5.64957 -2.02346 0
M  V30 5698 H 569.203 4.26483 -2.30739 0
M  V30 5699 N 570.547 0.616602 1.45037 0
M  V30 5700 C 571.51 -0.0871112 2.29034 0
M  V30 5701 C 572.51 -0.786414 1.40258 0
M  V30 5702 O 573.7 -0.633207 1.62284 0
M  V30 5703 C 570.832 -1.13369 3.21497 0
M  V30 5704 H 572.025 0.651497 2.92738 0
M  V30 5705 H 569.578 0.376058 1.51709 0
M  V30 5706 H 570.313 -1.90277 2.62612 0
M  V30 5707 H 570.098 -0.636358 3.86902 0
M  V30 5708 H 571.588 -1.62627 3.84633 0
M  V30 5709 N 572.025 -1.5352 0.356285 0
M  V30 5710 C 573.255 -2.05236 -0.236983 0
M  V30 5711 C 573.663 -1.23016 -1.43749 0
M  V30 5712 O 573.006 -0.2615 -1.81829 0
M  V30 5713 C 573.068 -3.52549 -0.7035 0
M  V30 5714 C 572.732 -4.55425 0.379059 0
M  V30 5715 C 573.729 -5.0524 1.22592 0
M  V30 5716 C 571.414 -4.99425 0.536638 0
M  V30 5717 C 573.408 -5.97647 2.21578 0
M  V30 5718 C 571.095 -5.9164 1.52988 0
M  V30 5719 C 572.093 -6.4064 2.3679 0
M  V30 5720 O 571.781 -7.31039 3.34421 0
M  V30 5721 H 571.513 -0.674346 -0.047254 0
M  V30 5722 H 574.067 -1.98962 0.510238 0
M  V30 5723 H 572.297 -3.56331 -1.50217 0
M  V30 5724 H 573.986 -3.87171 -1.21873 0
M  V30 5725 H 574.752 -4.72002 1.11532 0
M  V30 5726 H 570.631 -4.60879 -0.105834 0
M  V30 5727 H 574.175 -6.35816 2.87025 0
M  V30 5728 H 570.072 -6.24293 1.64099 0
M  V30 5729 H 570.84 -7.49009 3.30041 0
M  V30 5730 N 573.503 -0.0852151 -1.57369 0
M  V30 5731 C 574.466 0.8627 -2.12344 0
M  V30 5732 C 575.466 1.21746 -1.05046 0
M  V30 5733 O 576.656 1.14852 -1.30976 0
M  V30 5734 C 573.788 2.1618 -2.63589 0
M  V30 5735 H 574.981 0.385511 -2.97412 0
M  V30 5736 H 572.534 0.163663 -1.55441 0
M  V30 5737 H 573.269 2.68406 -1.82013 0
M  V30 5738 H 573.054 1.91723 -3.4203 0
M  V30 5739 H 574.544 2.84011 -3.06149 0
M  V30 5740 N 574.981 1.5647 0.188427 0
M  V30 5741 C 576.23 1.80207 0.905995 0
M  V30 5742 C 576.543 0.659579 1.84144 0
M  V30 5743 O 577.749 0.781431 2.60011 0
M  V30 5744 C 576.205 3.19255 1.66145 0
M  V30 5745 C 575.813 4.41324 0.770504 0
M  V30 5746 C 577.557 3.52298 2.36826 0
M  V30 5747 C 575.464 5.71394 1.52521 0
M  V30 5748 H 574.394 0.671953 0.342045 0
M  V30 5749 H 577.045 1.82808 0.159164 0
M  V30 5750 H 575.427 3.10922 2.45242 0
M  V30 5751 H 576.601 4.60797 0.0177261 0
M  V30 5752 H 574.916 4.16035 0.174199 0
M  V30 5753 H 577.513 4.46715 2.93854 0
M  V30 5754 H 577.856 2.76359 3.11338 0
M  V30 5755 H 578.389 3.62108 1.6469 0
M  V30 5756 H 575.128 6.50316 0.82275 0
M  V30 5757 H 574.648 5.55928 2.25175 0
M  V30 5758 H 576.327 6.12747 2.07725 0
M  V30 5759 N 576.459 -0.456382 1.50847 0
M  V30 5760 C 577.369 -1.57805 1.73594 0
M  V30 5761 C 578.385 -1.62599 0.619476 0
M  V30 5762 O 579.561 -1.80195 0.899532 0
M  V30 5763 C 576.626 -2.93926 1.8387 0
M  V30 5764 C 575.687 -2.99402 3.07663 0
M  V30 5765 C 574.92 -4.29031 3.1744 0
M  V30 5766 O 575.143 -5.20358 2.33631 0
M  V30 5767 O 574.077 -4.40401 4.10281 0
M  V30 5768 H 577.903 -1.41531 2.68705 0
M  V30 5769 H 575.488 -0.637422 1.3512 0
M  V30 5770 H 577.37 -3.74747 1.92725 0
M  V30 5771 H 576.045 -3.10368 0.91944 0
M  V30 5772 H 574.952 -2.17606 3.043 0
M  V30 5773 H 576.285 -2.87901 3.99216 0
M  V30 5774 N 577.937 -1.40673 -0.710563 0
M  V30 5775 C 578.87 -1.35742 -1.83438 0
M  V30 5776 C 579.848 -0.226997 -1.61008 0
M  V30 5777 O 581.032 -0.411477 -1.83954 0
M  V30 5778 C 578.159 -1.11374 -3.19865 0
M  V30 5779 C 577.205 -2.26935 -3.61113 0
M  V30 5780 S 578.038 -3.89352 -3.67648 0
M  V30 5781 C 579.194 -3.67258 -5.06826 0
M  V30 5782 H 579.427 -2.30848 -1.87341 0
M  V30 5783 H 576.96 -1.27018 -0.877831 0
M  V30 5784 H 578.918 -0.980004 -3.9863 0
M  V30 5785 H 577.579 -0.179135 -3.13589 0
M  V30 5786 H 576.772 -2.0554 -4.60184 0
M  V30 5787 H 576.374 -2.36638 -2.89618 0
M  V30 5788 H 578.666 -3.26036 -5.93891 0
M  V30 5789 H 579.609 -4.65878 -5.33257 0
M  V30 5790 H 580.017 -3.0084 -4.77656 0
M  V30 5791 N 579.415 0.9433 -1.26252 0
M  V30 5792 C 580.663 1.68592 -1.11451 0
M  V30 5793 C 580.984 1.91957 0.343123 0
M  V30 5794 O 580.254 1.51475 1.24226 0
M  V30 5795 H 578.834 0.624789 -0.409448 0
M  V30 5796 H 581.496 1.13351 -1.58548 0
M  V30 5797 H 580.592 2.66054 -1.63162 0
M  V30 5798 N 580.893 1.08022 1.14757 0
M  V30 5799 C 582.118 0.82895 1.90114 0
M  V30 5800 C 582.543 -0.612772 1.77839 0
M  V30 5801 O 581.901 -1.42895 1.11583 0
M  V30 5802 C 581.949 1.25062 3.38219 0
M  V30 5803 O 581.053 0.400119 4.10454 0
M  V30 5804 H 580.394 0.301412 0.591648 0
M  V30 5805 H 582.924 1.44062 1.45284 0
M  V30 5806 H 582.934 1.22977 3.89025 0
M  V30 5807 H 581.609 2.30067 3.46471 0
M  V30 5808 H 580.186 0.484052 3.69745 0
M  V30 5809 N 582.371 -1.3172 0.865308 0
M  V30 5810 C 583.334 -2.26918 0.322627 0
M  V30 5811 C 584.334 -1.52031 -0.523751 0
M  V30 5812 O 585.524 -1.70973 -0.333727 0
M  V30 5813 C 582.656 -3.36558 -0.542338 0
M  V30 5814 H 583.849 -2.76432 1.16298 0
M  V30 5815 H 581.402 -1.42573 0.640512 0
M  V30 5816 H 582.137 -2.92329 -1.40407 0
M  V30 5817 H 581.922 -3.92048 0.0636395 0
M  V30 5818 H 583.412 -4.07465 -0.91446 0
M  V30 5819 N 583.85 -0.624285 -1.44708 0
M  V30 5820 C 585.077 -0.132919 -2.06473 0
M  V30 5821 C 585.493 1.18967 -1.46602 0
M  V30 5822 O 584.85 1.72824 -0.586341 0
M  V30 5823 C 584.901 -0.00465418 -3.615 0
M  V30 5824 O 584.622 -1.27494 -4.19138 0
M  V30 5825 C 586.123 0.516213 -4.40284 0
M  V30 5826 H 583.343 -0.0765201 -0.666623 0
M  V30 5827 H 585.887 -0.856751 -1.85688 0
M  V30 5828 H 584.042 0.669583 -3.8157 0
M  V30 5829 H 584.456 -1.11536 -5.12504 0
M  V30 5830 H 585.93 0.554994 -5.49203 0
M  V30 5831 H 586.407 1.5419 -4.11245 0
M  V30 5832 H 587.013 -0.124542 -4.25118 0
M  V30 5833 N 585.328 1.53329 -0.364422 0
M  V30 5834 C 586.576 2.00842 0.225189 0
M  V30 5835 C 586.897 1.25345 1.49378 0
M  V30 5836 O 586.167 0.366396 1.92443 0
M  V30 5837 H 584.747 0.742009 0.0862027 0
M  V30 5838 H 587.409 1.8863 -0.490389 0
M  V30 5839 H 586.505 3.08795 0.452987 0
M  V30 5840 N 586.806 0.0935595 1.57322 0
M  V30 5841 C 588.083 -0.612692 1.85756 0
M  V30 5842 C 588.463 -1.86439 0.99013 0
M  V30 5843 O 587.811 -2.28416 0.0621362 0
M  V30 5844 C 588.021 -0.929547 3.36393 0
M  V30 5845 C 589.369 -1.29366 4.04413 0
M  V30 5846 O 590.393 -1.02061 3.41265 0
M  V30 5847 O 589.252 -1.80498 5.15832 0
M  V30 5848 H 586.346 -0.306444 0.768128 0
M  V30 5849 H 588.892 0.126141 1.69231 0
M  V30 5850 H 587.664 -0.0414766 3.91278 0
M  V30 5851 H 587.287 -1.72441 3.5826 0
M  V30 5852 N 588.284 -1.56567 -0.180126 0
M  V30 5853 C 589.512 -1.85618 -0.913972 0
M  V30 5854 C 589.927 -0.677892 -1.7621 0
M  V30 5855 O 589.284 0.353171 -1.7905 0
M  V30 5856 C 589.335 -3.13619 -1.79793 0
M  V30 5857 O 589.056 -4.26906 -0.98402 0
M  V30 5858 C 590.557 -3.55954 -2.64219 0
M  V30 5859 H 587.777 -0.616043 -0.265954 0
M  V30 5860 H 590.321 -2.03681 -0.182872 0
M  V30 5861 H 588.476 -2.97409 -2.48247 0
M  V30 5862 H 588.89 -4.9989 -1.58776 0
M  V30 5863 H 590.364 -4.48444 -3.21873 0
M  V30 5864 H 590.841 -2.79653 -3.38661 0
M  V30 5865 H 591.447 -3.74746 -2.01111 0
M  V30 5866 N 589.762 0.448376 -1.51087 0
M  V30 5867 C 591.173 1.0286 -1.5581 0
M  V30 5868 C 591.524 1.92583 -0.374989 0
M  V30 5869 O 590.649 2.10316 0.509533 0
M  V30 5870 C 591.244 1.87223 -2.8237 0
M  V30 5871 C 589.803 2.40314 -2.897 0
M  V30 5872 C 588.95 1.19238 -2.50355 0
M  V30 5873 H 591.901 0.230075 -1.57023 0
M  V30 5874 H 591.922 2.72553 -2.6551 0
M  V30 5875 H 591.434 1.21894 -3.68461 0
M  V30 5876 H 589.535 3.09129 -2.08014 0
M  V30 5877 H 589.648 2.73866 -3.93108 0
M  V30 5878 H 588.012 1.53428 -2.03303 0
M  V30 5879 H 588.795 0.555367 -3.38778 0
M  V30 5880 N 591.24 1.41047 0.703093 0
M  V30 5881 C 592.468 1.4334 1.49202 0
M  V30 5882 C 592.883 0.0365596 1.88765 0
M  V30 5883 O 592.24 -0.942419 1.56284 0
M  V30 5884 C 592.291 2.33538 2.75939 0
M  V30 5885 O 592.012 3.67786 2.38045 0
M  V30 5886 C 593.513 2.44555 3.6974 0
M  V30 5887 H 590.733 0.488472 0.460039 0
M  V30 5888 H 593.277 1.85245 0.86629 0
M  V30 5889 H 591.432 1.94962 3.34766 0
M  V30 5890 H 591.846 4.15816 3.19683 0
M  V30 5891 H 593.32 3.11849 4.55471 0
M  V30 5892 H 593.797 1.47447 4.1371 0
M  V30 5893 H 594.403 2.83735 3.16819 0
M  V30 5894 N 592.718 -0.936591 1.26751 0
M  V30 5895 C 594.129 -1.49816 1.1141 0
M  V30 5896 C 594.48 -1.9383 -0.304015 0
M  V30 5897 O 593.605 -1.80346 -1.196 0
M  V30 5898 C 594.2 -2.72271 2.01629 0
M  V30 5899 C 592.759 -3.2468 1.9042 0
M  V30 5900 C 591.906 -1.97444 1.94708 0
M  V30 5901 H 594.857 -0.751604 1.39773 0
M  V30 5902 H 594.878 -3.46741 1.56688 0
M  V30 5903 H 594.39 -2.40205 3.04833 0
M  V30 5904 H 592.491 -3.61525 0.901674 0
M  V30 5905 H 592.604 -3.91476 2.76195 0
M  V30 5906 H 590.968 -2.13545 1.38818 0
M  V30 5907 H 591.751 -1.67703 2.9955 0
M  V30 5908 N 594.196 -1.08629 -1.14182 0
M  V30 5909 C 595.444 -0.815731 -1.84906 0
M  V30 5910 C 595.765 0.660441 -1.83475 0
M  V30 5911 O 595.035 1.47888 -1.28476 0
M  V30 5912 H 593.615 -0.298773 -0.684648 0
M  V30 5913 H 596.277 -1.37274 -1.38354 0
M  V30 5914 H 595.373 -1.16193 -2.89665 0
M  V30 5915 N 595.674 1.31259 -0.872281 0
M  V30 5916 C 596.622 2.30404 -0.318897 0
M  V30 5917 C 597.616 1.5962 0.567267 0
M  V30 5918 O 598.822 1.74204 0.453111 0
M  V30 5919 H 595.197 0.747243 -0.0844474 0
M  V30 5920 H 597.168 2.74549 -1.16899 0
M  V30 5921 C 595.917 3.44608 0.462683 0
M  V30 5922 H 595.24 3.99248 -0.209936 0
M  V30 5923 H 596.68 4.1609 0.815187 0
M  V30 5924 C 595.139 2.93456 1.65485 0
M  V30 5925 O 595.669 2.92418 2.75417 0
M  V30 5926 N 593.875 2.49628 1.48776 0
M  V30 5927 H 593.422 2.50671 0.593452 0
M  V30 5928 H 593.38 2.15759 2.28682 0
M  V30 5929 N 597.152 0.631951 1.44375 0
M  V30 5930 C 598.084 -0.110911 2.28931 0
M  V30 5931 C 599.097 -0.808086 1.41329 0
M  V30 5932 O 600.286 -0.669396 1.65473 0
M  V30 5933 C 597.386 -1.17928 3.1772 0
M  V30 5934 C 596.559 -0.564458 4.33743 0
M  V30 5935 C 595.618 -1.5269 5.0356 0
M  V30 5936 O 594.644 -1.04372 5.59549 0
M  V30 5937 N 595.846 -2.86123 5.05088 0
M  V30 5938 H 598.611 0.614758 2.93327 0
M  V30 5939 H 596.172 0.473171 1.54831 0
M  V30 5940 H 598.164 -1.82348 3.61291 0
M  V30 5941 H 596.734 -1.80717 2.55069 0
M  V30 5942 H 595.954 0.258373 3.93352 0
M  V30 5943 H 597.242 -0.134355 5.08623 0
M  V30 5944 H 596.64 -3.27959 4.60933 0
M  V30 5945 H 595.197 -3.45901 5.52445 0
M  V30 5946 N 598.631 -1.53133 0.372548 0
M  V30 5947 C 599.561 -2.28876 -0.462412 0
M  V30 5948 C 600.542 -1.31583 -1.07796 0
M  V30 5949 O 601.727 -1.60461 -1.09389 0
M  V30 5950 C 598.857 -3.08317 -1.59868 0
M  V30 5951 C 597.811 -4.13355 -1.11003 0
M  V30 5952 C 597.137 -4.8092 -2.33708 0
M  V30 5953 C 598.437 -5.21955 -0.18983 0
M  V30 5954 H 600.131 -2.9892 0.169511 0
M  V30 5955 H 597.677 -1.43761 0.0829658 0
M  V30 5956 H 599.63 -3.60055 -2.18949 0
M  V30 5957 H 598.354 -2.35976 -2.25794 0
M  V30 5958 H 597.013 -3.62573 -0.541869 0
M  V30 5959 H 596.661 -4.05144 -2.98106 0
M  V30 5960 H 596.361 -5.51904 -2.01682 0
M  V30 5961 H 597.885 -5.35455 -2.93462 0
M  V30 5962 H 599.299 -5.69153 -0.688319 0
M  V30 5963 H 597.696 -6.00087 0.0398887 0
M  V30 5964 H 598.766 -4.78811 0.766057 0
M  V30 5965 N 600.109 -0.101901 -1.5727 0
M  V30 5966 C 601.019 0.868647 -2.17926 0
M  V30 5967 C 602.035 1.30527 -1.1506 0
M  V30 5968 O 603.211 1.37178 -1.47459 0
M  V30 5969 C 600.276 2.10727 -2.75309 0
M  V30 5970 C 599.337 1.7242 -3.93154 0
M  V30 5971 C 598.57 2.90377 -4.47791 0
M  V30 5972 O 598.793 4.05305 -4.01353 0
M  V30 5973 O 597.727 2.6845 -5.38719 0
M  V30 5974 H 601.553 0.382544 -3.01281 0
M  V30 5975 H 599.138 0.122812 -1.48894 0
M  V30 5976 H 601.02 2.83303 -3.11958 0
M  V30 5977 H 599.695 2.58376 -1.94996 0
M  V30 5978 H 598.602 0.970039 -3.61305 0
M  V30 5979 H 599.935 1.29528 -4.74851 0
M  V30 5980 N 601.587 1.56661 0.17182 0
M  V30 5981 C 602.864 1.72838 0.915778 0
M  V30 5982 C 603.244 0.66316 2.00413 0
M  V30 5983 O 602.592 -0.322123 2.26218 0
M  V30 5984 C 602.802 3.16019 1.48097 0
M  V30 5985 C 604.15 3.76962 1.95408 0
M  V30 5986 O 605.174 3.19294 1.57892 0
M  V30 5987 O 604.033 4.78219 2.64516 0
M  V30 5988 H 601.127 0.705797 0.431021 0
M  V30 5989 H 603.673 1.68947 0.159689 0
M  V30 5990 H 602.445 3.85031 0.697618 0
M  V30 5991 H 602.068 3.24234 2.30126 0
M  V30 5992 N 603.065 -0.440357 1.51323 0
M  V30 5993 C 604.313 -1.18769 1.63518 0
M  V30 5994 C 604.634 -1.91793 0.352201 0
M  V30 5995 O 603.904 -1.85432 -0.631811 0
M  V30 5996 H 602.484 -0.441408 0.602634 0
M  V30 5997 H 605.146 -0.505162 1.8824 0
M  V30 5998 H 604.242 -1.91892 2.46138 0
M  V30 5999 N 604.543 -1.41418 -0.695603 0
M  V30 6000 C 605.789 -1.40982 -1.4578 0
M  V30 6001 C 606.122 -0.0187763 -1.94191 0
M  V30 6002 O 605.397 0.95346 -1.69527 0
M  V30 6003 C 605.68 -2.41657 -2.66972 0
M  V30 6004 C 605.533 -3.89869 -2.24327 0
M  V30 6005 C 606.852 -2.39589 -3.69168 0
M  V30 6006 H 603.971 -0.513405 -0.528757 0
M  V30 6007 H 606.613 -1.72693 -0.792275 0
M  V30 6008 H 604.763 -2.14746 -3.23754 0
M  V30 6009 H 606.435 -4.27683 -1.72872 0
M  V30 6010 H 604.678 -4.04737 -1.56111 0
M  V30 6011 H 605.349 -4.55857 -3.11285 0
M  V30 6012 H 607.825 -2.63471 -3.2206 0
M  V30 6013 H 606.701 -3.12044 -4.51575 0
M  V30 6014 H 606.962 -1.41447 -4.18862 0
M  V30 6015 N 606.021 0.929856 -1.27246 0
M  V30 6016 C 607.432 1.49223 -1.12203 0
M  V30 6017 C 607.783 1.93989 0.293731 0
M  V30 6018 O 606.908 1.80978 1.18642 0
M  V30 6019 C 607.503 2.71198 -2.0307 0
M  V30 6020 C 606.062 3.23666 -1.92139 0
M  V30 6021 C 605.209 1.96409 -1.95752 0
M  V30 6022 H 608.16 0.744181 -1.4017 0
M  V30 6023 H 608.181 3.45905 -1.58524 0
M  V30 6024 H 607.693 2.38585 -3.06102 0
M  V30 6025 H 605.794 3.61042 -0.920834 0
M  V30 6026 H 605.907 3.90006 -2.78267 0
M  V30 6027 H 604.271 2.12806 -1.39949 0
M  V30 6028 H 605.054 1.66113 -3.00436 0
M  V30 6029 N 607.499 1.09233 1.13605 0
M  V30 6030 C 608.745 0.828385 1.8511 0
M  V30 6031 C 609.078 -0.64437 1.83198 0
M  V30 6032 O 608.353 -1.47428 1.26867 0
M  V30 6033 C 608.636 1.36167 3.33363 0
M  V30 6034 C 608.489 2.90038 3.438 0
M  V30 6035 C 609.808 0.993819 4.28732 0
M  V30 6036 H 606.927 0.30239 0.672108 0
M  V30 6037 H 609.569 1.35339 1.33355 0
M  V30 6038 H 607.719 0.9151 3.77569 0
M  V30 6039 H 609.391 3.43128 3.08319 0
M  V30 6040 H 607.634 3.27271 2.84739 0
M  V30 6041 H 608.305 3.22428 4.48045 0
M  V30 6042 H 610.781 1.37893 3.92587 0
M  V30 6043 H 609.657 1.39403 5.30903 0
M  V30 6044 H 609.918 -0.0982206 4.41991 0
M  V30 6045 N 608.977 -1.30795 0.87923 0
M  V30 6046 C 610.205 -2.00527 0.509548 0
M  V30 6047 C 610.62 -1.65944 -0.90045 0
M  V30 6048 O 609.977 -0.893525 -1.5913 0
M  V30 6049 C 610.028 -3.55276 0.667943 0
M  V30 6050 O 609.749 -3.88625 2.02242 0
M  V30 6051 C 611.25 -4.4228 0.300494 0
M  V30 6052 H 608.47 -0.641261 0.197549 0
M  V30 6053 H 611.014 -1.66813 1.18295 0
M  V30 6054 H 609.169 -3.87377 0.0419843 0
M  V30 6055 H 609.583 -4.83334 2.03688 0
M  V30 6056 H 611.057 -5.50061 0.462242 0
M  V30 6057 H 611.534 -4.32556 -0.76106 0
M  V30 6058 H 612.14 -4.15613 0.902536 0
M  V30 6059 N 610.455 -0.639598 -1.44038 0
M  V30 6060 C 611.732 -0.078012 -1.95444 0
M  V30 6061 C 612.112 1.39847 -1.58133 0
M  V30 6062 O 611.46 2.11714 -0.859614 0
M  V30 6063 C 611.67 -0.309832 -3.47622 0
M  V30 6064 C 613.018 -0.207521 -4.24093 0
M  V30 6065 O 614.042 -0.241653 -3.55379 0
M  V30 6066 O 612.901 -0.119641 -5.46369 0
M  V30 6067 H 609.995 0.0174534 -0.826816 0
M  V30 6068 H 612.541 -0.711891 -1.54046 0
M  V30 6069 H 611.313 -1.33401 -3.67858 0
M  V30 6070 H 610.936 0.357777 -3.95987 0
M  V30 6071 N 611.933 1.52934 -0.380664 0
M  V30 6072 C 612.863 2.29118 0.450268 0
M  V30 6073 C 613.844 1.32153 1.07096 0
M  V30 6074 O 615.029 1.61038 1.08537 0
M  V30 6075 C 612.159 3.09161 1.58231 0
M  V30 6076 C 611.113 4.13938 1.0881 0
M  V30 6077 C 610.439 4.82153 2.31155 0
M  V30 6078 C 611.739 5.22048 0.162146 0
M  V30 6079 H 613.433 2.98826 -0.185361 0
M  V30 6080 H 610.979 1.43715 -0.0905886 0
M  V30 6081 H 612.932 3.61211 2.17036 0
M  V30 6082 H 611.656 2.3717 2.2454 0
M  V30 6083 H 610.315 3.62855 0.522633 0
M  V30 6084 H 609.963 4.06719 2.95953 0
M  V30 6085 H 609.663 5.52966 1.98752 0
M  V30 6086 H 611.187 5.37004 2.90618 0
M  V30 6087 H 612.601 5.6951 0.658126 0
M  V30 6088 H 610.998 6.00057 -0.0717122 0
M  V30 6089 H 612.068 4.78398 -0.791438 0
M  V30 6090 N 613.412 0.11024 1.57214 0
M  V30 6091 C 614.637 -0.561179 1.99664 0
M  V30 6092 C 615.062 -1.59985 0.989266 0
M  V30 6093 O 614.42 -1.81255 -0.0402399 0
M  V30 6094 C 614.468 -1.17189 3.41027 0
M  V30 6095 O 613.572 -2.28755 3.4314 0
M  V30 6096 H 612.913 -0.14101 0.648855 0
M  V30 6097 H 615.443 0.196128 2.03658 0
M  V30 6098 H 615.453 -1.50954 3.79047 0
M  V30 6099 H 614.128 -0.411041 4.13864 0
M  V30 6100 H 612.705 -1.96495 3.16929 0
M  V30 6101 N 614.89 -1.56749 -0.16351 0
M  V30 6102 C 616.138 -1.82074 -0.87713 0
M  V30 6103 C 616.459 -0.688503 -1.82441 0
M  V30 6104 O 615.729 0.291085 -1.93725 0
M  V30 6105 H 614.309 -0.671677 -0.326893 0
M  V30 6106 H 616.971 -1.9423 -0.161459 0
M  V30 6107 H 616.067 -2.76407 -1.44934 0
M  V30 6108 N 616.368 0.432326 -1.51554 0
M  V30 6109 C 617.593 1.20824 -1.68571 0
M  V30 6110 C 618.018 1.84126 -0.384596 0
M  V30 6111 O 617.376 1.69025 0.655751 0
M  V30 6112 C 617.424 2.26429 -2.80646 0
M  V30 6113 O 616.528 3.32032 -2.44598 0
M  V30 6114 H 615.869 0.353765 -0.561913 0
M  V30 6115 H 618.399 0.509916 -1.98144 0
M  V30 6116 H 618.409 2.71133 -3.04878 0
M  V30 6117 H 617.084 1.79733 -3.75058 0
M  V30 6118 H 615.661 2.92769 -2.30956 0
M  V30 6119 N 617.846 1.41785 0.688094 0
M  V30 6120 C 619.262 1.24419 0.999608 0
M  V30 6121 C 619.462 0.138868 2.01021 0
M  V30 6122 O 618.518 -0.494283 2.47615 0
M  V30 6123 C 619.831 2.59625 1.51709 0
M  V30 6124 C 621.379 2.66869 1.63554 0
M  V30 6125 C 621.854 4.0241 2.18702 0
M  V30 6126 N 623.345 4.04295 2.26053 0
M  V30 6127 C 624.08 5.05977 2.69768 0
M  V30 6128 N 623.576 6.18047 3.13033 0
M  V30 6129 N 625.369 4.93336 2.69398 0
M  V30 6130 H 617.52 2.12392 0.0187427 0
M  V30 6131 H 619.783 0.945347 0.0708673 0
M  V30 6132 H 619.489 3.41297 0.849059 0
M  V30 6133 H 619.363 2.82628 2.49803 0
M  V30 6134 H 621.75 1.8555 2.29467 0
M  V30 6135 H 621.831 2.47668 0.639857 0
M  V30 6136 H 621.475 4.8418 1.53402 0
M  V30 6137 H 621.405 4.18955 3.19037 0
M  V30 6138 H 623.896 3.23383 1.9553 0
M  V30 6139 H 624.209 6.91498 3.45038 0
M  V30 6140 H 622.554 6.21572 3.10923 0
M  V30 6141 H 625.745 4.04865 2.34952 0
M  V30 6142 H 625.918 5.72717 3.03148 0
M  V30 6143 N 619.324 -0.923095 1.27737 0
M  V30 6144 C 620.572 -1.66797 1.14119 0
M  V30 6145 C 620.893 -1.92479 -0.312541 0
M  V30 6146 O 620.163 -1.53432 -1.218 0
M  V30 6147 H 618.743 -0.618196 0.419336 0
M  V30 6148 H 621.405 -1.10815 1.60331 0
M  V30 6149 H 620.501 -2.63424 1.67374 0
M  V30 6150 N 620.802 -1.09834 -1.13024 0
M  V30 6151 C 622.027 -0.85909 -1.88771 0
M  V30 6152 C 622.452 0.584402 -1.78791 0
M  V30 6153 O 621.81 1.41101 -1.13842 0
M  V30 6154 C 621.858 -1.30427 -3.36186 0
M  V30 6155 O 620.962 -0.465368 -4.09766 0
M  V30 6156 H 620.303 -0.310786 -0.586778 0
M  V30 6157 H 622.833 -1.46355 -1.42973 0
M  V30 6158 H 622.843 -1.2915 -3.8702 0
M  V30 6159 H 621.518 -2.3555 -3.42767 0
M  V30 6160 H 620.095 -0.542814 -3.68928 0
M  V30 6161 N 622.28 1.30327 -0.886154 0
M  V30 6162 C 623.228 2.30052 -0.343317 0
M  V30 6163 C 624.222 1.60212 0.550305 0
M  V30 6164 O 625.428 1.74674 0.434609 0
M  V30 6165 H 621.803 0.746306 -0.0923681 0
M  V30 6166 H 623.774 2.73294 -1.19804 0
M  V30 6167 C 622.523 3.45079 0.426107 0
M  V30 6168 H 621.846 3.99003 -0.25227 0
M  V30 6169 H 623.286 4.16931 0.771009 0
M  V30 6170 C 621.745 2.95195 1.62363 0
M  V30 6171 O 622.275 2.95323 2.723 0
M  V30 6172 N 620.481 2.51192 1.4612 0
M  V30 6173 H 620.028 2.51286 0.566832 0
M  V30 6174 H 619.986 2.18173 2.2638 0
M  V30 6175 N 623.758 0.647228 1.43697 0
M  V30 6176 C 625.004 0.158422 2.0218 0
M  V30 6177 C 625.337 -1.22233 1.50907 0
M  V30 6178 O 624.612 -1.81478 0.699702 0
M  V30 6179 C 624.895 0.1627 3.59732 0
M  V30 6180 C 624.748 1.57694 4.21251 0
M  V30 6181 C 626.067 -0.504138 4.37203 0
M  V30 6182 H 623.186 0.059042 0.734631 0
M  V30 6183 H 625.828 0.826772 1.71069 0
M  V30 6184 H 623.978 -0.406414 3.86368 0
M  V30 6185 H 625.65 2.19618 4.05667 0
M  V30 6186 H 623.893 2.12603 3.7813 0
M  V30 6187 H 624.564 1.53183 5.3032 0
M  V30 6188 H 627.04 -0.0199841 4.16095 0
M  V30 6189 H 625.916 -0.470394 5.46881 0
M  V30 6190 H 626.177 -1.57726 4.13007 0
M  V30 6191 N 625.236 -1.5273 0.388769 0
M  V30 6192 C 626.482 -2.02545 -0.186351 0
M  V30 6193 C 626.837 -1.27017 -1.44514 0
M  V30 6194 O 626.13 -0.361948 -1.8815 0
M  V30 6195 C 626.324 -3.53765 -0.508445 0
M  V30 6196 C 626.153 -4.43938 0.71758 0
M  V30 6197 C 624.923 -4.89933 1.23668 0
M  V30 6198 C 627.121 -4.89113 1.58974 0
M  V30 6199 N 625.103 -5.64176 2.42031 0
M  V30 6200 C 626.474 -5.61931 2.61979 0
M  V30 6201 C 628.529 -4.71155 1.60989 0
M  V30 6202 C 627.232 -6.18698 3.66886 0
M  V30 6203 C 629.258 -5.28804 2.64803 0
M  V30 6204 C 628.62 -6.01527 3.6653 0
M  V30 6205 H 624.719 -0.781413 -0.0302921 0
M  V30 6206 H 627.303 -1.87104 0.538539 0
M  V30 6207 H 625.474 -3.6932 -1.20239 0
M  V30 6208 H 627.206 -3.9028 -1.07067 0
M  V30 6209 H 623.961 -4.66833 0.797763 0
M  V30 6210 H 624.385 -6.05949 3.01919 0
M  V30 6211 H 629.027 -4.14435 0.836881 0
M  V30 6212 H 626.745 -6.74501 4.45055 0
M  V30 6213 H 630.331 -5.1679 2.67245 0
M  V30 6214 H 629.211 -6.45339 4.45542 0
M  V30 6215 N 626.714 -0.118576 -1.57153 0
M  V30 6216 C 627.944 0.546466 -1.99242 0
M  V30 6217 C 628.352 1.60791 -0.997148 0
M  V30 6218 O 627.695 1.83691 0.0181745 0
M  V30 6219 C 627.757 1.23167 -3.37743 0
M  V30 6220 C 627.421 0.318226 -4.55891 0
M  V30 6221 C 628.418 -0.442988 -5.18009 0
M  V30 6222 C 626.103 0.229421 -5.01776 0
M  V30 6223 C 628.097 -1.28074 -6.244 0
M  V30 6224 C 625.784 -0.611966 -6.08028 0
M  V30 6225 C 626.782 -1.36568 -6.69207 0
M  V30 6226 O 626.47 -2.1931 -7.73407 0
M  V30 6227 H 626.202 0.149297 -0.659307 0
M  V30 6228 H 628.756 -0.201603 -2.04408 0
M  V30 6229 H 626.986 2.0268 -3.29329 0
M  V30 6230 H 628.675 1.79358 -3.64123 0
M  V30 6231 H 629.441 -0.38425 -4.83475 0
M  V30 6232 H 625.32 0.805771 -4.53903 0
M  V30 6233 H 628.864 -1.86952 -6.72082 0
M  V30 6234 H 624.761 -0.6721 -6.41991 0
M  V30 6235 H 625.529 -2.12247 -7.90502 0
M  V30 6236 N 628.193 1.56834 0.155195 0
M  V30 6237 C 629.421 1.87049 0.884326 0
M  V30 6238 C 629.836 0.705839 1.7511 0
M  V30 6239 O 629.193 -0.324641 1.79589 0
M  V30 6240 C 629.244 3.1644 1.74781 0
M  V30 6241 O 628.965 4.28417 0.915978 0
M  V30 6242 C 630.466 3.60113 2.58522 0
M  V30 6243 H 627.686 0.620196 0.25612 0
M  V30 6244 H 630.23 2.03946 0.150445 0
M  V30 6245 H 628.385 3.01321 2.43484 0
M  V30 6246 H 628.799 5.02353 1.50803 0
M  V30 6247 H 630.273 4.53508 3.14698 0
M  V30 6248 H 630.75 2.85005 3.34169 0
M  V30 6249 H 631.356 3.77898 1.95124 0
M  V30 6250 N 629.671 -0.424282 1.51781 0
M  V30 6251 C 630.918 -1.1726 1.65095 0
M  V30 6252 C 631.246 -1.90881 0.373477 0
M  V30 6253 O 630.501 -1.84835 -0.642997 0
M  V30 6254 C 630.8 -2.20418 2.81337 0
M  V30 6255 C 630.466 -1.63715 4.20129 0
M  V30 6256 C 629.128 -1.47975 4.57883 0
M  V30 6257 C 631.48 -1.22157 5.06682 0
M  V30 6258 C 628.808 -0.891703 5.79884 0
M  V30 6259 C 631.16 -0.647767 6.29275 0
M  V30 6260 C 629.824 -0.477371 6.65791 0
M  V30 6261 H 629.094 -0.429085 0.604125 0
M  V30 6262 H 631.741 -0.461852 1.85847 0
M  V30 6263 H 630.046 -2.97581 2.54859 0
M  V30 6264 H 631.743 -2.78163 2.88836 0
M  V30 6265 H 628.333 -1.76946 3.90369 0
M  V30 6266 H 632.517 -1.33133 4.7811 0
M  V30 6267 H 627.773 -0.747563 6.06813 0
M  V30 6268 H 631.947 -0.317291 6.95677 0
M  V30 6269 H 629.574 -0.0195936 7.60197 0
M  V30 6270 N 631.149 -1.42148 -0.680565 0
M  V30 6271 C 632.059 -1.47565 -1.82378 0
M  V30 6272 C 633.075 -0.36489 -1.70131 0
M  V30 6273 O 634.251 -0.614916 -1.91783 0
M  V30 6274 C 631.316 -1.37013 -3.18478 0
M  V30 6275 C 630.377 -2.58532 -3.42724 0
M  V30 6276 C 629.61 -2.48473 -4.72331 0
M  V30 6277 O 629.833 -1.51745 -5.49845 0
M  V30 6278 O 628.767 -3.38503 -4.97694 0
M  V30 6279 H 632.593 -2.44045 -1.80764 0
M  V30 6280 H 630.178 -1.23849 -0.835569 0
M  V30 6281 H 632.06 -1.33468 -3.99705 0
M  V30 6282 H 630.735 -0.436552 -3.20743 0
M  V30 6283 H 629.642 -2.67652 -2.61368 0
M  V30 6284 H 630.975 -3.50769 -3.45286 0
M  V30 6285 N 632.627 0.916307 -1.28225 0
M  V30 6286 C 633.557 2.0352 -1.14464 0
M  V30 6287 C 634.538 1.70045 -0.0430844 0
M  V30 6288 O 635.723 1.92954 -0.219619 0
M  V30 6289 C 632.853 3.37889 -0.803027 0
M  V30 6290 C 631.807 3.85516 -1.85908 0
M  V30 6291 C 631.133 5.1682 -1.37116 0
M  V30 6292 C 632.433 4.07655 -3.26519 0
M  V30 6293 H 634.127 2.1529 -2.08064 0
M  V30 6294 H 631.673 1.03446 -1.00174 0
M  V30 6295 H 633.626 4.15654 -0.693537 0
M  V30 6296 H 632.35 3.26164 0.168674 0
M  V30 6297 H 631.009 3.09953 -1.95767 0
M  V30 6298 H 630.657 5.01497 -0.38859 0
M  V30 6299 H 630.357 5.49657 -2.07728 0
M  V30 6300 H 631.881 5.97143 -1.27484 0
M  V30 6301 H 633.295 4.75953 -3.19596 0
M  V30 6302 H 631.692 4.51818 -3.94943 0
M  V30 6303 H 632.762 3.12553 -3.70727 0
M  V30 6304 N 634.105 1.10431 1.1244 0
M  V30 6305 C 635.015 0.765502 2.21759 0
M  V30 6306 C 636.031 -0.236966 1.72379 0
M  V30 6307 O 637.207 -0.0757329 2.01258 0
M  V30 6308 C 634.272 0.202316 3.46109 0
M  V30 6309 C 633.333 1.26205 4.1033 0
M  V30 6310 C 632.566 0.725648 5.28744 0
M  V30 6311 O 632.789 -0.447942 5.68638 0
M  V30 6312 O 631.723 1.48555 5.83279 0
M  V30 6313 H 635.549 1.67801 2.53133 0
M  V30 6314 H 633.134 0.879443 1.20773 0
M  V30 6315 H 635.016 -0.107918 4.21262 0
M  V30 6316 H 633.691 -0.683052 3.16411 0
M  V30 6317 H 632.598 1.62514 3.36957 0
M  V30 6318 H 633.931 2.12044 4.44183 0
M  V30 6319 N 635.583 -1.29855 0.893053 0
M  V30 6320 C 636.811 -1.99976 0.530788 0
M  V30 6321 C 637.226 -1.66889 -0.882799 0
M  V30 6322 O 636.583 -0.910352 -1.58173 0
M  V30 6323 C 636.634 -3.54547 0.705587 0
M  V30 6324 O 636.355 -3.86458 2.06353 0
M  V30 6325 C 637.856 -4.41937 0.347387 0
M  V30 6326 H 635.076 -0.639129 0.204339 0
M  V30 6327 H 637.62 -1.65549 1.20057 0
M  V30 6328 H 635.775 -3.87311 0.0830685 0
M  V30 6329 H 636.189 -4.81146 2.08803 0
M  V30 6330 H 637.663 -5.4954 0.520557 0
M  V30 6331 H 638.14 -4.33339 -0.715139 0
M  V30 6332 H 638.746 -4.14633 0.946567 0
M  V30 6333 N 637.061 -0.65484 -1.43351 0
M  V30 6334 C 637.993 0.0744757 -2.29079 0
M  V30 6335 C 639.006 0.7855 -1.42596 0
M  V30 6336 O 640.195 0.642986 -1.66517 0
M  V30 6337 C 637.295 1.12859 -3.19556 0
M  V30 6338 C 636.468 0.495381 -4.34586 0
M  V30 6339 C 635.527 1.44659 -5.05925 0
M  V30 6340 O 634.553 0.954567 -5.61139 0
M  V30 6341 N 635.755 2.78051 -5.09576 0
M  V30 6342 H 638.52 -0.661346 -2.92312 0
M  V30 6343 H 636.081 -0.497744 -1.54059 0
M  V30 6344 H 638.073 1.76577 -3.64147 0
M  V30 6345 H 636.643 1.76636 -2.57912 0
M  V30 6346 H 635.863 -0.32092 -3.92892 0
M  V30 6347 H 637.151 0.0534203 -5.08772 0
M  V30 6348 H 636.549 3.20584 -4.66093 0
M  V30 6349 H 635.106 3.37068 -5.57878 0
M  V30 6350 N 638.539 1.52521 -0.396863 0
M  V30 6351 C 639.486 2.26671 0.434624 0
M  V30 6352 C 640.456 1.28584 1.05144 0
M  V30 6353 O 641.641 1.57426 1.07804 0
M  V30 6354 C 638.781 3.08234 1.55196 0
M  V30 6355 C 637.894 4.21261 0.957262 0
M  V30 6356 C 637.029 4.90205 2.04627 0
M  V30 6357 C 636.068 5.95213 1.42787 0
M  V30 6358 N 635.205 6.57723 2.45651 0
M  V30 6359 H 640.045 2.973 -0.204139 0
M  V30 6360 H 637.582 1.46669 -0.112505 0
M  V30 6361 H 639.54 3.53819 2.2106 0
M  V30 6362 H 638.17 2.398 2.16092 0
M  V30 6363 H 637.222 3.79935 0.188005 0
M  V30 6364 H 638.534 4.96624 0.465416 0
M  V30 6365 H 637.688 5.39133 2.78246 0
M  V30 6366 H 636.427 4.14383 2.57174 0
M  V30 6367 H 635.432 5.45616 0.676968 0
M  V30 6368 H 636.657 6.72972 0.910255 0
M  V30 6369 H 634.603 5.84737 2.97353 0
M  V30 6370 H 634.52 7.28723 2.01243 0
M  V30 6371 H 635.788 7.11293 3.18876 0
M  V30 6372 N 640.017 0.126909 1.57088 0
M  V30 6373 C 640.965 -0.837618 2.16995 0
M  V30 6374 C 641.959 -1.26974 1.12133 0
M  V30 6375 O 643.165 -1.24056 1.30423 0
M  V30 6376 H 639.54 -0.288256 0.694559 0
M  V30 6377 H 641.511 -0.307957 2.96807 0
M  V30 6378 C 640.26 -2.07474 2.79016 0
M  V30 6379 H 639.583 -1.75117 3.59408 0
M  V30 6380 H 641.023 -2.72949 3.24461 0
M  V30 6381 C 639.482 -2.86967 1.76498 0
M  V30 6382 O 640.012 -3.82625 1.22316 0
M  V30 6383 N 638.218 -2.51111 1.46258 0
M  V30 6384 H 637.765 -1.73389 1.90509 0
M  V30 6385 H 637.723 -3.04594 0.779085 0
M  V30 6386 N 641.495 -1.56914 -0.146875 0
M  V30 6387 C 642.425 -2.01308 -1.1831 0
M  V30 6388 C 643.406 -0.892664 -1.44795 0
M  V30 6389 O 644.591 -1.16048 -1.55713 0
M  V30 6390 C 641.721 -2.3938 -2.51624 0
M  V30 6391 C 640.675 -3.54608 -2.3966 0
M  V30 6392 C 640.001 -3.78493 -3.77686 0
M  V30 6393 C 641.301 -4.87269 -1.88058 0
M  V30 6394 H 642.995 -2.88123 -0.813964 0
M  V30 6395 H 640.541 -1.38615 -0.3901 0
M  V30 6396 H 642.494 -2.69037 -3.24341 0
M  V30 6397 H 641.218 -1.49502 -2.90373 0
M  V30 6398 H 639.877 -3.25116 -1.69396 0
M  V30 6399 H 639.525 -2.85866 -4.13871 0
M  V30 6400 H 639.225 -4.56039 -3.70543 0
M  V30 6401 H 640.749 -4.10576 -4.51951 0
M  V30 6402 H 642.163 -5.15644 -2.50568 0
M  V30 6403 H 640.56 -5.68622 -1.91805 0
M  V30 6404 H 641.63 -4.77634 -0.836277 0
M  V30 6405 N 642.974 0.416227 -1.52004 0
M  V30 6406 C 643.906 1.52552 -1.71058 0
M  V30 6407 C 644.919 1.51693 -0.59102 0
M  V30 6408 O 646.108 1.56087 -0.865973 0
M  V30 6409 C 643.208 2.91455 -1.72937 0
M  V30 6410 C 642.381 3.16584 -3.01816 0
M  V30 6411 C 641.44 4.35322 -2.95603 0
M  V30 6412 O 640.466 4.32947 -3.6952 0
M  V30 6413 N 641.668 5.40049 -2.12903 0
M  V30 6414 H 644.433 1.36604 -2.66757 0
M  V30 6415 H 641.994 0.60544 -1.50153 0
M  V30 6416 H 643.986 3.68944 -1.66321 0
M  V30 6417 H 642.556 3.00895 -0.847418 0
M  V30 6418 H 641.776 2.27203 -3.22137 0
M  V30 6419 H 643.064 3.30213 -3.87088 0
M  V30 6420 H 642.462 5.44823 -1.52265 0
M  V30 6421 H 641.019 6.16308 -2.1215 0
M  V30 6422 N 644.452 1.42507 0.673017 0
M  V30 6423 C 645.701 1.42364 1.42883 0
M  V30 6424 C 646.014 0.0441598 1.9555 0
M  V30 6425 O 647.22 -0.0798679 2.71382 0
M  V30 6426 C 645.676 2.5043 2.58482 0
M  V30 6427 C 645.284 3.94392 2.12506 0
M  V30 6428 C 647.028 2.59455 3.35981 0
M  V30 6429 C 644.935 4.93964 3.25198 0
M  V30 6430 H 643.865 0.52951 0.536782 0
M  V30 6431 H 646.516 1.68422 0.728448 0
M  V30 6432 H 644.898 2.1754 3.30896 0
M  V30 6433 H 646.072 4.36645 1.47233 0
M  V30 6434 H 644.387 3.89233 1.4794 0
M  V30 6435 H 646.984 3.31025 4.19912 0
M  V30 6436 H 647.327 1.63869 3.82691 0
M  V30 6437 H 647.86 2.91549 2.70637 0
M  V30 6438 H 644.599 5.91034 2.83477 0
M  V30 6439 H 644.119 4.56341 3.89247 0
M  V30 6440 H 645.798 5.15763 3.90637 0
M  V30 6441 N 645.93 -0.909495 1.28709 0
M  V30 6442 C 647.158 -1.69272 1.18973 0
M  V30 6443 C 647.573 -1.87123 -0.251048 0
M  V30 6444 O 646.93 -1.40127 -1.16922 0
M  V30 6445 C 646.981 -3.08257 1.88839 0
M  V30 6446 O 646.702 -2.91228 3.27289 0
M  V30 6447 C 648.203 -4.02642 1.85457 0
M  V30 6448 H 645.423 -0.528999 0.412797 0
M  V30 6449 H 647.967 -1.13803 1.69909 0
M  V30 6450 H 646.122 -3.6053 1.41762 0
M  V30 6451 H 646.536 -3.79223 3.6234 0
M  V30 6452 H 648.01 -4.97613 2.38925 0
M  V30 6453 H 648.487 -4.31327 0.827893 0
M  V30 6454 H 649.093 -3.56298 2.32233 0
M  V30 6455 N 647.408 -1.11026 -1.11852 0
M  V30 6456 C 648.636 -0.878818 -1.87308 0
M  V30 6457 C 649.051 0.57111 -1.79955 0
M  V30 6458 O 648.408 1.39409 -1.17777 0
M  V30 6459 C 648.459 -1.3264 -3.36287 0
M  V30 6460 O 648.18 -2.71948 -3.43476 0
M  V30 6461 C 649.681 -1.12974 -4.28663 0
M  V30 6462 H 646.901 -0.315015 -0.592458 0
M  V30 6463 H 649.445 -1.47649 -1.41492 0
M  V30 6464 H 647.6 -0.772269 -3.79625 0
M  V30 6465 H 648.014 -2.91241 -4.3621 0
M  V30 6466 H 649.488 -1.49198 -5.31454 0
M  V30 6467 H 649.965 -0.0689127 -4.39146 0
M  V30 6468 H 650.571 -1.67064 -3.91113 0
M  V30 6469 N 648.886 1.2938 -0.899927 0
M  V30 6470 C 650.111 2.00228 -0.540692 0
M  V30 6471 C 650.536 1.66909 0.867359 0
M  V30 6472 O 649.894 0.893824 1.57735 0
M  V30 6473 C 649.942 3.52921 -0.740232 0
M  V30 6474 O 649.046 4.11879 0.207154 0
M  V30 6475 H 648.387 0.629505 -0.211233 0
M  V30 6476 H 650.917 1.6487 -1.21158 0
M  V30 6477 H 650.927 4.0287 -0.644973 0
M  V30 6478 H 649.602 3.76508 -1.76677 0
M  V30 6479 H 648.179 3.72845 0.0643315 0
M  V30 6480 N 650.364 0.662433 1.43002 0
M  V30 6481 C 651.612 0.179237 2.01304 0
M  V30 6482 C 651.933 -1.21428 1.52579 0
M  V30 6483 O 651.203 -1.81294 0.742252 0
M  V30 6484 H 649.783 0.0632725 0.744316 0
M  V30 6485 H 652.445 0.856169 1.75088 0
M  V30 6486 H 651.541 0.170957 3.11631 0
M  V30 6487 N 651.842 -1.52309 0.404946 0
M  V30 6488 C 653.09 -2.01368 -0.17186 0
M  V30 6489 C 653.411 -1.29261 -1.46002 0
M  V30 6490 O 652.681 -0.41729 -1.91404 0
M  V30 6491 H 651.261 -0.744034 -0.0664993 0
M  V30 6492 H 653.923 -1.87263 0.540228 0
M  V30 6493 H 653.019 -3.09888 -0.370957 0
M  V30 6494 N 653.32 -0.135238 -1.57019 0
M  V30 6495 C 654.55 0.525303 -1.9981 0
M  V30 6496 C 654.958 1.59724 -1.01415 0
M  V30 6497 O 654.301 1.837 -0.00130938 0
M  V30 6498 C 654.363 1.19578 -3.3903 0
M  V30 6499 C 654.027 0.269855 -4.56203 0
M  V30 6500 C 655.024 -0.497905 -5.1751 0
M  V30 6501 C 652.709 0.176188 -5.01991 0
M  V30 6502 C 654.703 -1.3469 -6.23007 0
M  V30 6503 C 652.39 -0.676422 -6.07345 0
M  V30 6504 C 653.388 -1.43658 -6.67721 0
M  V30 6505 O 653.076 -2.27501 -7.71037 0
M  V30 6506 H 652.808 0.142296 -0.660854 0
M  V30 6507 H 655.362 -0.223272 -2.04183 0
M  V30 6508 H 653.592 1.99176 -3.3146 0
M  V30 6509 H 655.281 1.75486 -3.66005 0
M  V30 6510 H 656.047 -0.435507 -4.83041 0
M  V30 6511 H 651.926 0.757583 -4.54733 0
M  V30 6512 H 655.47 -1.9407 -6.70062 0
M  V30 6513 H 651.367 -0.740154 -6.41243 0
M  V30 6514 H 652.135 -2.20619 -7.88206 0
M  V30 6515 N 654.798 1.5699 0.138552 0
M  V30 6516 C 656.046 1.83446 0.848053 0
M  V30 6517 C 656.367 0.71744 1.81322 0
M  V30 6518 O 655.637 -0.260228 1.94164 0
M  V30 6519 H 654.217 0.676792 0.316166 0
M  V30 6520 H 656.879 1.94462 0.130538 0
M  V30 6521 H 655.975 2.78677 1.40518 0
M  V30 6522 N 656.276 -0.40816 1.52223 0
M  V30 6523 C 657.553 -1.16807 1.56893 0
M  V30 6524 C 657.933 -2.08169 0.350537 0
M  V30 6525 O 657.281 -2.18684 -0.662536 0
M  V30 6526 C 657.491 -1.94451 2.8981 0
M  V30 6527 C 658.839 -2.50484 3.42845 0
M  V30 6528 O 659.863 -2.0463 2.91556 0
M  V30 6529 O 658.722 -3.34192 4.3241 0
M  V30 6530 H 655.816 -0.533382 0.632007 0
M  V30 6531 H 658.362 -0.414862 1.64551 0
M  V30 6532 H 657.134 -1.27527 3.69936 0
M  V30 6533 H 656.757 -2.76775 2.85449 0
M  V30 6534 N 657.755 -1.42862 -0.66545 0
M  V30 6535 C 658.685 -1.49867 -1.79059 0
M  V30 6536 C 659.666 -0.354394 -1.66367 0
M  V30 6537 O 660.851 -0.569969 -1.85647 0
M  V30 6538 C 657.981 -1.40943 -3.17415 0
M  V30 6539 C 656.935 -2.53495 -3.44854 0
M  V30 6540 C 656.261 -2.29626 -4.82883 0
M  V30 6541 C 657.561 -3.95781 -3.40815 0
M  V30 6542 H 659.255 -2.44037 -1.73453 0
M  V30 6543 H 656.801 -1.17456 -0.833071 0
M  V30 6544 H 658.754 -1.4445 -3.95869 0
M  V30 6545 H 657.478 -0.432716 -3.23721 0
M  V30 6546 H 656.137 -2.4932 -2.68766 0
M  V30 6547 H 655.785 -1.30226 -4.8585 0
M  V30 6548 H 655.485 -3.05065 -5.02204 0
M  V30 6549 H 657.009 -2.34897 -5.63609 0
M  V30 6550 H 658.423 -4.01508 -4.09224 0
M  V30 6551 H 656.82 -4.71148 -3.71672 0
M  V30 6552 H 657.89 -4.21786 -2.39216 0
M  V30 6553 N 659.233 0.902656 -1.29189 0
M  V30 6554 C 660.51 1.63296 -1.07674 0
M  V30 6555 C 660.89 2.07649 0.380137 0
M  V30 6556 O 660.238 1.82997 1.36837 0
M  V30 6557 C 660.448 2.81603 -2.06158 0
M  V30 6558 C 661.796 3.52359 -2.36914 0
M  V30 6559 O 662.82 2.91767 -2.04329 0
M  V30 6560 O 661.679 4.61586 -2.92576 0
M  V30 6561 H 658.773 0.716889 -0.41231 0
M  V30 6562 H 661.319 0.950984 -1.4055 0
M  V30 6563 H 660.091 2.46004 -3.04299 0
M  V30 6564 H 659.714 3.57508 -1.73993 0
M  V30 6565 N 660.711 1.11618 1.11262 0
M  V30 6566 C 661.641 0.79846 2.19424 0
M  V30 6567 C 662.622 -0.234003 1.68483 0
M  V30 6568 O 663.807 -0.0970704 1.93957 0
M  V30 6569 C 660.937 0.242892 3.4645 0
M  V30 6570 C 659.891 1.20744 4.10615 0
M  V30 6571 C 659.217 0.512494 5.32238 0
M  V30 6572 C 660.517 2.55884 4.55325 0
M  V30 6573 H 662.211 1.70286 2.46258 0
M  V30 6574 H 659.757 0.820195 1.18359 0
M  V30 6575 H 661.71 0.00840447 4.21399 0
M  V30 6576 H 660.434 -0.696811 3.1908 0
M  V30 6577 H 659.093 1.42759 3.37662 0
M  V30 6578 H 658.741 -0.432075 5.01141 0
M  V30 6579 H 658.441 1.15583 5.7612 0
M  V30 6580 H 659.965 0.286842 6.09926 0
M  V30 6581 H 661.379 2.37946 5.21588 0
M  V30 6582 H 659.776 3.16216 5.10027 0
M  V30 6583 H 660.846 3.14968 3.68678 0
M  V30 6584 N 662.189 -1.289 0.906776 0
M  V30 6585 C 663.419 -1.99112 0.551168 0
M  V30 6586 C 663.827 -1.67998 -0.870243 0
M  V30 6587 O 663.17 -0.92525 -1.58697 0
M  V30 6588 C 663.232 -3.53162 0.672065 0
M  V30 6589 C 662.896 -4.07849 2.06174 0
M  V30 6590 C 663.893 -4.22212 3.0337 0
M  V30 6591 C 661.578 -4.4271 2.37304 0
M  V30 6592 C 663.572 -4.70678 4.29815 0
M  V30 6593 C 661.259 -4.90871 3.6399 0
M  V30 6594 C 662.257 -5.04811 4.6006 0
M  V30 6595 O 661.945 -5.51925 5.84495 0
M  V30 6596 H 661.677 -0.642728 0.209469 0
M  V30 6597 H 664.231 -1.65234 1.22012 0
M  V30 6598 H 662.461 -3.86662 -0.05394 0
M  V30 6599 H 664.15 -4.046 0.324579 0
M  V30 6600 H 664.916 -3.9556 2.80637 0
M  V30 6601 H 660.795 -4.31114 1.63283 0
M  V30 6602 H 664.339 -4.81474 5.04806 0
M  V30 6603 H 660.236 -5.16961 3.86551 0
M  V30 6604 H 661.004 -5.70225 5.87185 0
M  V30 6605 N 663.667 -0.670007 -1.42649 0
M  V30 6606 C 664.913 -0.190568 -2.01903 0
M  V30 6607 C 665.246 1.19817 -1.52832 0
M  V30 6608 O 664.521 1.80342 -0.728485 0
M  V30 6609 C 664.804 -0.21991 -3.59428 0
M  V30 6610 C 664.657 -1.64376 -4.18689 0
M  V30 6611 C 665.976 0.434519 -4.3795 0
M  V30 6612 H 663.095 -0.0707219 -0.733599 0
M  V30 6613 H 665.737 -0.853883 -1.69732 0
M  V30 6614 H 663.887 0.344894 -3.86966 0
M  V30 6615 H 665.559 -2.26044 -4.02122 0
M  V30 6616 H 663.802 -2.18591 -3.747 0
M  V30 6617 H 664.473 -1.61601 -5.27815 0
M  V30 6618 H 666.949 -0.0462156 -4.16074 0
M  V30 6619 H 665.825 0.38333 -5.4756 0
M  V30 6620 H 666.086 1.51135 -4.15464 0
M  V30 6621 N 665.145 1.52092 -0.413018 0
M  V30 6622 C 666.092 2.27119 0.410558 0
M  V30 6623 C 667.062 1.29692 1.03774 0
M  V30 6624 O 668.247 1.58561 1.06128 0
M  V30 6625 C 665.387 3.09863 1.51918 0
M  V30 6626 C 664.5 4.22252 0.912528 0
M  V30 6627 C 663.635 4.92348 1.99417 0
M  V30 6628 C 662.674 5.96694 1.36466 0
M  V30 6629 N 661.811 6.60292 2.38661 0
M  V30 6630 H 666.651 2.97067 -0.235661 0
M  V30 6631 H 664.188 1.46542 -0.128055 0
M  V30 6632 H 666.146 3.56144 2.17295 0
M  V30 6633 H 664.776 2.42078 2.13537 0
M  V30 6634 H 663.828 3.80113 0.147697 0
M  V30 6635 H 665.14 4.9709 0.412717 0
M  V30 6636 H 664.294 5.42054 2.72512 0
M  V30 6637 H 663.033 4.17087 2.52764 0
M  V30 6638 H 662.038 5.46304 0.61906 0
M  V30 6639 H 663.263 6.73899 0.838827 0
M  V30 6640 H 661.209 5.87858 2.91134 0
M  V30 6641 H 661.126 7.30816 1.93503 0
M  V30 6642 H 662.394 7.14635 3.11314 0
M  V30 6643 N 666.623 0.143563 1.56945 0
M  V30 6644 C 667.87 -0.508407 1.96014 0
M  V30 6645 C 668.198 -1.65099 1.02824 0
M  V30 6646 O 667.453 -1.95618 0.0567764 0
M  V30 6647 C 667.752 -1.05885 3.41355 0
M  V30 6648 C 667.418 -0.0350809 4.50886 0
M  V30 6649 C 666.08 0.246362 4.80569 0
M  V30 6650 C 668.432 0.661282 5.16988 0
M  V30 6651 C 665.76 1.23003 5.73661 0
M  V30 6652 C 668.112 1.63375 6.11139 0
M  V30 6653 C 666.776 1.92292 6.39203 0
M  V30 6654 H 666.046 -0.186039 0.717266 0
M  V30 6655 H 668.693 0.229667 1.90118 0
M  V30 6656 H 666.998 -1.87419 3.44066 0
M  V30 6657 H 668.695 -1.57183 3.6891 0
M  V30 6658 H 665.285 -0.264622 4.27782 0
M  V30 6659 H 669.469 0.457038 4.94191 0
M  V30 6660 H 664.725 1.46056 5.93698 0
M  V30 6661 H 668.899 2.17887 6.61436 0
M  V30 6662 H 666.526 2.68666 7.11142 0
M  V30 6663 N 668.101 -1.57061 -0.130224 0
M  V30 6664 C 669.349 -1.83893 -0.838313 0
M  V30 6665 C 669.67 -0.727046 -1.80939 0
M  V30 6666 O 668.94 0.249927 -1.94299 0
M  V30 6667 H 667.52 -0.67846 -0.312573 0
M  V30 6668 H 670.182 -1.94529 -0.120224 0
M  V30 6669 H 669.278 -2.79419 -1.39038 0
M  V30 6670 N 669.579 0.400081 -1.52437 0
M  V30 6671 C 670.804 1.17221 -1.71096 0
M  V30 6672 C 671.229 1.83269 -0.423565 0
M  V30 6673 O 670.587 1.70378 0.619751 0
M  V30 6674 C 670.635 2.20425 -2.85386 0
M  V30 6675 O 669.739 3.26769 -2.51586 0
M  V30 6676 H 669.08 0.341766 -0.569291 0
M  V30 6677 H 671.61 0.467772 -1.99181 0
M  V30 6678 H 671.62 2.64605 -3.10561 0
M  V30 6679 H 670.295 1.71737 -3.78786 0
M  V30 6680 H 668.872 2.87804 -2.37114 0
M  V30 6681 N 671.057 1.43213 0.657864 0
M  V30 6682 C 672.004 1.48011 1.77092 0
M  V30 6683 C 672.974 0.330291 1.62783 0
M  V30 6684 O 674.159 0.536787 1.83094 0
M  V30 6685 C 671.299 1.40461 3.15222 0
M  V30 6686 C 670.412 2.65612 3.40697 0
M  V30 6687 C 669.547 2.50083 4.68649 0
M  V30 6688 C 668.586 3.70525 4.87214 0
M  V30 6689 N 667.723 3.53835 6.0642 0
M  V30 6690 H 672.563 2.43121 1.72326 0
M  V30 6691 H 670.1 1.20687 0.841013 0
M  V30 6692 H 672.058 1.34079 3.95068 0
M  V30 6693 H 670.688 0.489359 3.19069 0
M  V30 6694 H 669.74 2.82292 2.54982 0
M  V30 6695 H 671.052 3.5509 3.50303 0
M  V30 6696 H 670.206 2.41383 5.56614 0
M  V30 6697 H 668.945 1.58121 4.61356 0
M  V30 6698 H 667.95 3.79639 3.97686 0
M  V30 6699 H 669.175 4.63489 4.96341 0
M  V30 6700 H 667.121 2.64604 6.00267 0
M  V30 6701 H 667.038 4.36912 6.16963 0
M  V30 6702 H 668.306 3.48978 6.97019 0
M  V30 6703 N 672.536 -0.895792 1.29666 0
M  V30 6704 C 673.499 -1.98189 1.15124 0
M  V30 6705 C 674.499 -1.60572 0.0855717 0
M  V30 6706 O 675.689 -1.70991 0.332826 0
M  V30 6707 C 672.821 -3.32289 0.761372 0
M  V30 6708 H 674.014 -2.12518 2.11603 0
M  V30 6709 H 671.567 -1.0808 1.12908 0
M  V30 6710 H 672.302 -3.23662 -0.203393 0
M  V30 6711 H 672.087 -3.60958 1.53139 0
M  V30 6712 H 673.577 -4.1198 0.682792 0
M  V30 6713 N 674.014 -1.12206 -1.10668 0
M  V30 6714 C 675.239 -0.898938 -1.86906 0
M  V30 6715 C 675.664 0.546346 -1.79991 0
M  V30 6716 O 675.022 1.38655 -1.1681 0
M  V30 6717 C 675.07 -1.37529 -3.33344 0
M  V30 6718 O 674.174 -0.55218 -4.08687 0
M  V30 6719 H 673.515 -0.323163 -0.580053 0
M  V30 6720 H 676.045 -1.49355 -1.39837 0
M  V30 6721 H 676.055 -1.3733 -3.84193 0
M  V30 6722 H 674.73 -2.42767 -3.37693 0
M  V30 6723 H 673.307 -0.620947 -3.67694 0
M  V30 6724 N 675.492 1.28418 -0.913599 0
M  V30 6725 C 676.439 2.27301 -0.400373 0
M  V30 6726 C 677.409 1.57582 0.52509 0
M  V30 6727 O 678.594 1.85482 0.447318 0
M  V30 6728 C 675.734 3.43284 0.35361 0
M  V30 6729 C 674.847 4.27752 -0.604341 0
M  V30 6730 C 673.982 5.30934 0.168075 0
M  V30 6731 C 673.021 6.07065 -0.783499 0
M  V30 6732 N 672.158 7.02086 -0.0446112 0
M  V30 6733 H 676.998 2.70579 -1.24865 0
M  V30 6734 H 674.535 1.33067 -0.627028 0
M  V30 6735 H 676.493 4.09322 0.806945 0
M  V30 6736 H 675.123 3.00997 1.16623 0
M  V30 6737 H 674.175 3.61759 -1.17621 0
M  V30 6738 H 675.487 4.80682 -1.33216 0
M  V30 6739 H 674.641 6.02855 0.681979 0
M  V30 6740 H 673.38 4.78771 0.928947 0
M  V30 6741 H 672.385 5.33995 -1.30878 0
M  V30 6742 H 673.61 6.61317 -1.54392 0
M  V30 6743 H 671.556 6.52273 0.698272 0
M  V30 6744 H 671.473 7.52637 -0.712258 0
M  V30 6745 H 672.741 7.78205 0.449102 0
M  V30 6746 N 676.97 0.677563 1.42291 0
M  V30 6747 C 677.902 -0.0380218 2.29168 0
M  V30 6748 C 678.915 -0.762714 1.43828 0
M  V30 6749 O 680.104 -0.616413 1.67519 0
M  V30 6750 C 677.204 -1.07761 3.21311 0
M  V30 6751 C 676.377 -0.42618 4.35319 0
M  V30 6752 C 675.436 -1.36592 5.08162 0
M  V30 6753 O 674.462 -0.865174 5.62586 0
M  V30 6754 N 675.664 -2.69909 5.13935 0
M  V30 6755 H 678.429 0.707766 2.91223 0
M  V30 6756 H 675.99 0.52219 1.53247 0
M  V30 6757 H 677.982 -1.70761 3.6691 0
M  V30 6758 H 676.552 -1.72511 2.60689 0
M  V30 6759 H 675.772 0.383385 3.92331 0
M  V30 6760 H 677.06 0.0275277 5.08793 0
M  V30 6761 H 676.458 -3.13129 4.71134 0
M  V30 6762 H 675.015 -3.2815 5.6317 0
M  V30 6763 N 678.448 -1.51871 0.421078 0
M  V30 6764 C 679.396 -2.28903 -0.413066 0
M  V30 6765 C 680.39 -1.3408 -1.03532 0
M  V30 6766 O 681.596 -1.5149 -0.972146 0
M  V30 6767 H 677.971 -0.736478 -0.152003 0
M  V30 6768 H 679.942 -2.97285 0.257695 0
M  V30 6769 C 678.691 -3.13156 -1.51091 0
M  V30 6770 H 678.014 -3.85997 -1.04145 0
M  V30 6771 H 679.454 -3.7014 -2.06814 0
M  V30 6772 C 677.913 -2.27482 -2.48503 0
M  V30 6773 O 678.443 -1.92325 -3.52667 0
M  V30 6774 N 676.649 -1.91019 -2.18998 0
M  V30 6775 H 676.196 -2.19808 -1.34322 0
M  V30 6776 H 676.154 -1.3399 -2.84419 0
M  V30 6777 N 679.926 -0.151884 -1.56866 0
M  V30 6778 C 681.172 0.492327 -1.97352 0
M  V30 6779 C 681.527 1.62156 -1.03553 0
M  V30 6780 O 680.82 1.91467 -0.0714872 0
M  V30 6781 C 681.014 1.04074 -3.41911 0
M  V30 6782 C 680.843 -0.0338306 -4.49687 0
M  V30 6783 C 679.613 -0.476914 -5.03044 0
M  V30 6784 C 681.811 -0.827105 -5.07606 0
M  V30 6785 N 679.793 -1.53382 -5.9443 0
M  V30 6786 C 681.164 -1.73439 -5.95247 0
M  V30 6787 C 683.219 -0.874351 -4.90163 0
M  V30 6788 C 681.922 -2.68488 -6.67313 0
M  V30 6789 C 683.948 -1.81269 -5.62935 0
M  V30 6790 C 683.31 -2.70749 -6.50288 0
M  V30 6791 H 679.409 0.148822 -0.767708 0
M  V30 6792 H 681.993 -0.247615 -1.93119 0
M  V30 6793 H 680.164 1.75027 -3.46728 0
M  V30 6794 H 681.896 1.65197 -3.69448 0
M  V30 6795 H 678.651 -0.0782493 -4.73535 0
M  V30 6796 H 679.075 -2.06217 -6.44828 0
M  V30 6797 H 683.717 -0.196628 -4.22343 0
M  V30 6798 H 681.435 -3.37257 -7.34359 0
M  V30 6799 H 685.021 -1.85511 -5.51432 0
M  V30 6800 H 683.901 -3.42175 -7.0561 0
M  V30 6801 N 681.404 1.57128 0.121893 0
M  V30 6802 C 682.681 1.75664 0.860327 0
M  V30 6803 C 683.061 0.726585 1.98202 0
M  V30 6804 O 682.409 -0.24999 2.27128 0
M  V30 6805 C 682.619 3.20571 1.37968 0
M  V30 6806 C 683.967 3.82988 1.83317 0
M  V30 6807 O 684.991 3.24156 1.47654 0
M  V30 6808 O 683.85 4.86393 2.49168 0
M  V30 6809 H 680.944 0.719153 0.408348 0
M  V30 6810 H 683.49 1.6937 0.105859 0
M  V30 6811 H 682.262 3.87056 0.57477 0
M  V30 6812 H 681.885 3.31392 2.19694 0
M  V30 6813 N 682.882 -0.391992 1.52647 0
M  V30 6814 C 684.122 -1.1463 1.69232 0
M  V30 6815 C 684.486 -1.87312 0.421684 0
M  V30 6816 O 685.687 -2.64768 0.463852 0
M  V30 6817 C 683.958 -2.10088 2.89133 0
M  V30 6818 S 685.517 -2.93395 3.2629 0
M  V30 6819 H 682.335 -0.388076 0.59575 0
M  V30 6820 H 684.937 -0.431149 1.90687 0
M  V30 6821 H 683.641 -1.55408 3.79837 0
M  V30 6822 H 683.172 -2.86116 2.70003 0
M  V30 6823 H 685.187 -4.12193 2.76244 0
M  V30 6824 N 684.36 -1.4356 -0.65026 0
M  V30 6825 C 685.776 -1.27025 -0.966269 0
M  V30 6826 C 685.976 -0.192117 -2.00582 0
M  V30 6827 O 685.032 0.428459 -2.48838 0
M  V30 6828 C 686.345 -2.63556 -1.44772 0
M  V30 6829 C 687.893 -2.71111 -1.56421 0
M  V30 6830 C 688.368 -4.08067 -2.07956 0
M  V30 6831 N 689.859 -4.10146 -2.15254 0
M  V30 6832 C 690.594 -5.12952 -2.56258 0
M  V30 6833 N 690.09 -6.26129 -2.96537 0
M  V30 6834 N 691.883 -5.00306 -2.56224 0
M  V30 6835 H 684.034 -2.12367 0.0375758 0
M  V30 6836 H 686.297 -0.946894 -0.0457782 0
M  V30 6837 H 686.003 -3.43429 -0.758271 0
M  V30 6838 H 685.877 -2.89152 -2.42221 0
M  V30 6839 H 688.264 -1.91569 -2.24467 0
M  V30 6840 H 688.345 -2.49277 -0.573967 0
M  V30 6841 H 687.989 -4.88077 -1.40511 0
M  V30 6842 H 687.919 -4.27266 -3.07817 0
M  V30 6843 H 690.41 -3.28453 -1.86887 0
M  V30 6844 H 690.723 -7.00403 -3.26582 0
M  V30 6845 H 689.068 -6.29597 -2.94334 0
M  V30 6846 H 692.259 -4.10952 -2.24135 0
M  V30 6847 H 692.432 -5.80553 -2.87857 0
M  V30 6848 N 685.838 0.888903 -1.30139 0
M  V30 6849 C 687.249 1.45578 -1.16893 0
M  V30 6850 C 687.6 1.94825 0.231866 0
M  V30 6851 O 686.725 1.84661 1.12824 0
M  V30 6852 C 687.32 2.646 -2.11595 0
M  V30 6853 C 685.879 3.17389 -2.02339 0
M  V30 6854 C 685.026 1.90081 -2.01902 0
M  V30 6855 H 687.977 0.69921 -1.42467 0
M  V30 6856 H 687.998 3.40687 -1.69449 0
M  V30 6857 H 687.51 2.28726 -3.13538 0
M  V30 6858 H 685.611 3.5793 -1.03523 0
M  V30 6859 H 685.724 3.80955 -2.90534 0
M  V30 6860 H 684.088 2.08246 -1.46648 0
M  V30 6861 H 684.871 1.5647 -3.05568 0
M  V30 6862 N 687.317 1.12792 1.10072 0
M  V30 6863 C 688.547 0.907189 1.85617 0
M  V30 6864 C 688.955 -0.547181 1.81115 0
M  V30 6865 O 688.298 -1.39024 1.20075 0
M  V30 6866 C 688.36 1.30872 3.34832 0
M  V30 6867 C 688.024 2.77516 3.6309 0
M  V30 6868 C 689.021 3.75696 3.59373 0
M  V30 6869 C 686.706 3.14513 3.91646 0
M  V30 6870 C 688.7 5.08888 3.83812 0
M  V30 6871 C 686.387 4.47886 4.15742 0
M  V30 6872 C 687.385 5.44882 4.11816 0
M  V30 6873 O 687.073 6.7585 4.35295 0
M  V30 6874 H 686.805 0.323855 0.593375 0
M  V30 6875 H 689.359 1.50262 1.40038 0
M  V30 6876 H 687.589 0.656518 3.81086 0
M  V30 6877 H 689.278 1.06153 3.91773 0
M  V30 6878 H 690.044 3.48458 3.37345 0
M  V30 6879 H 685.923 2.39622 3.93831 0
M  V30 6880 H 689.467 5.84586 3.80663 0
M  V30 6881 H 685.364 4.74851 4.37249 0
M  V30 6882 H 686.132 6.81853 4.52791 0
M  V30 6883 N 688.795 -1.27931 0.920396 0
M  V30 6884 C 689.725 -2.29487 0.431024 0
M  V30 6885 C 690.706 -1.62435 -0.504861 0
M  V30 6886 O 691.891 -1.89797 -0.411176 0
M  V30 6887 C 689.021 -3.45788 -0.323709 0
M  V30 6888 C 687.975 -4.24784 0.523658 0
M  V30 6889 C 687.301 -5.33488 -0.359809 0
M  V30 6890 C 688.601 -4.90874 1.78437 0
M  V30 6891 H 690.295 -2.70671 1.27975 0
M  V30 6892 H 687.841 -1.30121 0.616813 0
M  V30 6893 H 689.794 -4.15927 -0.676952 0
M  V30 6894 H 688.518 -3.03502 -1.2064 0
M  V30 6895 H 687.177 -3.56382 0.85951 0
M  V30 6896 H 686.825 -4.87445 -1.24124 0
M  V30 6897 H 686.525 -5.87247 0.203605 0
M  V30 6898 H 688.049 -6.06472 -0.708787 0
M  V30 6899 H 689.463 -5.53339 1.49963 0
M  V30 6900 H 687.86 -5.54659 2.29071 0
M  V30 6901 H 688.93 -4.14988 2.50824 0
M  V30 6902 N 690.273 -0.685099 -1.4193 0
M  V30 6903 C 691.498 -0.218842 -2.06242 0
M  V30 6904 C 691.923 1.11923 -1.51178 0
M  V30 6905 O 691.281 1.69837 -0.634446 0
M  V30 6906 C 691.329 -0.175592 -3.60172 0
M  V30 6907 O 690.433 0.852776 -4.03487 0
M  V30 6908 H 689.774 -0.109531 -0.654904 0
M  V30 6909 H 692.304 -0.937013 -1.81882 0
M  V30 6910 H 692.314 -0.00291151 -4.08 0
M  V30 6911 H 690.989 -1.15222 -3.99621 0
M  V30 6912 H 689.566 0.650301 -3.67186 0
M  V30 6913 N 691.751 1.51645 -0.429126 0
M  V30 6914 C 692.999 2.01616 0.139802 0
M  V30 6915 C 693.32 1.31568 1.43927 0
M  V30 6916 O 692.59 0.447688 1.90716 0
M  V30 6917 H 691.17 0.744998 0.054654 0
M  V30 6918 H 693.832 1.8638 -0.569952 0
M  V30 6919 H 692.928 3.10439 0.321609 0
M  V30 6920 N 693.229 0.160201 1.56784 0
M  V30 6921 C 694.177 -0.791402 2.18723 0
M  V30 6922 C 695.171 -1.24567 1.14801 0
M  V30 6923 O 696.377 -1.21262 1.33025 0
M  V30 6924 H 692.752 -0.273458 0.700517 0
M  V30 6925 H 694.723 -0.244931 2.97393 0
M  V30 6926 C 693.472 -2.01509 2.83354 0
M  V30 6927 H 692.795 -1.67454 3.63041 0
M  V30 6928 H 694.235 -2.66006 3.30177 0
M  V30 6929 C 692.694 -2.83159 1.82545 0
M  V30 6930 O 693.224 -3.79944 1.30405 0
M  V30 6931 N 691.43 -2.47953 1.51552 0
M  V30 6932 H 690.977 -1.69309 1.94144 0
M  V30 6933 H 690.935 -3.02873 0.843519 0
M  V30 6934 N 694.707 -1.5719 -0.113559 0
M  V30 6935 C 695.655 -2.01725 -1.158 0
M  V30 6936 C 696.649 -0.915105 -1.42556 0
M  V30 6937 O 697.855 -1.10031 -1.42454 0
M  V30 6938 H 694.23 -0.64262 -0.390569 0
M  V30 6939 H 696.201 -2.88666 -0.755926 0
M  V30 6940 C 694.95 -2.44203 -2.47507 0
M  V30 6941 H 694.273 -3.28582 -2.27758 0
M  V30 6942 H 695.713 -2.79158 -3.19135 0
M  V30 6943 C 694.172 -1.30785 -3.10478 0
M  V30 6944 O 694.702 -0.626807 -3.9678 0
M  V30 6945 N 692.908 -1.06352 -2.7044 0
M  V30 6946 H 692.455 -1.61913 -2.00355 0
M  V30 6947 H 692.413 -0.306614 -3.12901 0
M  V30 6948 N 696.185 0.383891 -1.52853 0
M  V30 6949 C 697.095 1.49343 -1.80925 0
M  V30 6950 C 698.111 1.59458 -0.696348 0
M  V30 6951 O 699.287 1.75698 -0.984481 0
M  V30 6952 C 696.352 2.84819 -1.97684 0
M  V30 6953 C 695.413 2.84382 -3.21598 0
M  V30 6954 C 694.646 4.13397 -3.37548 0
M  V30 6955 O 694.869 5.08619 -2.58192 0
M  V30 6956 O 693.803 4.20325 -4.30826 0
M  V30 6957 H 697.629 1.2855 -2.75152 0
M  V30 6958 H 695.214 0.572229 -1.38007 0
M  V30 6959 H 697.096 3.65125 -2.10385 0
M  V30 6960 H 695.771 3.05627 -1.06647 0
M  V30 6961 H 694.678 2.0284 -3.14336 0
M  V30 6962 H 696.011 2.68526 -4.12498 0
M  V30 6963 N 697.663 1.43903 0.642637 0
M  V30 6964 C 698.909 1.46296 1.40447 0
M  V30 6965 C 699.242 0.0908361 1.93987 0
M  V30 6966 O 698.517 -0.889884 1.72949 0
M  V30 6967 C 698.8 2.51399 2.57819 0
M  V30 6968 C 698.653 3.97926 2.09702 0
M  V30 6969 C 699.972 2.53125 3.60022 0
M  V30 6970 H 697.091 0.532676 0.509338 0
M  V30 6971 H 699.733 1.75515 0.727635 0
M  V30 6972 H 697.883 2.26614 3.1556 0
M  V30 6973 H 699.555 4.33804 1.5688 0
M  V30 6974 H 697.798 4.10252 1.40982 0
M  V30 6975 H 698.469 4.67096 2.94152 0
M  V30 6976 H 700.945 2.75242 3.12059 0
M  V30 6977 H 699.821 3.28589 4.39682 0
M  V30 6978 H 700.082 1.56895 4.13324 0
M  V30 6979 N 699.141 -0.881989 1.30609 0
M  V30 6980 C 700.381 -1.64817 1.20891 0
M  V30 6981 C 700.745 -1.90593 -0.232043 0
M  V30 6982 O 701.946 -2.64964 -0.452516 0
M  V30 6983 C 700.217 -2.95006 2.01758 0
M  V30 6984 S 701.776 -3.85953 2.08771 0
M  V30 6985 H 698.594 -0.565651 0.430767 0
M  V30 6986 H 701.196 -1.04665 1.65122 0
M  V30 6987 H 699.9 -2.73973 3.0556 0
M  V30 6988 H 699.431 -3.60189 1.582 0
M  V30 6989 H 701.446 -4.81037 1.21727 0
M  V30 6990 N 700.619 -1.13374 -1.09472 0
M  V30 6991 C 701.847 -0.918351 -1.85402 0
M  V30 6992 C 702.262 0.53281 -1.81126 0
M  V30 6993 O 701.619 1.36879 -1.20708 0
M  V30 6994 C 701.67 -1.39743 -3.33398 0
M  V30 6995 O 701.391 -2.79172 -3.37631 0
M  V30 6996 C 702.892 -1.22042 -4.2617 0
M  V30 6997 H 700.112 -0.327511 -0.585643 0
M  V30 6998 H 702.656 -1.50617 -1.38328 0
M  V30 6999 H 700.811 -0.852619 -3.77901 0
M  V30 7000 H 701.225 -3.00428 -4.29934 0
M  V30 7001 H 702.699 -1.60438 -5.2817 0
M  V30 7002 H 703.176 -0.162047 -4.38901 0
M  V30 7003 H 703.782 -1.75323 -3.87482 0
M  V30 7004 N 702.098 1.27442 -0.927168 0
M  V30 7005 C 703.345 1.94391 -0.567324 0
M  V30 7006 C 703.673 1.72875 0.891321 0
M  V30 7007 O 702.928 1.05071 1.65102 0
M  V30 7008 C 703.227 3.47413 -0.838994 0
M  V30 7009 C 702.893 3.89049 -2.2793 0
M  V30 7010 C 701.555 4.00127 -2.67305 0
M  V30 7011 C 703.907 4.10154 -3.21595 0
M  V30 7012 C 701.235 4.29697 -3.99471 0
M  V30 7013 C 703.587 4.41208 -4.53341 0
M  V30 7014 C 702.251 4.50499 -4.92551 0
M  V30 7015 H 701.521 0.711325 -0.207598 0
M  V30 7016 H 704.168 1.51523 -1.17103 0
M  V30 7017 H 702.473 3.91503 -0.152609 0
M  V30 7018 H 704.17 3.97354 -0.53955 0
M  V30 7019 H 700.76 3.80962 -1.96381 0
M  V30 7020 H 704.944 4.01036 -2.92377 0
M  V30 7021 H 700.2 4.35099 -4.29533 0
M  V30 7022 H 704.374 4.56486 -5.25922 0
M  V30 7023 H 702.001 4.73167 -5.94994 0
M  V30 7024 N 703.576 0.692616 1.41565 0
M  V30 7025 C 704.524 0.0139952 2.32596 0
M  V30 7026 C 705.518 -0.771691 1.50802 0
M  V30 7027 O 706.724 -0.677646 1.66757 0
M  V30 7028 H 703.099 -0.0142745 0.751865 0
M  V30 7029 H 705.07 0.798851 2.87508 0
M  V30 7030 C 703.819 -0.910602 3.35564 0
M  V30 7031 H 703.142 -0.315446 3.98554 0
M  V30 7032 H 704.582 -1.3538 4.01806 0
M  V30 7033 C 703.041 -2.02539 2.6922 0
M  V30 7034 O 703.571 -3.11386 2.53775 0
M  V30 7035 N 701.777 -1.80227 2.27962 0
M  V30 7036 H 701.324 -0.917054 2.40724 0
M  V30 7037 H 701.282 -2.55001 1.83907 0
M  V30 7038 N 705.054 -1.51416 0.437162 0
M  V30 7039 C 706.002 -2.29328 -0.388765 0
M  V30 7040 C 706.996 -1.35171 -1.02104 0
M  V30 7041 O 708.202 -1.52513 -0.956024 0
M  V30 7042 H 704.577 -0.738048 -0.144183 0
M  V30 7043 H 706.548 -2.96995 0.289212 0
M  V30 7044 C 705.297 -3.14741 -1.47761 0
M  V30 7045 H 704.62 -3.8708 -1.00045 0
M  V30 7046 H 706.06 -3.72313 -2.02877 0
M  V30 7047 C 704.519 -2.30105 -2.46076 0
M  V30 7048 O 705.049 -1.96055 -3.50607 0
M  V30 7049 N 703.255 -1.93331 -2.1696 0
M  V30 7050 H 702.802 -2.2122 -1.31983 0
M  V30 7051 H 702.76 -1.36999 -2.82982 0
M  V30 7052 N 706.532 -0.168513 -1.56696 0
M  V30 7053 C 707.495 0.748928 -2.16619 0
M  V30 7054 C 708.495 1.16007 -1.11351 0
M  V30 7055 O 709.685 1.07748 -1.3688 0
M  V30 7056 C 706.817 2.01904 -2.74677 0
M  V30 7057 H 708.01 0.227317 -2.99037 0
M  V30 7058 H 705.563 0.0810372 -1.5609 0
M  V30 7059 H 706.298 2.58381 -1.95985 0
M  V30 7060 H 706.083 1.73323 -3.51712 0
M  V30 7061 H 707.573 2.67383 -3.20774 0
M  V30 7062 N 708.01 1.57248 0.105221 0
M  V30 7063 C 709.235 1.90143 0.828264 0
M  V30 7064 C 709.66 0.761811 1.71983 0
M  V30 7065 O 709.018 -0.287086 1.79013 0
M  V30 7066 C 709.066 3.21856 1.62608 0
M  V30 7067 O 708.17 3.08732 2.7342 0
M  V30 7068 H 707.511 0.623558 0.228192 0
M  V30 7069 H 710.041 2.0443 0.0834826 0
M  V30 7070 H 710.051 3.54916 2.01243 0
M  V30 7071 H 708.726 4.0439 0.971687 0
M  V30 7072 H 707.303 2.87167 2.37886 0
M  V30 7073 N 709.488 -0.375779 1.53054 0
M  V30 7074 C 710.899 -0.95309 1.6054 0
M  V30 7075 C 711.25 -1.90575 0.466446 0
M  V30 7076 O 710.375 -2.12507 -0.408609 0
M  V30 7077 C 710.97 -1.73537 2.90982 0
M  V30 7078 C 709.529 -2.26218 3.00836 0
M  V30 7079 C 708.676 -1.07157 2.55759 0
M  V30 7080 H 711.627 -0.154895 1.57942 0
M  V30 7081 H 711.648 -2.59574 2.78211 0
M  V30 7082 H 711.16 -1.04176 3.73857 0
M  V30 7083 H 709.261 -2.98852 2.22527 0
M  V30 7084 H 709.374 -2.54799 4.05727 0
M  V30 7085 H 707.738 -1.43553 2.10391 0
M  V30 7086 H 708.521 -0.393099 3.41042 0
M  V30 7087 N 710.966 -1.44241 -0.634997 0
M  V30 7088 C 712.214 -1.46531 -1.39187 0
M  V30 7089 C 712.535 -0.0976441 -1.94755 0
M  V30 7090 O 711.805 0.869528 -1.75545 0
M  V30 7091 H 710.385 -0.539544 -0.516625 0
M  V30 7092 H 713.047 -1.79989 -0.747655 0
M  V30 7093 H 712.143 -2.18848 -2.22513 0
M  V30 7094 N 712.444 0.87505 -1.31075 0
M  V30 7095 C 713.672 1.66058 -1.23419 0
M  V30 7096 C 714.087 1.87723 0.201347 0
M  V30 7097 O 713.444 1.43178 1.13165 0
M  V30 7098 C 713.495 3.03142 -1.96945 0
M  V30 7099 O 713.216 2.82448 -3.34895 0
M  V30 7100 C 714.717 3.97583 -1.96067 0
M  V30 7101 H 711.937 0.517868 -0.426677 0
M  V30 7102 H 714.481 1.09258 -1.72867 0
M  V30 7103 H 712.636 3.56645 -1.51271 0
M  V30 7104 H 713.05 3.69483 -3.72267 0
M  V30 7105 H 714.524 4.91104 -2.52034 0
M  V30 7106 H 715.001 4.2898 -0.941961 0
M  V30 7107 H 715.607 3.50015 -2.41597 0
M  V30 7108 N 713.922 1.13953 1.08869 0
M  V30 7109 C 715.152 0.926825 1.84644 0
M  V30 7110 C 715.56 -0.527941 1.81685 0
M  V30 7111 O 714.903 -1.37742 1.21543 0
M  V30 7112 C 714.965 1.34416 3.33426 0
M  V30 7113 C 714.629 2.81351 3.60126 0
M  V30 7114 C 715.626 3.79486 3.55368 0
M  V30 7115 C 713.311 3.1865 3.88288 0
M  V30 7116 C 715.305 5.1293 3.78393 0
M  V30 7117 C 712.992 4.5227 4.10968 0
M  V30 7118 C 713.99 5.4922 4.06013 0
M  V30 7119 O 713.678 6.80429 4.28102 0
M  V30 7120 H 713.41 0.33013 0.589907 0
M  V30 7121 H 715.964 1.51738 1.38436 0
M  V30 7122 H 714.194 0.696901 3.80368 0
M  V30 7123 H 715.883 1.10302 3.90626 0
M  V30 7124 H 716.649 3.52017 3.3363 0
M  V30 7125 H 712.528 2.43785 3.91267 0
M  V30 7126 H 716.072 5.88591 3.74442 0
M  V30 7127 H 711.969 4.79462 4.32188 0
M  V30 7128 H 712.737 6.86617 4.45533 0
M  V30 7129 N 715.4 -1.26948 0.933913 0
M  V30 7130 C 716.625 -1.98724 0.593589 0
M  V30 7131 C 717.05 -1.6915 -0.822801 0
M  V30 7132 O 716.408 -0.93533 -1.5531 0
M  V30 7133 C 716.456 -3.50834 0.833542 0
M  V30 7134 O 715.56 -4.12284 -0.0978788 0
M  V30 7135 H 714.901 -0.623683 0.227849 0
M  V30 7136 H 717.431 -1.61599 1.25486 0
M  V30 7137 H 717.441 -4.01018 0.75156 0
M  V30 7138 H 716.116 -3.71691 1.86597 0
M  V30 7139 H 714.693 -3.72884 0.0345443 0
M  V30 7140 N 716.879 -0.700114 -1.41195 0
M  V30 7141 C 718.125 -0.233351 -2.01453 0
M  V30 7142 C 718.458 1.16548 -1.55339 0
M  V30 7143 O 717.733 1.78756 -0.766575 0
M  V30 7144 C 718.016 -0.2961 -3.58881 0
M  V30 7145 C 717.869 -1.7322 -4.15108 0
M  V30 7146 C 719.188 0.341525 -4.38773 0
M  V30 7147 H 716.307 -0.0862667 -0.731934 0
M  V30 7148 H 718.949 -0.889693 -1.67882 0
M  V30 7149 H 717.099 0.262736 -3.87611 0
M  V30 7150 H 718.771 -2.34523 -3.97236 0
M  V30 7151 H 717.014 -2.2649 -3.69979 0
M  V30 7152 H 717.685 -1.7276 -5.24269 0
M  V30 7153 H 720.161 -0.134461 -4.15883 0
M  V30 7154 H 719.037 0.267098 -5.4825 0
M  V30 7155 H 719.298 1.42289 -4.18577 0
M  V30 7156 N 718.357 1.51182 -0.445186 0
M  V30 7157 C 719.29 2.24528 0.4077 0
M  V30 7158 C 720.268 1.26778 1.01814 0
M  V30 7159 O 721.452 1.55934 1.05909 0
M  V30 7160 C 718.579 3.00171 1.56892 0
M  V30 7161 C 717.625 4.12641 1.0784 0
M  V30 7162 S 718.458 5.35498 0.014049 0
M  V30 7163 C 719.614 6.14681 1.17975 0
M  V30 7164 H 719.847 2.96522 -0.214987 0
M  V30 7165 H 717.38 1.52681 -0.229781 0
M  V30 7166 H 719.338 3.44349 2.23459 0
M  V30 7167 H 717.999 2.27752 2.16304 0
M  V30 7168 H 717.192 4.64875 1.94698 0
M  V30 7169 H 716.794 3.70765 0.490852 0
M  V30 7170 H 719.086 6.44244 2.09658 0
M  V30 7171 H 720.029 7.04659 0.697222 0
M  V30 7172 H 720.437 5.46299 1.42187 0
M  V30 7173 N 719.835 0.176821 1.56605 0
M  V30 7174 C 720.765 -0.746841 2.21234 0
M  V30 7175 C 721.746 -1.23502 1.16967 0
M  V30 7176 O 722.931 -1.28718 1.45414 0
M  V30 7177 C 720.061 -1.97407 2.8574 0
M  V30 7178 C 719.015 -1.62153 3.96094 0
M  V30 7179 C 718.341 -2.92387 4.47676 0
M  V30 7180 C 719.641 -0.845353 5.15413 0
M  V30 7181 H 721.335 -0.208116 2.98676 0
M  V30 7182 H 718.881 -0.0986594 1.43662 0
M  V30 7183 H 720.834 -2.62531 3.2963 0
M  V30 7184 H 719.558 -2.53703 2.05676 0
M  V30 7185 H 718.217 -0.993964 3.52868 0
M  V30 7186 H 717.865 -3.46734 3.64396 0
M  V30 7187 H 717.565 -2.69551 5.22127 0
M  V30 7188 H 719.089 -3.5853 4.94255 0
M  V30 7189 H 720.503 -1.39929 5.55961 0
M  V30 7190 H 718.9 -0.715814 5.95815 0
M  V30 7191 H 719.97 0.157239 4.84645 0
M  V30 7192 N 721.313 -1.57302 -0.09688 0
M  V30 7193 C 722.541 -1.90202 -0.814295 0
M  V30 7194 C 722.956 -0.770344 -1.72369 0
M  V30 7195 O 722.313 0.257764 -1.8067 0
M  V30 7196 C 722.364 -3.22708 -1.62916 0
M  V30 7197 O 722.085 -4.31522 -0.756343 0
M  V30 7198 C 723.586 -3.69459 -2.44979 0
M  V30 7199 H 720.806 -0.629275 -0.232925 0
M  V30 7200 H 723.35 -2.04364 -0.0746482 0
M  V30 7201 H 721.505 -3.1015 -2.32133 0
M  V30 7202 H 721.919 -5.07604 -1.32054 0
M  V30 7203 H 723.393 -4.64875 -2.9765 0
M  V30 7204 H 723.87 -2.97211 -3.23361 0
M  V30 7205 H 724.476 -3.84879 -1.80964 0
M  V30 7206 N 722.791 0.367657 -1.53252 0
M  V30 7207 C 724.039 1.10832 -1.68999 0
M  V30 7208 C 724.36 1.89894 -0.443306 0
M  V30 7209 O 723.63 1.88235 0.54262 0
M  V30 7210 H 722.21 0.412153 -0.623008 0
M  V30 7211 H 724.872 0.414775 -1.90435 0
M  V30 7212 H 723.968 1.7993 -2.55013 0
M  V30 7213 N 724.269 1.44576 0.627338 0
M  V30 7214 C 725.499 1.50829 1.41189 0
M  V30 7215 C 725.907 0.133083 1.88731 0
M  V30 7216 O 725.25 -0.87199 1.61685 0
M  V30 7217 C 725.312 2.41449 2.66351 0
M  V30 7218 C 724.976 3.88549 2.40579 0
M  V30 7219 C 725.973 4.78981 2.0217 0
M  V30 7220 C 723.658 4.33287 2.54102 0
M  V30 7221 C 725.652 6.12153 1.77618 0
M  V30 7222 C 723.339 5.66505 2.29163 0
M  V30 7223 C 724.337 6.55756 1.9098 0
M  V30 7224 O 724.025 7.86506 1.66321 0
M  V30 7225 H 723.757 0.513797 0.439304 0
M  V30 7226 H 726.311 1.90256 0.774059 0
M  V30 7227 H 724.541 1.96955 3.32784 0
M  V30 7228 H 726.23 2.38608 3.28361 0
M  V30 7229 H 726.996 4.45689 1.91277 0
M  V30 7230 H 722.875 3.64074 2.82792 0
M  V30 7231 H 726.419 6.81776 1.47739 0
M  V30 7232 H 722.316 5.99358 2.39668 0
M  V30 7233 H 723.084 7.98341 1.80536 0
M  V30 7234 N 725.747 -0.868086 1.31537 0
M  V30 7235 C 726.972 -1.65926 1.24432 0
M  V30 7236 C 727.397 -1.87169 -0.186936 0
M  V30 7237 O 726.755 -1.4148 -1.13371 0
M  V30 7238 C 726.803 -3.00347 1.9956 0
M  V30 7239 O 725.907 -3.90221 1.33422 0
M  V30 7240 H 725.248 -0.506375 0.429512 0
M  V30 7241 H 727.778 -1.0822 1.73637 0
M  V30 7242 H 727.788 -3.50269 2.09226 0
M  V30 7243 H 726.463 -2.84205 3.03645 0
M  V30 7244 H 725.04 -3.48672 1.32219 0
M  V30 7245 N 727.225 -1.14528 -1.08264 0
M  V30 7246 C 728.173 -0.829201 -2.17318 0
M  V30 7247 C 729.167 0.193521 -1.68291 0
M  V30 7248 O 730.373 0.0494744 -1.79932 0
M  V30 7249 H 726.748 -0.250435 -0.709074 0
M  V30 7250 H 728.719 -1.75683 -2.41201 0
M  V30 7251 C 727.468 -0.324663 -3.46181 0
M  V30 7252 H 726.791 -1.10299 -3.84284 0
M  V30 7253 H 728.231 -0.142059 -4.23762 0
M  V30 7254 C 726.69 0.952033 -3.23169 0
M  V30 7255 O 727.22 2.02549 -3.46896 0
M  V30 7256 N 725.426 0.887854 -2.76705 0
M  V30 7257 H 724.973 0.0141402 -2.57596 0
M  V30 7258 H 724.931 1.74263 -2.61686 0
M  V30 7259 N 728.703 1.26451 -0.940633 0
M  V30 7260 C 729.933 1.97581 -0.603766 0
M  V30 7261 C 730.341 1.70246 0.825395 0
M  V30 7262 O 729.684 0.967001 1.56188 0
M  V30 7263 C 729.746 3.51256 -0.765463 0
M  V30 7264 C 729.41 4.0224 -2.16915 0
M  V30 7265 C 730.407 4.1402 -3.14457 0
M  V30 7266 C 728.092 4.36263 -2.48958 0
M  V30 7267 C 730.086 4.59117 -4.42143 0
M  V30 7268 C 727.773 4.81048 -3.76877 0
M  V30 7269 C 728.771 4.92436 -4.73282 0
M  V30 7270 O 728.459 5.36234 -5.98923 0
M  V30 7271 H 728.191 0.636948 -0.226436 0
M  V30 7272 H 730.745 1.61941 -1.2635 0
M  V30 7273 H 728.975 3.86669 -0.0485956 0
M  V30 7274 H 730.664 4.03597 -0.431738 0
M  V30 7275 H 731.43 3.87981 -2.91026 0
M  V30 7276 H 727.309 4.26634 -1.74656 0
M  V30 7277 H 730.853 4.6792 -5.17394 0
M  V30 7278 H 726.75 5.06531 -4.00121 0
M  V30 7279 H 727.518 5.54456 -6.02097 0
M  V30 7280 N 730.181 0.707592 1.40822 0
M  V30 7281 C 731.406 0.251626 2.05868 0
M  V30 7282 C 731.831 -1.09503 1.5294 0
M  V30 7283 O 731.189 -1.68806 0.661385 0
M  V30 7284 C 731.237 0.23287 3.59847 0
M  V30 7285 O 730.341 -0.788477 4.04792 0
M  V30 7286 H 729.682 0.119936 0.653078 0
M  V30 7287 H 732.212 0.96583 1.80369 0
M  V30 7288 H 732.222 0.0678204 4.07944 0
M  V30 7289 H 730.897 1.21565 3.97737 0
M  V30 7290 H 729.474 -0.591802 3.68174 0
M  V30 7291 N 731.66 -1.50943 0.453197 0
M  V30 7292 C 732.908 -2.01813 -0.107709 0
M  V30 7293 C 733.229 -1.33841 -1.41816 0
M  V30 7294 O 732.499 -0.477973 -1.8998 0
M  V30 7295 H 731.079 -0.745773 -0.0427948 0
M  V30 7296 H 733.741 -1.8545 0.599531 0
M  V30 7297 H 732.837 -3.10911 -0.27218 0
M  V30 7298 N 733.138 -0.185124 -1.56509 0
M  V30 7299 C 734.101 0.72591 -2.17401 0
M  V30 7300 C 735.101 1.14819 -1.12575 0
M  V30 7301 O 736.291 1.0629 -1.38015 0
M  V30 7302 C 733.423 1.98979 -2.76803 0
M  V30 7303 H 734.616 0.195588 -2.99262 0
M  V30 7304 H 732.169 0.0644772 -1.56167 0
M  V30 7305 H 732.904 2.56287 -1.98714 0
M  V30 7306 H 732.689 1.69583 -3.53531 0
M  V30 7307 H 734.179 2.63966 -3.23592 0
M  V30 7308 N 734.616 1.57351 0.0885366 0
M  V30 7309 C 735.841 1.91011 0.80805 0
M  V30 7310 C 736.266 0.780009 1.71165 0
M  V30 7311 O 735.624 -0.268083 1.79307 0
M  V30 7312 C 735.672 3.23562 1.59185 0
M  V30 7313 O 734.776 3.11615 2.7013 0
M  V30 7314 H 734.117 0.625943 0.221565 0
M  V30 7315 H 736.647 2.04507 0.0617954 0
M  V30 7316 H 736.657 3.5703 1.97468 0
M  V30 7317 H 735.332 4.05398 0.928741 0
M  V30 7318 H 733.909 2.89673 2.34827 0
M  V30 7319 N 736.094 -0.359525 1.53444 0
M  V30 7320 C 737.024 -1.44662 1.8329 0
M  V30 7321 C 738.005 -1.55617 0.68683 0
M  V30 7322 O 739.19 -1.70086 0.93725 0
M  V30 7323 C 736.32 -2.81923 2.02822 0
M  V30 7324 C 735.274 -2.85787 3.18606 0
M  V30 7325 C 734.6 -4.25781 3.23442 0
M  V30 7326 C 735.9 -2.52762 4.57065 0
M  V30 7327 H 737.594 -1.19934 2.74329 0
M  V30 7328 H 735.14 -0.575517 1.31999 0
M  V30 7329 H 737.093 -3.58005 2.22285 0
M  V30 7330 H 735.817 -3.08051 1.085 0
M  V30 7331 H 734.476 -2.12157 2.98973 0
M  V30 7332 H 734.124 -4.48994 2.26745 0
M  V30 7333 H 733.824 -4.29281 4.01238 0
M  V30 7334 H 735.348 -5.03727 3.45096 0
M  V30 7335 H 736.762 -3.18557 4.76649 0
M  V30 7336 H 735.159 -2.67569 5.37147 0
M  V30 7337 H 736.229 -1.47993 4.61764 0
M  V30 7338 N 737.572 -1.44907 -0.619662 0
M  V30 7339 C 738.519 -1.52654 -1.73105 0
M  V30 7340 C 739.489 -0.373334 -1.6185 0
M  V30 7341 O 740.674 -0.585143 -1.81606 0
M  V30 7342 C 737.814 -1.48769 -3.11387 0
M  V30 7343 C 736.927 -2.74551 -3.33535 0
M  V30 7344 C 736.062 -2.62421 -4.61854 0
M  V30 7345 C 735.101 -3.83312 -4.77219 0
M  V30 7346 N 734.238 -3.69789 -5.96826 0
M  V30 7347 H 739.078 -2.47605 -1.65819 0
M  V30 7348 H 736.615 -1.22875 -0.808719 0
M  V30 7349 H 738.573 -1.44507 -3.91374 0
M  V30 7350 H 737.203 -0.573783 -3.1766 0
M  V30 7351 H 736.255 -2.88953 -2.47408 0
M  V30 7352 H 737.567 -3.64253 -3.40765 0
M  V30 7353 H 736.721 -2.56056 -5.50019 0
M  V30 7354 H 735.46 -1.70298 -4.57001 0
M  V30 7355 H 734.465 -3.90049 -3.87481 0
M  V30 7356 H 735.69 -4.76486 -4.83878 0
M  V30 7357 H 733.636 -2.80426 -5.93041 0
M  V30 7358 H 733.553 -4.53116 -6.05163 0
M  V30 7359 H 734.821 -3.67335 -6.87521 0
M  V30 7360 N 739.05 0.861098 -1.31996 0
M  V30 7361 C 740.013 1.95068 -1.20338 0
M  V30 7362 C 741.013 1.60289 -0.128114 0
M  V30 7363 O 742.203 1.70048 -0.378044 0
M  V30 7364 C 739.335 3.30153 -0.849205 0
M  V30 7365 H 740.528 2.06833 -2.17164 0
M  V30 7366 H 738.081 1.05049 -1.15734 0
M  V30 7367 H 738.816 3.24087 0.117508 0
M  V30 7368 H 738.601 3.56771 -1.62655 0
M  V30 7369 H 740.091 4.10025 -0.791782 0
M  V30 7370 N 740.528 1.15101 1.07655 0
M  V30 7371 C 741.753 0.948177 1.84457 0
M  V30 7372 C 742.178 -0.498432 1.81376 0
M  V30 7373 O 741.536 -1.35509 1.20445 0
M  V30 7374 C 741.584 1.46318 3.29581 0
M  V30 7375 O 740.688 0.660342 4.07079 0
M  V30 7376 H 740.029 0.338428 0.571281 0
M  V30 7377 H 742.559 1.5301 1.35828 0
M  V30 7378 H 742.569 1.47468 3.80417 0
M  V30 7379 H 741.244 2.51635 3.31138 0
M  V30 7380 H 739.821 0.718216 3.65918 0
M  V30 7381 N 742.006 -1.2595 0.947325 0
M  V30 7382 C 743.234 -1.97544 0.615127 0
M  V30 7383 C 743.649 -1.70484 -0.811221 0
M  V30 7384 O 743.006 -0.97662 -1.5417 0
M  V30 7385 C 743.057 -3.51236 0.855328 0
M  V30 7386 O 742.778 -3.77359 2.22558 0
M  V30 7387 C 744.279 -4.40066 0.534515 0
M  V30 7388 H 741.499 -0.629888 0.231263 0
M  V30 7389 H 744.043 -1.60308 1.26971 0
M  V30 7390 H 742.198 -3.8661 0.247266 0
M  V30 7391 H 742.612 -4.71857 2.29022 0
M  V30 7392 H 744.086 -5.46838 0.753168 0
M  V30 7393 H 744.563 -4.35982 -0.530701 0
M  V30 7394 H 745.169 -4.10245 1.12158 0
M  V30 7395 N 743.484 -0.715051 -1.40445 0
M  V30 7396 C 744.731 -0.254328 -2.00897 0
M  V30 7397 C 745.059 1.15228 -1.56693 0
M  V30 7398 O 744.314 1.7958 -0.777786 0
M  V30 7399 C 744.613 -0.281791 -3.56287 0
M  V30 7400 C 744.279 -1.63862 -4.20071 0
M  V30 7401 C 742.941 -2.01003 -4.37208 0
M  V30 7402 C 745.293 -2.53039 -4.55654 0
M  V30 7403 C 742.621 -3.26869 -4.8721 0
M  V30 7404 C 744.973 -3.78256 -5.07055 0
M  V30 7405 C 743.637 -4.15515 -5.22401 0
M  V30 7406 H 742.907 -0.0930652 -0.735133 0
M  V30 7407 H 745.554 -0.917977 -1.68064 0
M  V30 7408 H 743.859 0.465428 -3.89026 0
M  V30 7409 H 745.556 0.0925158 -4.00893 0
M  V30 7410 H 742.146 -1.33979 -4.07121 0
M  V30 7411 H 746.33 -2.2562 -4.42051 0
M  V30 7412 H 741.586 -3.55706 -4.97276 0
M  V30 7413 H 745.76 -4.47528 -5.33565 0
M  V30 7414 H 743.387 -5.13114 -5.60909 0
M  V30 7415 O 745.001 1.49816 -0.603118 0
M  V30 7416 H 745.692 1.93366 -0.113681 0
M  V30 END ATOM
M  V30 BEGIN BOND
M  V30 END BOND
M  V30 END CTAB
M  END
$$$$
