drugbank_target|Q01782 Pteridine reductase 1 (DB02338; DB02532; DB03461; DB04400)
 OpenBabel12092119543D

  0  0  0     0  0            999 V3000
M  V30 BEGIN CTAB
M  V30 COUNTS 4259 4304 0 0 0
M  V30 BEGIN ATOM
M  V30 1 H -0.908 1.98254 -0.117106 0
M  V30 2 N 0 1.576 0 0
M  V30 3 C 0.933 2.03868 1.02534 0
M  V30 4 C 1.911 0.928543 1.3348 0
M  V30 5 O 3.095 1.19667 1.45644 0
M  V30 6 C 0.222 2.43627 2.35294 0
M  V30 7 C -0.732 3.65373 2.2001 0
M  V30 8 S 0.101 5.13292 1.52614 0
M  V30 9 C 1.257 5.56322 2.86805 0
M  V30 10 H 1.49 2.90518 0.631377 0
M  V30 11 H -0.977 1.52953 0.210867 0
M  V30 12 H 0.981 2.67203 3.11629 0
M  V30 13 H -0.358 1.57376 2.7183 0
M  V30 14 H -1.165 3.90944 3.18086 0
M  V30 15 H -1.563 3.418 1.51819 0
M  V30 16 H 0.729 5.58782 3.83104 0
M  V30 17 H 1.672 6.56266 2.65933 0
M  V30 18 H 2.08 4.83886 2.90714 0
M  V30 19 N 1.4781 -0.272755 1.55222 0
M  V30 20 C 2.7061 -1.02255 1.79865 0
M  V30 21 C 3.1211 -1.79924 0.572088 0
M  V30 22 O 2.4781 -1.76638 -0.458842 0
M  V30 23 C 2.5291 -1.98094 3.02392 0
M  V30 24 O 2.2501 -1.23572 4.20311 0
M  V30 25 C 3.7511 -2.84884 3.39641 0
M  V30 26 H 0.9711 -0.302057 0.599168 0
M  V30 27 H 3.5151 -0.303465 2.02236 0
M  V30 28 H 1.6701 -2.65465 2.82147 0
M  V30 29 H 2.0841 -1.88172 4.89583 0
M  V30 30 H 3.5581 -3.47927 4.28545 0
M  V30 31 H 4.0351 -3.54665 2.59055 0
M  V30 32 H 4.6411 -2.23003 3.62146 0
M  V30 33 N 2.9562 -1.48159 -0.537278 0
M  V30 34 C 3.9192 -1.61665 -1.62472 0
M  V30 35 C 4.9192 -0.490395 -1.5314 0
M  V30 36 O 6.1092 -0.755998 -1.5694 0
M  V30 37 C 3.2412 -1.57997 -3.02076 0
M  V30 38 H 4.4342 -2.58621 -1.51839 0
M  V30 39 H 1.9872 -1.36647 -0.758771 0
M  V30 40 H 2.7222 -0.624913 -3.18222 0
M  V30 41 H 2.5072 -2.39755 -3.10258 0
M  V30 42 H 3.9972 -1.70627 -3.81151 0
M  V30 43 N 4.4343 0.785586 -1.36625 0
M  V30 44 C 5.8453 1.36101 -1.27803 0
M  V30 45 C 6.1963 1.96035 0.0804875 0
M  V30 46 O 5.3213 1.92834 0.982042 0
M  V30 47 C 5.9163 2.47442 -2.31426 0
M  V30 48 C 4.4753 3.00789 -2.26281 0
M  V30 49 C 3.6223 1.73896 -2.15999 0
M  V30 50 H 6.5733 0.586928 -1.47448 0
M  V30 51 H 6.5943 3.2656 -1.95291 0
M  V30 52 H 6.1063 2.03791 -3.30289 0
M  V30 53 H 4.2073 3.48851 -1.30896 0
M  V30 54 H 4.3203 3.57343 -3.19128 0
M  V30 55 H 2.6843 1.9628 -1.62316 0
M  V30 56 H 3.4673 1.32368 -3.16755 0
M  V30 57 N 5.9124 1.20967 1.01018 0
M  V30 58 C 7.1404 1.04956 1.78303 0
M  V30 59 C 7.5554 -0.400915 1.84494 0
M  V30 60 O 6.9124 -1.27826 1.30257 0
M  V30 61 C 6.9634 1.63403 3.22462 0
M  V30 62 O 6.6844 3.02775 3.16637 0
M  V30 63 C 8.1854 1.52432 4.16268 0
M  V30 64 H 5.4054 0.368858 0.560522 0
M  V30 65 H 7.9494 1.60193 1.27116 0
M  V30 66 H 6.1044 1.1227 3.70775 0
M  V30 67 H 6.5184 3.30626 4.07169 0
M  V30 68 H 7.9924 1.98078 5.15237 0
M  V30 69 H 8.4694 0.477875 4.36592 0
M  V30 70 H 9.0754 2.02787 3.73841 0
M  V30 71 N 7.3905 -1.2043 1.01659 0
M  V30 72 C 8.6365 -1.90079 0.706963 0
M  V30 73 C 8.9695 -1.78648 -0.761474 0
M  V30 74 O 8.2445 -1.17069 -1.55323 0
M  V30 75 C 8.5275 -3.41469 1.14327 0
M  V30 76 C 8.3805 -3.61833 2.67201 0
M  V30 77 C 9.6995 -4.34261 0.714529 0
M  V30 78 H 6.8185 -0.690254 0.2583 0
M  V30 79 H 9.4605 -1.41826 1.26433 0
M  V30 80 H 7.6105 -3.82696 0.669056 0
M  V30 81 H 9.2825 -3.2986 3.22475 0
M  V30 82 H 7.5255 -3.05304 3.08175 0
M  V30 83 H 8.1965 -4.67955 2.92783 0
M  V30 84 H 10.6725 -4.00682 1.12221 0
M  V30 85 H 9.5485 -5.38806 1.04784 0
M  V30 86 H 9.8095 -4.40431 -0.383799 0
M  V30 87 N 8.8686 -0.792821 -1.36206 0
M  V30 88 C 10.2796 -0.429513 -1.81692 0
M  V30 89 C 10.6306 1.04695 -1.65932 0
M  V30 90 O 9.7556 1.81256 -1.18218 0
M  V30 91 C 10.3506 -0.772831 -3.29868 0
M  V30 92 C 8.9096 -0.462307 -3.7355 0
M  V30 93 C 8.0566 -1.00569 -2.5842 0
M  V30 94 H 11.0076 -0.985672 -1.24379 0
M  V30 95 H 11.0286 -0.0651928 -3.80444 0
M  V30 96 H 10.5406 -1.84747 -3.41307 0
M  V30 97 H 8.6416 0.604158 -3.67669 0
M  V30 98 H 8.7546 -0.985299 -4.68859 0
M  V30 99 H 7.1186 -0.428734 -2.51066 0
M  V30 100 H 7.9016 -2.08616 -2.72643 0
M  V30 101 N 10.3467 1.47872 -0.545128 0
M  V30 102 C 11.5927 2.02793 -0.0166104 0
M  V30 103 C 11.9257 1.41987 1.32489 0
M  V30 104 O 11.2007 0.571045 1.85928 0
M  V30 105 C 11.4837 3.59989 0.0893294 0
M  V30 106 C 11.3367 4.3125 -1.27841 0
M  V30 107 C 12.6557 4.32606 0.808724 0
M  V30 108 H 9.7747 0.736962 -0.00751035 0
M  V30 109 H 12.4167 1.76433 -0.705085 0
M  V30 110 H 10.5667 3.82579 0.675681 0
M  V30 111 H 12.2387 4.20035 -1.90704 0
M  V30 112 H 10.4817 3.92076 -1.85632 0
M  V30 113 H 11.1527 5.39736 -1.15713 0
M  V30 114 H 13.6287 4.14936 0.310992 0
M  V30 115 H 12.5047 5.42251 0.851782 0
M  V30 116 H 12.7657 4.00963 1.86229 0
M  V30 117 N 11.8248 0.280983 1.55075 0
M  V30 118 C 12.7878 -0.590896 2.21452 0
M  V30 119 C 13.7878 -1.07682 1.19421 0
M  V30 120 O 14.9778 -0.97605 1.44288 0
M  V30 121 C 12.1098 -1.81587 2.88511 0
M  V30 122 H 13.3028 -0.0112554 2.99898 0
M  V30 123 H 10.8558 0.0316438 1.56268 0
M  V30 124 H 11.5908 -2.43587 2.14093 0
M  V30 125 H 11.3758 -1.4753 3.63287 0
M  V30 126 H 12.8658 -2.43575 3.39206 0
M  V30 127 N 13.3029 -1.57598 0.00835791 0
M  V30 128 C 14.2329 -2.1198 -0.979113 0
M  V30 129 C 15.2139 -1.03091 -1.35301 0
M  V30 130 O 16.3989 -1.30818 -1.43528 0
M  V30 131 C 13.5289 -2.62995 -2.26828 0
M  V30 132 C 12.4829 -3.76485 -2.03576 0
M  V30 133 C 11.8089 -4.13846 -3.38579 0
M  V30 134 C 13.1089 -5.0342 -1.39161 0
M  V30 135 H 14.8029 -2.94738 -0.526281 0
M  V30 136 H 12.3489 -1.41783 -0.251704 0
M  V30 137 H 14.3019 -2.99669 -2.96271 0
M  V30 138 H 13.0259 -1.7737 -2.7424 0
M  V30 139 H 11.6849 -3.40217 -1.36557 0
M  V30 140 H 11.3329 -3.25232 -3.83709 0
M  V30 141 H 11.0329 -4.90312 -3.23834 0
M  V30 142 H 12.5569 -4.53086 -4.09323 0
M  V30 143 H 13.9709 -5.37812 -1.98573 0
M  V30 144 H 12.3679 -5.84746 -1.34878 0
M  V30 145 H 13.4379 -4.83548 -0.361868 0
M  V30 146 N 14.781 0.264519 -1.55364 0
M  V30 147 C 16.027 0.99646 -1.76631 0
M  V30 148 C 16.36 1.85632 -0.570478 0
M  V30 149 O 15.635 1.89647 0.43175 0
M  V30 150 C 15.918 1.87187 -3.07625 0
M  V30 151 C 15.771 1.04138 -4.37579 0
M  V30 152 C 17.09 2.85749 -3.34717 0
M  V30 153 H 14.209 0.360841 -0.642622 0
M  V30 154 H 16.851 0.268218 -1.88097 0
M  V30 155 H 15.001 2.49279 -2.9798 0
M  V30 156 H 16.673 0.440517 -4.59192 0
M  V30 157 H 14.916 0.345115 -4.32425 0
M  V30 158 H 15.587 1.68729 -5.2558 0
M  V30 159 H 18.063 2.33793 -3.4421 0
M  V30 160 H 16.939 3.44136 -4.27623 0
M  V30 161 H 17.2 3.61311 -2.54768 0
M  V30 162 N 16.2591 1.48442 0.529413 0
M  V30 163 C 17.4871 1.60151 1.30994 0
M  V30 164 C 17.9021 0.261985 1.86973 0
M  V30 165 O 17.2591 -0.748805 1.66431 0
M  V30 166 C 17.3101 2.64854 2.46038 0
M  V30 167 O 17.0311 3.93608 1.92365 0
M  V30 168 C 18.5321 2.87007 3.37849 0
M  V30 169 H 15.7521 0.539971 0.398338 0
M  V30 170 H 18.2961 1.94273 0.638597 0
M  V30 171 H 16.4511 2.33589 3.09055 0
M  V30 172 H 16.8651 4.51055 2.67675 0
M  V30 173 H 18.3391 3.64068 4.14919 0
M  V30 174 H 18.8161 1.95852 3.93114 0
M  V30 175 H 19.4221 3.19579 2.80623 0
M  V30 176 N 17.7372 -0.778329 1.37039 0
M  V30 177 C 18.9852 -1.53361 1.31623 0
M  V30 178 C 19.3062 -1.94739 -0.100831 0
M  V30 179 O 18.5762 -1.65797 -1.04347 0
M  V30 180 H 17.1562 -0.568794 0.484234 0
M  V30 181 H 19.8182 -0.926742 1.71457 0
M  V30 182 H 18.9142 -2.43606 1.95096 0
M  V30 183 N 19.2153 -1.21501 -1.00376 0
M  V30 184 C 20.1783 -0.976927 -2.07337 0
M  V30 185 C 21.1783 0.0525322 -1.60714 0
M  V30 186 O 22.3683 -0.184869 -1.73216 0
M  V30 187 C 19.5003 -0.473423 -3.37597 0
M  V30 188 H 20.6933 -1.92587 -2.29892 0
M  V30 189 H 18.2463 -1.03217 -1.17371 0
M  V30 190 H 18.9813 0.480379 -3.20722 0
M  V30 191 H 18.7663 -1.216 -3.72768 0
M  V30 192 H 20.2563 -0.32675 -4.1632 0
M  V30 193 N 20.6934 1.19889 -1.02296 0
M  V30 194 C 21.6564 2.21116 -0.603351 0
M  V30 195 C 22.6564 1.5738 0.329884 0
M  V30 196 O 23.8464 1.73802 0.117702 0
M  V30 197 C 20.9784 3.40696 0.117992 0
M  V30 198 H 22.1714 2.59754 -1.49893 0
M  V30 199 H 19.7244 1.33463 -0.813468 0
M  V30 200 H 20.4594 3.07569 1.0282 0
M  V30 201 H 20.2444 3.88188 -0.552511 0
M  V30 202 H 21.7344 4.15692 0.398696 0
M  V30 203 N 22.1715 0.800033 1.35784 0
M  V30 204 C 23.1185 0.203848 2.29898 0
M  V30 205 C 24.0885 -0.658375 1.52495 0
M  V30 206 O 25.2735 -0.604832 1.8096 0
M  V30 207 C 22.4135 -0.64688 3.38983 0
M  V30 208 C 21.5265 0.235054 4.3136 0
M  V30 209 C 20.6615 -0.623054 5.27533 0
M  V30 210 C 19.7005 0.259682 6.11549 0
M  V30 211 N 18.8375 -0.558019 6.99879 0
M  V30 212 H 23.6775 1.01186 2.80295 0
M  V30 213 H 21.2145 0.51053 1.37957 0
M  V30 214 H 23.1725 -1.15521 4.00887 0
M  V30 215 H 21.8025 -1.42021 2.89879 0
M  V30 216 H 20.8545 0.861438 3.70518 0
M  V30 217 H 22.1665 0.914768 4.9034 0
M  V30 218 H 21.3205 -1.19678 5.94779 0
M  V30 219 H 20.0595 -1.33636 4.69034 0
M  V30 220 H 19.0645 0.845726 5.43256 0
M  V30 221 H 20.2895 0.970748 6.72126 0
M  V30 222 H 18.2355 -1.25542 6.43875 0
M  V30 223 H 18.1525 0.0637872 7.55973 0
M  V30 224 H 19.4205 -1.11523 7.71481 0
M  V30 225 N 23.6496 -1.47581 0.552962 0
M  V30 226 C 25.0656 -1.5818 0.212424 0
M  V30 227 C 25.2656 -1.55213 -1.28496 0
M  V30 228 O 24.3216 -1.45329 -2.06484 0
M  V30 229 C 25.6346 -2.88865 0.835318 0
M  V30 230 C 27.1826 -3.0244 0.806156 0
M  V30 231 C 27.6576 -4.35819 1.40804 0
M  V30 232 N 29.1486 -4.42444 1.37103 0
M  V30 233 C 29.8836 -5.44202 1.80641 0
M  V30 234 N 29.3796 -6.52795 2.32015 0
M  V30 235 N 31.1726 -5.35222 1.71738 0
M  V30 236 H 23.3236 -1.47753 1.52587 0
M  V30 237 H 25.5866 -0.702941 0.636064 0
M  V30 238 H 25.2926 -2.9676 1.88749 0
M  V30 239 H 25.1666 -3.7579 0.325848 0
M  V30 240 H 27.5536 -2.94144 -0.237317 0
M  V30 241 H 27.6346 -2.17068 1.35334 0
M  V30 242 H 27.2786 -4.44871 2.45056 0
M  V30 243 H 27.2086 -5.19916 0.836338 0
M  V30 244 H 29.6996 -3.6456 0.995202 0
M  V30 245 H 30.0126 -7.26609 2.63171 0
M  V30 246 H 28.3576 -6.53696 2.36023 0
M  V30 247 H 31.5486 -4.49284 1.31382 0
M  V30 248 H 31.7216 -6.14389 2.05987 0
M  V30 249 N 25.1277 -0.289203 -1.54924 0
M  V30 250 C 26.0577 0.58549 -2.2604 0
M  V30 251 C 27.0387 1.14753 -1.25562 0
M  V30 252 O 28.2237 1.17906 -1.54311 0
M  V30 253 C 25.3537 1.76305 -2.99222 0
M  V30 254 C 24.3077 1.33191 -4.06748 0
M  V30 255 C 23.6337 2.5937 -4.6758 0
M  V30 256 C 24.9337 0.471775 -5.20165 0
M  V30 257 H 26.6277 -0.00763532 -2.99399 0
M  V30 258 H 24.1737 -0.00511229 -1.43999 0
M  V30 259 H 26.1267 2.38097 -3.47689 0
M  V30 260 H 24.8507 2.38223 -2.23422 0
M  V30 261 H 23.5097 0.737121 -3.59113 0
M  V30 262 H 23.1577 3.19576 -3.88433 0
M  V30 263 H 22.8577 2.31228 -5.40192 0
M  V30 264 H 24.3817 3.21985 -5.18804 0
M  V30 265 H 25.7957 0.995056 -5.64599 0
M  V30 266 H 24.1927 0.284639 -5.99425 0
M  V30 267 H 25.2627 -0.506041 -4.82252 0
M  V30 268 N 26.6058 1.57591 -0.0167156 0
M  V30 269 C 27.8538 1.90906 0.663285 0
M  V30 270 C 28.1748 0.892509 1.73376 0
M  V30 271 O 27.4448 -0.0677623 1.95783 0
M  V30 272 H 26.0248 0.704637 0.247983 0
M  V30 273 H 28.6868 1.94803 -0.0615909 0
M  V30 274 H 27.7828 2.9116 1.12393 0
M  V30 275 N 28.0839 -0.256276 1.55502 0
M  V30 276 C 29.4999 -0.604325 1.47716 0
M  V30 277 C 29.6999 -1.88763 0.705039 0
M  V30 278 O 28.7559 -2.51445 0.230613 0
M  V30 279 C 30.0689 -0.715756 2.92057 0
M  V30 280 C 31.6169 -0.808706 3.02372 0
M  V30 281 C 32.0919 -0.951777 4.48001 0
M  V30 282 N 33.5829 -1.01688 4.519 0
M  V30 283 C 34.3179 -1.14668 5.61817 0
M  V30 284 N 33.8139 -1.24261 6.81565 0
M  V30 285 N 35.6069 -1.1791 5.49594 0
M  V30 286 H 27.7579 0.586291 2.04148 0
M  V30 287 H 30.0209 0.201015 0.926443 0
M  V30 288 H 29.7269 0.157027 3.51349 0
M  V30 289 H 29.6009 -1.59071 3.42018 0
M  V30 290 H 31.9879 -1.67195 2.43166 0
M  V30 291 H 32.0689 0.0912063 2.55637 0
M  V30 292 H 31.7129 -0.0931291 5.07815 0
M  V30 293 H 31.6429 -1.86659 4.92408 0
M  V30 294 H 34.1339 -0.954468 3.65648 0
M  V30 295 H 34.4469 -1.34046 7.61086 0
M  V30 296 H 32.7919 -1.21236 6.84344 0
M  V30 297 H 35.9829 -1.10057 4.54978 0
M  V30 298 H 36.1559 -1.27681 6.35296 0
M  V30 299 N 29.562 -1.4872 -0.521534 0
M  V30 300 C 30.787 -1.61101 -1.30618 0
M  V30 301 C 31.212 -0.274611 -1.86085 0
M  V30 302 O 30.57 0.754937 -1.64834 0
M  V30 303 C 30.618 -2.66709 -2.4269 0
M  V30 304 O 29.722 -2.24456 -3.45967 0
M  V30 305 H 29.063 -0.539921 -0.386499 0
M  V30 306 H 31.593 -1.94767 -0.626645 0
M  V30 307 H 31.603 -2.88245 -2.88754 0
M  V30 308 H 30.278 -3.63727 -2.01682 0
M  V30 309 H 28.855 -2.13168 -3.05964 0
M  V30 310 N 31.0401 0.771051 -1.3745 0
M  V30 311 C 32.2891 1.52491 -1.3202 0
M  V30 312 C 32.6021 1.9538 0.0927347 0
M  V30 313 O 33.8081 2.70159 0.269503 0
M  V30 314 C 32.2641 2.75366 -2.31736 0
M  V30 315 C 31.8721 2.39573 -3.78562 0
M  V30 316 C 33.6161 3.53307 -2.35318 0
M  V30 317 C 31.5231 3.58954 -4.70007 0
M  V30 318 H 30.4531 0.572506 -0.490666 0
M  V30 319 H 33.1041 0.844474 -1.62914 0
M  V30 320 H 31.4861 3.45303 -1.93861 0
M  V30 321 H 32.6601 1.77415 -4.25277 0
M  V30 322 H 30.9751 1.74805 -3.77932 0
M  V30 323 H 33.5721 4.42039 -3.00842 0
M  V30 324 H 33.9151 3.93217 -1.36698 0
M  V30 325 H 34.4481 2.90367 -2.71904 0
M  V30 326 H 31.1871 3.24125 -5.69757 0
M  V30 327 H 30.7071 4.20214 -4.27996 0
M  V30 328 H 32.3861 4.25758 -4.87175 0
M  V30 329 N 32.5182 1.22032 0.997298 0
M  V30 330 C 33.4812 0.987909 2.06816 0
M  V30 331 C 34.4812 -0.0440084 1.6074 0
M  V30 332 O 35.6712 0.194053 1.73116 0
M  V30 333 C 32.8032 0.49132 3.37341 0
M  V30 334 H 33.9962 1.93803 2.28868 0
M  V30 335 H 31.5492 1.03838 1.16822 0
M  V30 336 H 32.2842 -0.463364 3.20973 0
M  V30 337 H 32.0692 1.23575 3.72118 0
M  V30 338 H 33.5592 0.348824 4.16141 0
M  V30 339 N 33.9963 -1.19345 1.0293 0
M  V30 340 C 34.9063 -2.26245 0.620515 0
M  V30 341 C 35.9223 -1.70486 -0.347928 0
M  V30 342 O 37.0983 -2.00347 -0.205704 0
M  V30 343 C 34.1633 -3.46693 -0.0218957 0
M  V30 344 C 33.2243 -4.17632 0.994102 0
M  V30 345 C 32.4573 -5.32329 0.382253 0
M  V30 346 O 32.6803 -5.64552 -0.814676 0
M  V30 347 O 31.6143 -5.91664 1.10531 0
M  V30 348 H 35.4403 -2.63453 1.51083 0
M  V30 349 H 33.0253 -1.26207 0.799513 0
M  V30 350 H 34.9073 -4.19683 -0.380072 0
M  V30 351 H 33.5823 -3.11333 -0.886209 0
M  V30 352 H 32.4893 -3.4676 1.40387 0
M  V30 353 H 33.8223 -4.56964 1.8288 0
M  V30 354 N 35.4744 -0.807222 -1.35358 0
M  V30 355 C 36.7224 -0.387122 -1.98358 0
M  V30 356 C 37.0434 1.04942 -1.64354 0
M  V30 357 O 36.3134 1.72615 -0.926339 0
M  V30 358 H 34.8934 -0.140154 -0.733734 0
M  V30 359 H 37.5554 -1.0332 -1.6526 0
M  V30 360 H 36.6514 -0.493352 -3.08176 0
M  V30 361 N 36.9525 1.47285 -0.560781 0
M  V30 362 C 37.8825 2.32857 0.173105 0
M  V30 363 C 38.8635 1.44009 0.905281 0
M  V30 364 O 40.0485 1.7286 0.885046 0
M  V30 365 C 37.1785 3.25861 1.20133 0
M  V30 366 C 36.1325 4.23978 0.585388 0
M  V30 367 C 35.4585 5.06332 1.7185 0
M  V30 368 C 36.7585 5.20242 -0.463178 0
M  V30 369 H 38.4525 2.94466 -0.541307 0
M  V30 370 H 35.9985 1.41601 -0.261764 0
M  V30 371 H 37.9515 3.84569 1.72293 0
M  V30 372 H 36.6755 2.62315 1.94573 0
M  V30 373 H 35.3345 3.66501 0.085054 0
M  V30 374 H 34.9825 4.39186 2.45203 0
M  V30 375 H 34.6825 5.72762 1.31213 0
M  V30 376 H 36.2065 5.67899 2.24329 0
M  V30 377 H 37.6205 5.73293 -0.027502 0
M  V30 378 H 36.0175 5.94896 -0.788627 0
M  V30 379 H 37.0875 4.65504 -1.35773 0
M  V30 380 N 38.4306 0.297415 1.54768 0
M  V30 381 C 39.3806 -0.595275 2.20092 0
M  V30 382 C 40.3646 -1.10163 1.17273 0
M  V30 383 O 41.5566 -1.043 1.43006 0
M  V30 384 C 38.6856 -1.7684 2.94249 0
M  V30 385 C 37.7716 -1.27818 4.0438 0
M  V30 386 N 38.1626 -0.505695 5.03266 0
M  V30 387 C 36.4606 -1.55923 4.17857 0
M  V30 388 C 37.1616 -0.245094 5.81183 0
M  V30 389 N 36.1376 -0.823881 5.3732 0
M  V30 390 H 39.9396 0.00250837 2.939 0
M  V30 391 H 37.4536 0.102007 1.62079 0
M  V30 392 H 39.4506 -2.41944 3.39513 0
M  V30 393 H 38.1106 -2.36992 2.21957 0
M  V30 394 H 39.1216 -0.150928 5.1768 0
M  V30 395 H 35.7986 -2.16849 3.56767 0
M  V30 396 H 37.1886 0.375084 6.70852 0
M  V30 397 N 39.9087 -1.5758 0.0250728 0
M  V30 398 C 40.8717 -2.08896 -0.943139 0
M  V30 399 C 41.8717 -1.00321 -1.25668 0
M  V30 400 O 43.0617 -1.26495 -1.19769 0
M  V30 401 C 40.1937 -2.55143 -2.26086 0
M  V30 402 H 41.3867 -2.95723 -0.498775 0
M  V30 403 H 38.9397 -1.54703 -0.222888 0
M  V30 404 H 39.6747 -1.71633 -2.75159 0
M  V30 405 H 39.4597 -3.34461 -2.04641 0
M  V30 406 H 40.9497 -2.95083 -2.95492 0
M  V30 407 N 41.3868 0.248026 -1.55636 0
M  V30 408 C 42.2968 1.32859 -1.93354 0
M  V30 409 C 43.3128 1.52719 -0.833838 0
M  V30 410 O 44.4888 1.66363 -1.13513 0
M  V30 411 C 41.5538 2.66337 -2.21958 0
M  V30 412 C 40.6148 2.55008 -3.45354 0
M  V30 413 C 39.8478 3.82121 -3.72584 0
M  V30 414 O 40.0708 4.83951 -3.01907 0
M  V30 415 O 39.0048 3.80822 -4.6611 0
M  V30 416 H 42.8308 1.03862 -2.85388 0
M  V30 417 H 40.4158 0.448686 -1.42503 0
M  V30 418 H 42.2978 3.45216 -2.4167 0
M  V30 419 H 40.9728 2.95068 -1.33103 0
M  V30 420 H 39.8798 1.7442 -3.30951 0
M  V30 421 H 41.2128 2.31222 -4.34508 0
M  V30 422 N 42.8649 1.48995 0.513639 0
M  V30 423 C 44.1129 1.57531 1.26604 0
M  V30 424 C 44.4339 0.258236 1.93283 0
M  V30 425 O 43.7039 -0.721502 1.8213 0
M  V30 426 H 42.2839 0.580387 0.470276 0
M  V30 427 H 44.9459 1.85552 0.596373 0
M  V30 428 H 44.0419 2.36486 2.03669 0
M  V30 429 N 44.343 -0.763751 1.37857 0
M  V30 430 C 45.573 -1.55067 1.3652 0
M  V30 431 C 45.981 -1.89135 -0.0494227 0
M  V30 432 O 45.324 -1.52529 -1.02375 0
M  V30 433 C 45.386 -2.8838 2.14656 0
M  V30 434 C 45.05 -2.76905 3.63555 0
M  V30 435 C 46.047 -2.4739 4.57268 0
M  V30 436 C 43.732 -2.94676 4.06781 0
M  V30 437 C 45.726 -2.35786 5.92186 0
M  V30 438 C 43.413 -2.82692 5.41782 0
M  V30 439 C 44.411 -2.53289 6.34298 0
M  V30 440 O 44.099 -2.41345 7.66817 0
M  V30 441 H 43.831 -0.486776 0.469069 0
M  V30 442 H 46.385 -0.953812 1.81911 0
M  V30 443 H 44.615 -3.50217 1.63967 0
M  V30 444 H 46.304 -3.49828 2.05852 0
M  V30 445 H 47.07 -2.33339 4.2518 0
M  V30 446 H 42.949 -3.16563 3.35126 0
M  V30 447 H 46.493 -2.12757 6.64365 0
M  V30 448 H 42.39 -2.96314 5.7347 0
M  V30 449 H 43.158 -2.56634 7.77226 0
M  V30 450 N 45.8211 -1.22559 -0.990812 0
M  V30 451 C 46.7841 -0.998863 -2.0629 0
M  V30 452 C 47.7841 0.0354834 -1.60761 0
M  V30 453 O 48.9741 -0.203231 -1.7301 0
M  V30 454 C 46.1061 -0.509203 -3.37076 0
M  V30 455 H 47.2991 -1.95014 -2.27837 0
M  V30 456 H 44.8521 -1.04456 -1.16269 0
M  V30 457 H 45.5871 0.446335 -3.21214 0
M  V30 458 H 45.3721 -1.25547 -3.71457 0
M  V30 459 H 46.8621 -0.370888 -4.1595 0
M  V30 460 N 47.2992 1.18797 -1.03562 0
M  V30 461 C 48.5452 1.8893 -0.737113 0
M  V30 462 C 48.8782 1.79837 0.732956 0
M  V30 463 O 48.1532 1.19525 1.5344 0
M  V30 464 C 48.4362 3.39607 -1.19745 0
M  V30 465 C 48.2892 3.57537 -2.72924 0
M  V30 466 C 49.6082 4.33069 -0.783526 0
M  V30 467 H 46.7272 0.686057 -0.269249 0
M  V30 468 H 49.3692 1.39797 -1.28673 0
M  V30 469 H 47.5192 3.81583 -0.729855 0
M  V30 470 H 49.1912 3.24688 -3.27682 0
M  V30 471 H 47.4342 3.00363 -3.12993 0
M  V30 472 H 48.1052 4.63238 -3.00191 0
M  V30 473 H 50.5812 3.98846 -1.18581 0
M  V30 474 H 49.4572 5.3707 -1.13343 0
M  V30 475 H 49.7182 4.40986 0.313681 0
M  V30 476 N 48.7773 0.814389 1.34928 0
M  V30 477 C 50.0173 0.404165 2.00364 0
M  V30 478 C 50.3813 -1.01166 1.63185 0
M  V30 479 O 51.5823 -1.52431 2.21401 0
M  V30 480 C 49.8533 0.590718 3.52484 0
M  V30 481 S 51.4123 0.272075 4.37956 0
M  V30 482 H 48.2303 0.15311 0.694319 0
M  V30 483 H 50.8323 1.05834 1.64376 0
M  V30 484 H 49.5363 1.62099 3.77031 0
M  V30 485 H 49.0673 -0.0785013 3.93322 0
M  V30 486 H 51.0823 -0.917405 4.87645 0
M  V30 487 N 50.2554 -1.46986 0.568584 0
M  V30 488 C 51.1854 -2.32946 -0.160753 0
M  V30 489 C 52.1664 -1.44487 -0.897631 0
M  V30 490 O 53.3514 -1.73327 -0.875867 0
M  V30 491 C 50.4814 -3.26494 -1.18403 0
M  V30 492 C 49.4354 -4.24282 -0.562895 0
M  V30 493 C 48.7614 -5.07236 -1.69163 0
M  V30 494 C 50.0614 -5.19989 0.490761 0
M  V30 495 H 51.7554 -2.94175 0.556916 0
M  V30 496 H 49.3014 -1.4146 0.26927 0
M  V30 497 H 51.2544 -3.85477 -1.70251 0
M  V30 498 H 49.9784 -2.63343 -1.93179 0
M  V30 499 H 48.6374 -3.66541 -0.0656164 0
M  V30 500 H 48.2854 -4.4048 -2.42871 0
M  V30 501 H 47.9854 -5.7345 -1.28174 0
M  V30 502 H 49.5094 -5.6908 -2.21314 0
M  V30 503 H 50.9234 -5.73271 0.0579047 0
M  V30 504 H 49.3204 -5.94469 0.820165 0
M  V30 505 H 50.3904 -4.64777 1.3824 0
M  V30 506 N 51.7335 -0.305618 -1.54608 0
M  V30 507 C 52.6835 0.583595 -2.20405 0
M  V30 508 C 53.6675 1.09539 -1.17856 0
M  V30 509 O 54.8595 1.0354 -1.43557 0
M  V30 510 C 51.9885 1.75277 -2.95183 0
M  V30 511 C 51.0745 1.25672 -4.05052 0
M  V30 512 N 51.4655 0.478998 -5.03527 0
M  V30 513 C 49.7635 1.53704 -4.18678 0
M  V30 514 C 50.4645 0.214269 -5.81305 0
M  V30 515 N 49.4405 0.795374 -5.3775 0
M  V30 516 H 53.2425 -0.0180946 -2.93894 0
M  V30 517 H 50.7565 -0.110601 -1.62023 0
M  V30 518 H 52.7535 2.4014 -3.40791 0
M  V30 519 H 51.4135 2.35812 -2.23211 0
M  V30 520 H 52.4245 0.123473 -5.17753 0
M  V30 521 H 49.1015 2.14954 -3.57912 0
M  V30 522 H 50.4915 -0.410656 -6.70644 0
M  V30 523 N 53.2116 1.57565 -0.0334293 0
M  V30 524 C 54.4416 1.95996 0.653398 0
M  V30 525 C 54.8496 0.908749 1.65947 0
M  V30 526 O 54.1926 -0.117471 1.83324 0
M  V30 527 C 54.2546 3.30589 1.41249 0
M  V30 528 C 53.9186 4.53503 0.564263 0
M  V30 529 C 54.9156 5.19647 -0.16225 0
M  V30 530 C 52.6006 4.99801 0.500398 0
M  V30 531 C 54.5946 6.30412 -0.941255 0
M  V30 532 C 52.2816 6.10448 -0.282308 0
M  V30 533 C 53.2796 6.75612 -1.00184 0
M  V30 534 O 52.9676 7.84134 -1.77171 0
M  V30 535 H 52.6996 0.65027 0.184728 0
M  V30 536 H 55.2536 2.05199 -0.0907841 0
M  V30 537 H 53.4836 3.17888 2.20191 0
M  V30 538 H 55.1726 3.53892 1.98784 0
M  V30 539 H 55.9386 4.84846 -0.12227 0
M  V30 540 H 51.8176 4.48883 1.05002 0
M  V30 541 H 55.3616 6.81208 -1.50339 0
M  V30 542 H 51.2586 6.44686 -0.323989 0
M  V30 543 H 52.0266 8.00822 -1.69194 0
M  V30 544 N 54.6897 -0.239769 1.55765 0
M  V30 545 C 55.6397 -1.30002 1.87306 0
M  V30 546 C 56.6237 -1.43156 0.73452 0
M  V30 547 O 57.8157 -1.46277 0.99659 0
M  V30 548 C 54.9447 -2.65409 2.17745 0
M  V30 549 C 54.0307 -2.56231 3.37945 0
M  V30 550 N 54.4217 -2.16689 4.57033 0
M  V30 551 C 52.7197 -2.87229 3.41197 0
M  V30 552 C 53.4207 -2.18318 5.39177 0
M  V30 553 N 52.3967 -2.58098 4.78421 0
M  V30 554 H 56.1987 -0.984912 2.76906 0
M  V30 555 H 53.7127 -0.448381 1.56087 0
M  V30 556 H 55.7097 -3.41934 2.38509 0
M  V30 557 H 54.3697 -2.97781 1.29448 0
M  V30 558 H 55.3807 -1.88116 4.82528 0
M  V30 559 H 52.0577 -3.24094 2.63191 0
M  V30 560 H 53.4477 -1.90025 6.44469 0
M  V30 561 N 56.1678 -1.49265 -0.50573 0
M  V30 562 C 57.5838 -1.35923 -0.836486 0
M  V30 563 C 57.7838 -0.388704 -1.97715 0
M  V30 564 O 56.8398 0.181336 -2.51848 0
M  V30 565 C 58.1528 -2.76531 -1.18115 0
M  V30 566 C 59.7008 -2.85197 -1.28964 0
M  V30 567 C 60.1758 -4.26561 -1.66761 0
M  V30 568 N 61.6668 -4.2935 -1.73819 0
M  V30 569 C 62.4018 -5.35693 -2.045 0
M  V30 570 N 61.8978 -6.52287 -2.33438 0
M  V30 571 N 63.6908 -5.23105 -2.05711 0
M  V30 572 H 55.8418 -2.10965 0.246519 0
M  V30 573 H 58.1048 -0.9468 0.0476887 0
M  V30 574 H 57.8108 -3.49226 -0.416398 0
M  V30 575 H 57.6848 -3.11599 -2.1257 0
M  V30 576 H 60.0718 -2.12742 -2.04511 0
M  V30 577 H 60.1528 -2.53718 -0.325704 0
M  V30 578 H 59.7968 -4.99541 -0.917656 0
M  V30 579 H 59.7268 -4.55502 -2.64246 0
M  V30 580 H 62.2178 -3.4526 -1.53635 0
M  V30 581 H 62.5308 -7.29158 -2.56024 0
M  V30 582 H 60.8758 -6.55521 -2.30905 0
M  V30 583 H 64.0668 -4.31026 -1.82577 0
M  V30 584 H 64.2398 -6.06078 -2.29289 0
M  V30 585 N 57.6459 0.756429 -1.3826 0
M  V30 586 C 58.8709 1.55077 -1.37717 0
M  V30 587 C 59.2959 1.88073 0.03164 0
M  V30 588 O 58.6539 1.50364 1.01293 0
M  V30 589 C 58.7019 2.8283 -2.23695 0
M  V30 590 O 57.8059 3.77862 -1.6521 0
M  V30 591 H 57.1469 0.469152 -0.469885 0
M  V30 592 H 59.6769 0.935019 -1.81985 0
M  V30 593 H 59.6869 3.31783 -2.37453 0
M  V30 594 H 58.3619 2.58144 -3.2609 0
M  V30 595 H 56.9389 3.36555 -1.60578 0
M  V30 596 N 59.124 1.23083 0.984299 0
M  V30 597 C 60.087 1.00979 2.05757 0
M  V30 598 C 61.087 -0.0269573 1.60777 0
M  V30 599 O 62.277 0.212403 1.729 0
M  V30 600 C 59.409 0.527072 3.36801 0
M  V30 601 H 60.602 1.9622 2.26799 0
M  V30 602 H 58.155 1.05072 1.15714 0
M  V30 603 H 58.89 -0.429294 3.21446 0
M  V30 604 H 58.675 1.27515 3.70786 0
M  V30 605 H 60.165 0.392942 4.15747 0
M  V30 606 N 60.6021 -1.18246 1.0419 0
M  V30 607 C 61.5651 -2.20128 0.638452 0
M  V30 608 C 62.5651 -1.57885 -0.304805 0
M  V30 609 O 63.7551 -1.73967 -0.0900369 0
M  V30 610 C 60.8871 -3.4084 -0.0637751 0
M  V30 611 H 62.0801 -2.57336 1.54007 0
M  V30 612 H 59.6331 -1.32152 0.834598 0
M  V30 613 H 60.3681 -3.09166 -0.979136 0
M  V30 614 H 60.1531 -3.8726 0.614198 0
M  V30 615 H 61.6431 -4.16274 -0.332512 0
M  V30 616 N 62.0802 -0.821533 -1.34494 0
M  V30 617 C 62.9902 -0.244355 -2.33324 0
M  V30 618 C 64.0062 0.620527 -1.62559 0
M  V30 619 O 65.1822 0.528754 -1.94335 0
M  V30 620 C 62.2472 0.585368 -3.41723 0
M  V30 621 C 61.3082 -0.301752 -4.28238 0
M  V30 622 C 60.5412 0.488466 -5.3146 0
M  V30 623 O 60.7642 1.72186 -5.4379 0
M  V30 624 O 59.6982 -0.12848 -6.01763 0
M  V30 625 H 63.5242 -1.06231 -2.84515 0
M  V30 626 H 61.1092 -0.583645 -1.37528 0
M  V30 627 H 62.9912 1.05747 -4.07916 0
M  V30 628 H 61.6662 1.38068 -2.92778 0
M  V30 629 H 60.5732 -0.821315 -3.64973 0
M  V30 630 H 61.9062 -1.06138 -4.8062 0
M  V30 631 N 63.5583 1.46682 -0.576371 0
M  V30 632 C 64.5213 2.28707 0.150239 0
M  V30 633 C 65.5213 1.38035 0.824794 0
M  V30 634 O 66.7113 1.60476 0.677719 0
M  V30 635 C 63.8433 3.18248 1.22192 0
M  V30 636 H 65.0363 2.94423 -0.570521 0
M  V30 637 H 62.5893 1.52688 -0.334078 0
M  V30 638 H 63.3243 2.57265 1.97447 0
M  V30 639 H 63.1093 3.85 0.742812 0
M  V30 640 H 64.5993 3.80001 1.73172 0
M  V30 641 N 65.0364 0.313813 1.54444 0
M  V30 642 C 65.9844 -0.572171 2.25453 0
M  V30 643 C 66.9784 -1.12657 1.2651 0
M  V30 644 O 68.1844 -1.07573 1.44319 0
M  V30 645 H 64.5594 -0.203146 0.724041 0
M  V30 646 H 66.5304 0.0491145 2.9836 0
M  V30 647 C 65.2794 -1.72626 3.0182 0
M  V30 648 H 64.6024 -1.30891 3.77767 0
M  V30 649 H 66.0424 -2.32199 3.54767 0
M  V30 650 C 64.5014 -2.63806 2.09542 0
M  V30 651 O 65.0314 -3.65256 1.67185 0
M  V30 652 N 63.2374 -2.31824 1.75232 0
M  V30 653 H 62.7844 -1.49368 2.09873 0
M  V30 654 H 62.7424 -2.93095 1.13767 0
M  V30 655 N 66.5145 -1.57545 0.0417849 0
M  V30 656 C 67.4775 -2.09885 -0.92093 0
M  V30 657 C 68.4775 -1.01648 -1.24596 0
M  V30 658 O 69.6675 -1.27759 -1.1842 0
M  V30 659 C 66.7995 -2.57527 -2.23367 0
M  V30 660 H 67.9925 -2.96236 -0.467382 0
M  V30 661 H 65.5455 -1.5493 -0.206467 0
M  V30 662 H 66.2805 -1.74542 -2.73323 0
M  V30 663 H 66.0655 -3.36613 -2.01083 0
M  V30 664 H 67.5555 -2.98201 -2.92346 0
M  V30 665 N 67.9926 0.231505 -1.5589 0
M  V30 666 C 68.9226 1.29022 -1.94617 0
M  V30 667 C 69.9036 1.4941 -0.813067 0
M  V30 668 O 71.0886 1.6176 -1.07459 0
M  V30 669 C 68.2186 2.64199 -2.25424 0
M  V30 670 C 67.1726 2.58484 -3.41131 0
M  V30 671 C 66.4986 3.97599 -3.57518 0
M  V30 672 C 67.7986 2.1413 -4.76388 0
M  V30 673 H 69.4926 0.968563 -2.83301 0
M  V30 674 H 67.0386 0.464479 -1.36303 0
M  V30 675 H 68.9916 3.38413 -2.51107 0
M  V30 676 H 67.7156 2.98032 -1.33583 0
M  V30 677 H 66.3746 1.86727 -3.15481 0
M  V30 678 H 66.0226 4.28723 -2.6307 0
M  V30 679 H 65.7226 3.94659 -4.35337 0
M  V30 680 H 67.2466 4.7349 -3.85538 0
M  V30 681 H 68.6606 2.78083 -5.01341 0
M  V30 682 H 67.0576 2.2227 -5.57419 0
M  V30 683 H 68.1276 1.09331 -4.72414 0
M  V30 684 N 69.4707 1.49531 0.497807 0
M  V30 685 C 70.6957 1.63159 1.28039 0
M  V30 686 C 71.1207 0.30418 1.85624 0
M  V30 687 O 70.4787 -0.728618 1.66015 0
M  V30 688 C 70.5267 2.70537 2.38416 0
M  V30 689 O 69.6307 2.29931 3.42353 0
M  V30 690 H 68.9717 0.546001 0.377861 0
M  V30 691 H 71.5017 1.9574 0.59558 0
M  V30 692 H 71.5117 2.92802 2.84132 0
M  V30 693 H 70.1867 3.6689 1.95869 0
M  V30 694 H 68.7637 2.18009 3.02533 0
M  V30 695 N 70.9488 -0.749086 1.3866 0
M  V30 696 C 71.9118 -1.84457 1.36045 0
M  V30 697 C 72.9118 -1.58682 0.260122 0
M  V30 698 O 74.1018 -1.66343 0.517261 0
M  V30 699 C 71.2338 -3.22008 1.11911 0
M  V30 700 H 72.4268 -1.88182 2.33512 0
M  V30 701 H 69.9798 -0.951266 1.24019 0
M  V30 702 H 70.7148 -3.2395 0.150686 0
M  V30 703 H 70.4998 -3.42111 1.91579 0
M  V30 704 H 71.9898 -4.0208 1.12788 0
M  V30 705 N 72.4269 -1.23603 -0.977757 0
M  V30 706 C 73.6549 -1.09646 -1.75458 0
M  V30 707 C 74.0699 0.351859 -1.85492 0
M  V30 708 O 73.4269 1.24327 -1.336 0
M  V30 709 C 73.4779 -1.71895 -3.18016 0
M  V30 710 O 73.1989 -3.11063 -3.08498 0
M  V30 711 C 74.6999 -1.63415 -4.12081 0
M  V30 712 H 71.9199 -0.38359 -0.550545 0
M  V30 713 H 74.4639 -1.63507 -1.22824 0
M  V30 714 H 72.6189 -1.22061 -3.67668 0
M  V30 715 H 73.0329 -3.41305 -3.9826 0
M  V30 716 H 74.5069 -2.11669 -5.09804 0
M  V30 717 H 74.9839 -0.593462 -4.35172 0
M  V30 718 H 75.5899 -2.12628 -3.68334 0
M  V30 719 N 73.905 1.17692 -1.04816 0
M  V30 720 C 74.835 2.23777 -0.666791 0
M  V30 721 C 75.816 1.66796 0.33361 0
M  V30 722 O 77.001 1.93039 0.212042 0
M  V30 723 C 74.131 3.47281 -0.0367933 0
M  V30 724 C 73.085 4.17059 -0.961546 0
M  V30 725 C 72.411 5.34342 -0.195626 0
M  V30 726 C 73.711 4.69713 -2.28402 0
M  V30 727 H 75.405 2.55933 -1.55367 0
M  V30 728 H 72.951 1.23019 -0.748484 0
M  V30 729 H 74.904 4.20706 0.241775 0
M  V30 730 H 73.628 3.14381 0.885004 0
M  V30 731 H 72.287 3.45541 -1.22462 0
M  V30 732 H 71.935 4.97692 0.728816 0
M  V30 733 H 71.635 5.81966 -0.811775 0
M  V30 734 H 73.159 6.10553 0.0757473 0
M  V30 735 H 74.573 5.34794 -2.06563 0
M  V30 736 H 72.97 5.279 -2.8538 0
M  V30 737 H 74.04 3.86726 -2.92525 0
M  V30 738 N 75.3831 0.828654 1.34056 0
M  V30 739 C 76.3311 0.242973 2.31327 0
M  V30 740 C 77.3251 -0.61944 1.57668 0
M  V30 741 O 78.5311 -0.51014 1.7262 0
M  V30 742 H 74.9061 0.059834 0.749616 0
M  V30 743 H 76.8771 1.07809 2.78244 0
M  V30 744 C 75.6261 -0.575733 3.429 0
M  V30 745 H 74.9491 0.0785582 3.99723 0
M  V30 746 H 76.3891 -0.951547 4.13185 0
M  V30 747 C 74.8481 -1.75044 2.87856 0
M  V30 748 O 75.3781 -2.84882 2.83205 0
M  V30 749 N 73.5841 -1.56903 2.44602 0
M  V30 750 H 73.1311 -0.675547 2.48584 0
M  V30 751 H 73.0891 -2.35652 2.08124 0
M  V30 752 N 76.8612 -1.46375 0.584142 0
M  V30 753 C 77.8242 -2.28784 -0.138108 0
M  V30 754 C 78.8242 -1.38471 -0.817462 0
M  V30 755 O 80.0142 -1.60833 -0.669199 0
M  V30 756 C 77.1462 -3.18892 -1.20503 0
M  V30 757 H 78.3392 -2.94117 0.586127 0
M  V30 758 H 75.8922 -1.52509 0.342171 0
M  V30 759 H 76.6272 -2.58309 -1.96079 0
M  V30 760 H 76.4122 -3.85388 -0.722384 0
M  V30 761 H 77.9022 -3.80914 -1.71155 0
M  V30 762 N 78.3393 -0.321999 -1.54275 0
M  V30 763 C 79.7553 0.0306999 -1.5957 0
M  V30 764 C 79.9553 1.50614 -1.33857 0
M  V30 765 O 79.0113 2.2619 -1.12223 0
M  V30 766 C 80.3243 -0.386122 -2.98211 0
M  V30 767 C 81.8723 -0.336647 -3.11184 0
M  V30 768 C 82.3473 -0.728607 -4.52167 0
M  V30 769 N 83.8383 -0.681952 -4.58152 0
M  V30 770 C 84.5733 -0.957449 -5.6535 0
M  V30 771 N 84.0693 -1.3 -6.80494 0
M  V30 772 N 85.8623 -0.883113 -5.55119 0
M  V30 773 H 78.0133 -1.28332 -1.69247 0
M  V30 774 H 80.2763 -0.521716 -0.791528 0
M  V30 775 H 79.9823 -1.41404 -3.22022 0
M  V30 776 H 79.8563 0.249662 -3.76373 0
M  V30 777 H 82.2433 0.682058 -2.8711 0
M  V30 778 H 82.3243 -1.00734 -2.3513 0
M  V30 779 H 81.9683 -1.74522 -4.76974 0
M  V30 780 H 81.8983 -0.0356152 -5.26588 0
M  V30 781 H 84.3893 -0.428985 -3.75457 0
M  V30 782 H 84.7023 -1.49563 -7.58189 0
M  V30 783 H 83.0473 -1.33824 -6.81994 0
M  V30 784 H 86.2383 -0.615001 -4.64042 0
M  V30 785 H 86.4113 -1.10118 -6.38575 0
M  V30 786 N 79.8174 1.5752 -0.0501392 0
M  V30 787 C 81.2334 1.56631 0.306402 0
M  V30 788 C 81.4334 1.0577 1.71508 0
M  V30 789 O 80.4894 0.713837 2.422 0
M  V30 790 C 81.8024 3.00393 0.135811 0
M  V30 791 C 83.3504 3.12315 0.206993 0
M  V30 792 C 83.8254 4.57954 0.064944 0
M  V30 793 N 85.3164 4.63041 0.121254 0
M  V30 794 C 86.0514 5.73389 0.0354381 0
M  V30 795 N 85.5474 6.92724 -0.102666 0
M  V30 796 N 87.3404 5.62026 0.090946 0
M  V30 797 H 79.4914 1.88903 -0.971046 0
M  V30 798 H 81.7544 0.869876 -0.376855 0
M  V30 799 H 81.4604 3.41635 -0.835384 0
M  V30 800 H 81.3344 3.66373 0.897275 0
M  V30 801 H 83.7214 2.70973 1.16866 0
M  V30 802 H 83.8024 2.49016 -0.585208 0
M  V30 803 H 83.4464 4.99981 -0.893394 0
M  V30 804 H 83.3764 5.19258 0.876277 0
M  V30 805 H 85.8674 3.77216 0.227284 0
M  V30 806 H 86.1804 7.72633 -0.160882 0
M  V30 807 H 84.5254 6.94864 -0.137737 0
M  V30 808 H 87.7164 4.67684 0.197388 0
M  V30 809 H 87.8894 6.47997 0.0206089 0
M  V30 810 N 81.2955 -0.223234 1.56011 0
M  V30 811 C 82.7065 -0.790368 1.69145 0
M  V30 812 C 83.0575 -1.85055 0.651845 0
M  V30 813 O 82.1825 -2.15498 -0.197359 0
M  V30 814 C 82.7775 -1.4404 3.06656 0
M  V30 815 C 81.3365 -1.95494 3.2165 0
M  V30 816 C 80.4835 -0.814506 2.65068 0
M  V30 817 H 83.4345 0.00139011 1.587 0
M  V30 818 H 83.4555 -2.30916 3.0242 0
M  V30 819 H 82.9675 -0.668543 3.82298 0
M  V30 820 H 81.0685 -2.75487 2.50874 0
M  V30 821 H 81.1815 -2.13607 4.28846 0
M  V30 822 H 79.5455 -1.22137 2.23505 0
M  V30 823 H 80.3285 -0.0553515 3.43255 0
M  V30 824 N 82.7736 -1.49793 -0.48987 0
M  V30 825 C 83.7216 -1.67783 -1.61095 0
M  V30 826 C 84.7156 -0.543683 -1.60438 0
M  V30 827 O 85.9216 -0.723647 -1.64813 0
M  V30 828 H 82.2966 -0.529255 -0.534222 0
M  V30 829 H 84.2676 -2.61861 -1.43078 0
M  V30 830 C 83.0166 -1.77191 -2.99164 0
M  V30 831 H 82.3396 -2.63841 -3.0038 0
M  V30 832 H 83.7796 -1.93809 -3.77113 0
M  V30 833 C 82.2386 -0.519203 -3.32875 0
M  V30 834 O 82.7686 0.350124 -4.00171 0
M  V30 835 N 80.9746 -0.378816 -2.8812 0
M  V30 836 H 80.5216 -1.08725 -2.33531 0
M  V30 837 H 80.4796 0.458239 -3.11043 0
M  V30 838 N 84.2517 0.741722 -1.39055 0
M  V30 839 C 85.4767 1.53607 -1.39354 0
M  V30 840 C 85.9017 1.88096 0.0116905 0
M  V30 841 O 85.2597 1.5143 0.996924 0
M  V30 842 C 85.3077 2.80441 -2.26682 0
M  V30 843 O 84.4117 3.76088 -1.69208 0
M  V30 844 H 83.7527 0.464142 -0.474835 0
M  V30 845 H 86.2827 0.915665 -1.82967 0
M  V30 846 H 86.2927 3.29246 -2.40959 0
M  V30 847 H 84.9677 2.5467 -3.2881 0
M  V30 848 H 83.5447 3.34833 -1.64138 0
M  V30 849 N 85.7298 1.2412 0.971189 0
M  V30 850 C 86.6928 1.03156 2.04674 0
M  V30 851 C 87.6928 -0.00990322 1.60797 0
M  V30 852 O 88.8828 0.230729 1.72665 0
M  V30 853 C 86.0148 0.562765 3.36223 0
M  V30 854 H 87.2078 1.98614 2.24705 0
M  V30 855 H 84.7608 1.06293 1.14593 0
M  V30 856 H 85.4958 -0.395176 3.21883 0
M  V30 857 H 85.2808 1.31441 3.69413 0
M  V30 858 H 86.7708 0.437015 4.15307 0
M  V30 859 N 87.2079 -1.17134 1.05439 0
M  V30 860 C 88.4569 -1.86791 0.761049 0
M  V30 861 C 88.7699 -1.82072 -0.714795 0
M  V30 862 O 89.9759 -2.47223 -1.12218 0
M  V30 863 C 88.4319 -3.35166 1.31117 0
M  V30 864 C 88.0399 -3.48381 2.81664 0
M  V30 865 C 89.7839 -4.10134 1.09499 0
M  V30 866 C 87.6909 -4.90793 3.29964 0
M  V30 867 H 86.6209 -0.699681 0.281002 0
M  V30 868 H 89.2719 -1.3226 1.27199 0
M  V30 869 H 87.6539 -3.8925 0.72803 0
M  V30 870 H 88.8279 -3.04502 3.45855 0
M  V30 871 H 87.1429 -2.86836 3.01851 0
M  V30 872 H 89.7399 -5.152 1.43084 0
M  V30 873 H 90.0829 -4.16287 0.0328772 0
M  V30 874 H 90.6159 -3.62264 1.64346 0
M  V30 875 H 87.3549 -4.89816 4.35616 0
M  V30 876 H 86.8749 -5.35333 2.70516 0
M  V30 877 H 88.5539 -5.59573 3.24787 0
M  V30 878 N 88.686 -0.835752 -1.33615 0
M  V30 879 C 89.914 -0.443344 -2.02094 0
M  V30 880 C 90.329 0.954522 -1.62894 0
M  V30 881 O 89.686 1.61982 -0.840723 0
M  V30 882 C 89.737 -0.550775 -3.5728 0
M  V30 883 O 89.458 -1.89356 -3.95065 0
M  V30 884 C 90.959 -0.154919 -4.43029 0
M  V30 885 H 88.179 -0.176359 -0.647409 0
M  V30 886 H 90.723 -1.12746 -1.70612 0
M  V30 887 H 88.878 0.0853997 -3.87306 0
M  V30 888 H 89.292 -1.87687 -4.89769 0
M  V30 889 H 90.766 -0.281144 -5.51284 0
M  V30 890 H 91.243 0.902863 -4.2982 0
M  V30 891 H 91.849 -0.765404 -4.18356 0
M  V30 892 N 90.1641 1.46063 -0.591896 0
M  V30 893 C 91.4101 2.02638 -0.0811191 0
M  V30 894 C 91.7431 1.4613 1.27905 0
M  V30 895 O 91.0181 0.629908 1.84017 0
M  V30 896 C 91.3011 3.60091 -0.0252436 0
M  V30 897 C 91.1541 4.26965 -1.41496 0
M  V30 898 C 92.4731 4.3496 0.670685 0
M  V30 899 H 89.5921 0.73635 -0.0309524 0
M  V30 900 H 92.2341 1.741 -0.760859 0
M  V30 901 H 90.3841 3.84535 0.553624 0
M  V30 902 H 92.0561 4.13756 -2.0397 0
M  V30 903 H 90.2991 3.85971 -1.98011 0
M  V30 904 H 90.9701 5.35781 -1.32825 0
M  V30 905 H 93.4461 4.15716 0.178825 0
M  V30 906 H 92.3221 5.44686 0.678837 0
M  V30 907 H 92.5831 4.06685 1.73379 0
M  V30 908 N 91.6422 0.330177 1.54103 0
M  V30 909 C 92.5742 -0.566902 2.22079 0
M  V30 910 C 93.5872 -1.07462 1.22294 0
M  V30 911 O 94.7762 -0.987065 1.48726 0
M  V30 912 C 91.8762 -1.79138 2.87685 0
M  V30 913 C 91.0492 -1.42123 4.13666 0
M  V30 914 C 90.1082 -2.50394 4.62806 0
M  V30 915 O 89.1342 -2.14261 5.27334 0
M  V30 916 N 90.3362 -3.81433 4.37595 0
M  V30 917 H 93.1012 0.0151844 2.99696 0
M  V30 918 H 90.6622 0.153681 1.61169 0
M  V30 919 H 92.6542 -2.50975 3.1748 0
M  V30 920 H 91.2242 -2.28115 2.13734 0
M  V30 921 H 90.4442 -0.534201 3.90564 0
M  V30 922 H 91.7322 -1.14971 4.9564 0
M  V30 923 H 91.1302 -4.13584 3.8596 0
M  V30 924 H 89.6872 -4.4948 4.72029 0
M  V30 925 N 93.1203 -1.57491 0.0584922 0
M  V30 926 C 94.0833 -2.1085 -0.898617 0
M  V30 927 C 95.0833 -1.02964 -1.23511 0
M  V30 928 O 96.2733 -1.29007 -1.17059 0
M  V30 929 C 93.4053 -2.59881 -2.20623 0
M  V30 930 H 94.5983 -2.96715 -0.435936 0
M  V30 931 H 92.1513 -1.55141 -0.190023 0
M  V30 932 H 92.8863 -1.77431 -2.71457 0
M  V30 933 H 92.6713 -3.38727 -1.97501 0
M  V30 934 H 94.1613 -3.01285 -2.89166 0
M  V30 935 N 94.5984 0.214957 -1.56127 0
M  V30 936 C 95.8754 0.963093 -1.70247 0
M  V30 937 C 96.2554 2.02166 -0.60764 0
M  V30 938 O 95.6034 2.25244 0.384385 0
M  V30 939 C 95.8134 1.56756 -3.11815 0
M  V30 940 C 97.1614 2.0573 -3.7143 0
M  V30 941 O 98.1854 1.66637 -3.14818 0
M  V30 942 O 97.0444 2.77603 -4.70743 0
M  V30 943 H 94.1384 0.450321 -0.693643 0
M  V30 944 H 96.6844 0.206219 -1.68442 0
M  V30 945 H 95.4564 0.803533 -3.82961 0
M  V30 946 H 95.0794 2.3898 -3.17765 0
M  V30 947 N 96.0765 1.50051 0.48192 0
M  V30 948 C 97.0065 1.71046 1.58951 0
M  V30 949 C 97.9875 0.559288 1.60642 0
M  V30 950 O 99.1725 0.797243 1.77081 0
M  V30 951 C 96.3025 1.79462 2.97339 0
M  V30 952 C 95.2565 2.94558 3.10515 0
M  V30 953 C 94.5825 2.88105 4.50444 0
M  V30 954 C 95.8825 4.35227 2.88747 0
M  V30 955 H 97.5765 2.6378 1.41635 0
M  V30 956 H 95.1225 1.26936 0.679942 0
M  V30 957 H 97.0755 1.92734 3.74742 0
M  V30 958 H 95.7995 0.833412 3.15788 0
M  V30 959 H 94.4585 2.80918 2.35543 0
M  V30 960 H 94.1065 1.89853 4.65795 0
M  V30 961 H 93.8065 3.65366 4.60197 0
M  V30 962 H 95.3305 3.03412 5.29881 0
M  V30 963 H 96.7445 4.49449 3.55905 0
M  V30 964 H 95.1415 5.13856 3.09955 0
M  V30 965 H 96.2115 4.48347 1.84696 0
M  V30 966 N 97.5546 -0.734337 1.39446 0
M  V30 967 C 98.7796 -1.52866 1.40167 0
M  V30 968 C 99.2046 -1.881 -0.00171513 0
M  V30 969 O 98.5626 -1.51957 -0.988879 0
M  V30 970 C 98.6106 -2.79235 2.28167 0
M  V30 971 O 97.7146 -3.75185 1.71201 0
M  V30 972 H 97.0556 -0.461618 0.477289 0
M  V30 973 H 99.5856 -0.905949 1.8345 0
M  V30 974 H 99.5956 -3.27963 2.42702 0
M  V30 975 H 98.2706 -2.52923 3.30156 0
M  V30 976 H 96.8476 -3.33958 1.65912 0
M  V30 977 N 99.0327 -1.24633 -0.964593 0
M  V30 978 C 99.9807 -1.03917 -2.08096 0
M  V30 979 C 100.975 0.0268581 -1.69379 0
M  V30 980 O 102.181 -0.127952 -1.79545 0
M  V30 981 H 98.5557 -0.319044 -0.680966 0
M  V30 982 H 100.527 -1.98581 -2.22729 0
M  V30 983 C 99.2757 -0.663983 -3.41301 0
M  V30 984 H 98.5987 -1.47605 -3.71555 0
M  V30 985 H 100.039 -0.558663 -4.20303 0
M  V30 986 C 98.4977 0.629169 -3.30973 0
M  V30 987 O 99.0277 1.67404 -3.65156 0
M  V30 988 N 97.2337 0.611057 -2.84103 0
M  V30 989 H 96.7807 -0.239593 -2.56483 0
M  V30 990 H 96.7387 1.47647 -2.77575 0
M  V30 991 N 100.511 1.16574 -1.06058 0
M  V30 992 C 101.757 1.87324 -0.777022 0
M  V30 993 C 102.09 1.81351 0.694645 0
M  V30 994 O 101.365 1.22753 1.50871 0
M  V30 995 C 101.648 3.36991 -1.26922 0
M  V30 996 C 101.501 3.51667 -2.80447 0
M  V30 997 C 102.82 4.3131 -0.87521 0
M  V30 998 H 99.9388 0.680191 -0.28374 0
M  V30 999 H 102.581 1.37036 -1.3161 0
M  V30 1000 H 100.731 3.79949 -0.81063 0
M  V30 1001 H 102.403 3.17664 -3.34495 0
M  V30 1002 H 100.646 2.93656 -3.19294 0
M  V30 1003 H 101.317 4.56766 -3.0995 0
M  V30 1004 H 103.793 3.9624 -1.27014 0
M  V30 1005 H 102.669 5.34545 -1.2471 0
M  V30 1006 H 102.93 4.41552 0.220071 0
M  V30 1007 N 101.989 0.842826 1.3317 0
M  V30 1008 C 102.952 0.284065 2.27433 0
M  V30 1009 C 103.952 -0.54948 1.5112 0
M  V30 1010 O 105.142 -0.362699 1.70382 0
M  V30 1011 C 102.274 -0.599384 3.35589 0
M  V30 1012 H 103.467 1.11589 2.78366 0
M  V30 1013 H 101.02 0.616221 1.4364 0
M  V30 1014 H 101.755 -1.45349 2.89904 0
M  V30 1015 H 101.54 -0.00291266 3.921 0
M  V30 1016 H 103.03 -0.983488 4.05854 0
M  V30 1017 N 103.467 -1.45747 0.599634 0
M  V30 1018 C 104.695 -2.06668 0.0978551 0
M  V30 1019 C 105.11 -1.44562 -1.21439 0
M  V30 1020 O 104.467 -0.556923 -1.73795 0
M  V30 1021 C 104.518 -3.61456 -0.0567044 0
M  V30 1022 O 104.239 -4.21242 1.20361 0
M  V30 1023 C 105.74 -4.39345 -0.590869 0
M  V30 1024 H 102.96 -0.667825 0.0651943 0
M  V30 1025 H 105.504 -1.87115 0.82511 0
M  V30 1026 H 103.659 -3.80378 -0.734251 0
M  V30 1027 H 104.073 -5.14323 1.02821 0
M  V30 1028 H 105.547 -5.48182 -0.648131 0
M  V30 1029 H 106.024 -4.08568 -1.61147 0
M  V30 1030 H 106.63 -4.25268 0.0523679 0
M  V30 1031 N 104.945 -0.338344 -1.53925 0
M  V30 1032 C 105.908 0.508299 -2.23493 0
M  V30 1033 C 106.908 1.03175 -1.23335 0
M  V30 1034 O 108.098 0.921826 -1.47811 0
M  V30 1035 C 105.23 1.70754 -2.95052 0
M  V30 1036 H 106.423 -0.100058 -2.99733 0
M  V30 1037 H 103.976 -0.0896198 -1.56043 0
M  V30 1038 H 104.711 2.35474 -2.22986 0
M  V30 1039 H 104.496 1.33946 -3.68512 0
M  V30 1040 H 105.986 2.30818 -3.48013 0
M  V30 1041 N 106.423 1.57458 -0.0668435 0
M  V30 1042 C 107.834 1.80776 0.466558 0
M  V30 1043 C 108.185 0.980361 1.69951 0
M  V30 1044 O 107.31 0.201441 2.1546 0
M  V30 1045 C 107.905 3.27881 0.85321 0
M  V30 1046 C 106.464 3.52062 1.3315 0
M  V30 1047 C 105.611 2.75513 0.314264 0
M  V30 1048 H 108.562 1.5598 -0.292588 0
M  V30 1049 H 108.583 3.39659 1.715 0
M  V30 1050 H 108.095 3.88075 -0.0443439 0
M  V30 1051 H 106.196 2.97167 2.24772 0
M  V30 1052 H 106.309 4.60762 1.31285 0
M  V30 1053 H 104.673 2.42123 0.790492 0
M  V30 1054 H 105.456 3.38442 -0.575477 0
M  V30 1055 N 107.901 -0.206675 1.56239 0
M  V30 1056 C 109.147 -0.930218 1.80208 0
M  V30 1057 C 109.48 -1.83387 0.638981 0
M  V30 1058 O 108.755 -1.91119 -0.361066 0
M  V30 1059 C 109.038 -1.75641 3.1436 0
M  V30 1060 C 108.891 -0.878257 4.41142 0
M  V30 1061 C 110.21 -2.73129 3.45092 0
M  V30 1062 H 107.329 -0.336742 0.655571 0
M  V30 1063 H 109.971 -0.198222 1.88963 0
M  V30 1064 H 108.121 -2.38048 3.07027 0
M  V30 1065 H 109.793 -0.269787 4.6051 0
M  V30 1066 H 108.036 -0.184385 4.33408 0
M  V30 1067 H 108.707 -1.49106 5.3148 0
M  V30 1068 H 111.183 -2.20856 3.52649 0
M  V30 1069 H 110.059 -3.28028 4.40101 0
M  V30 1070 H 110.32 -3.51606 2.68003 0
M  V30 1071 N 109.379 -1.50304 -0.473955 0
M  V30 1072 C 110.604 -1.65175 -1.25427 0
M  V30 1073 C 111.029 -0.333673 -1.85117 0
M  V30 1074 O 110.387 0.702114 -1.67153 0
M  V30 1075 C 110.435 -2.74295 -2.34082 0
M  V30 1076 O 109.539 -2.35349 -3.38651 0
M  V30 1077 H 108.88 -0.551944 -0.369126 0
M  V30 1078 H 111.41 -1.96662 -0.564364 0
M  V30 1079 H 111.42 -2.97285 -2.79438 0
M  V30 1080 H 110.095 -3.69959 -1.90008 0
M  V30 1081 H 108.672 -2.22794 -2.99027 0
M  V30 1082 N 110.857 0.726932 -1.39834 0
M  V30 1083 C 112.105 1.4837 -1.37225 0
M  V30 1084 C 112.426 1.94979 0.0284857 0
M  V30 1085 O 111.696 1.69555 0.981213 0
M  V30 1086 H 110.276 0.55043 -0.505011 0
M  V30 1087 H 112.938 0.862468 -1.74778 0
M  V30 1088 H 112.034 2.36198 -2.04003 0
M  V30 1089 N 112.336 1.25143 0.95797 0
M  V30 1090 C 113.299 1.05321 2.03569 0
M  V30 1091 C 114.299 0.007152 1.60798 0
M  V30 1092 O 115.489 0.24903 1.72411 0
M  V30 1093 C 112.621 0.598394 3.35607 0
M  V30 1094 H 113.814 2.00986 2.22586 0
M  V30 1095 H 111.367 1.07502 1.13459 0
M  V30 1096 H 112.102 -0.361014 3.22284 0
M  V30 1097 H 111.887 1.35351 3.67998 0
M  V30 1098 H 113.377 0.48104 4.1482 0
M  V30 1099 N 113.814 -1.1601 1.06675 0
M  V30 1100 C 115.091 -1.82679 0.699114 0
M  V30 1101 C 115.471 -1.94559 -0.819137 0
M  V30 1102 O 114.819 -1.49169 -1.73092 0
M  V30 1103 C 115.029 -3.19445 1.40555 0
M  V30 1104 C 116.377 -3.95171 1.55323 0
M  V30 1105 O 117.401 -3.28976 1.36577 0
M  V30 1106 O 116.26 -5.13833 1.86112 0
M  V30 1107 H 113.354 -0.788954 0.247951 0
M  V30 1108 H 115.9 -1.23179 1.16726 0
M  V30 1109 H 114.672 -3.05856 2.44065 0
M  V30 1110 H 114.295 -3.86625 0.927733 0
M  V30 1111 N 115.292 -0.849877 -1.32721 0
M  V30 1112 C 116.54 -0.450032 -1.97026 0
M  V30 1113 C 116.861 0.996604 -1.67609 0
M  V30 1114 O 116.131 1.6958 -0.980786 0
M  V30 1115 H 114.711 -0.163426 -0.728904 0
M  V30 1116 H 117.373 -1.08526 -1.6189 0
M  V30 1117 H 116.469 -0.591146 -3.0645 0
M  V30 1118 N 116.77 1.45427 -0.607355 0
M  V30 1119 C 117.995 2.07124 -0.107006 0
M  V30 1120 C 118.42 1.44906 1.19933 0
M  V30 1121 O 117.778 0.541687 1.73019 0
M  V30 1122 C 117.826 3.60595 0.0194119 0
M  V30 1123 O 116.93 3.98285 1.0697 0
M  V30 1124 H 116.271 0.659868 -0.0739597 0
M  V30 1125 H 118.801 1.86683 -0.837297 0
M  V30 1126 H 118.811 4.07419 0.2177 0
M  V30 1127 H 117.486 4.05266 -0.934453 0
M  V30 1128 H 116.063 3.63133 0.847889 0
M  V30 1129 N 118.248 0.346503 1.53744 0
M  V30 1130 C 119.211 -0.496439 2.23759 0
M  V30 1131 C 120.211 -1.0252 1.2388 0
M  V30 1132 O 121.401 -0.913974 1.48297 0
M  V30 1133 C 118.533 -1.69187 2.95954 0
M  V30 1134 H 119.726 0.115952 2.99676 0
M  V30 1135 H 117.279 0.0978939 1.55993 0
M  V30 1136 H 118.014 -2.34288 2.24231 0
M  V30 1137 H 117.799 -1.31989 3.69217 0
M  V30 1138 H 119.289 -2.28969 3.49232 0
M  V30 1139 N 119.726 -1.57421 0.075193 0
M  V30 1140 C 121.137 -1.81021 -0.456964 0
M  V30 1141 C 121.488 -0.98936 -1.69429 0
M  V30 1142 O 120.613 -0.212865 -2.15351 0
M  V30 1143 C 121.208 -3.28329 -0.83581 0
M  V30 1144 C 119.767 -3.52764 -1.31281 0
M  V30 1145 C 118.914 -2.75676 -0.299648 0
M  V30 1146 H 121.865 -1.55822 0.300856 0
M  V30 1147 H 121.886 -3.40564 -1.69696 0
M  V30 1148 H 121.398 -3.88046 0.0649238 0
M  V30 1149 H 119.499 -2.98355 -2.23193 0
M  V30 1150 H 119.612 -4.61451 -1.28839 0
M  V30 1151 H 117.976 -2.42538 -0.777641 0
M  V30 1152 H 118.759 -3.38132 0.593417 0
M  V30 1153 N 121.204 0.198386 -1.56346 0
M  V30 1154 C 122.45 0.920648 -1.80698 0
M  V30 1155 C 122.783 1.83045 -0.648697 0
M  V30 1156 O 122.058 1.91308 0.350925 0
M  V30 1157 C 122.341 1.73971 -3.15287 0
M  V30 1158 C 122.194 0.85485 -4.41602 0
M  V30 1159 C 123.513 2.71296 -3.46535 0
M  V30 1160 H 120.632 0.333261 -0.657348 0
M  V30 1161 H 123.274 0.188198 -1.89066 0
M  V30 1162 H 121.424 2.36416 -3.08285 0
M  V30 1163 H 123.096 0.245362 -4.60647 0
M  V30 1164 H 121.339 0.161398 -4.335 0
M  V30 1165 H 122.01 1.46286 -5.32264 0
M  V30 1166 H 124.486 2.18983 -3.53816 0
M  V30 1167 H 123.362 3.2569 -4.41834 0
M  V30 1168 H 123.623 3.5018 -2.69864 0
M  V30 1169 N 122.682 1.50554 0.465978 0
M  V30 1170 C 123.91 1.65563 1.24083 0
M  V30 1171 C 124.325 0.341051 1.85694 0
M  V30 1172 O 123.682 -0.677543 1.69457 0
M  V30 1173 C 123.733 2.75051 2.34583 0
M  V30 1174 O 123.454 4.01413 1.75497 0
M  V30 1175 C 124.955 3.01078 3.25372 0
M  V30 1176 H 122.175 0.55638 0.375077 0
M  V30 1177 H 124.719 1.96807 0.555624 0
M  V30 1178 H 122.874 2.46486 2.9887 0
M  V30 1179 H 123.288 4.62002 2.48303 0
M  V30 1180 H 124.762 3.81339 3.99105 0
M  V30 1181 H 125.239 2.12349 3.84453 0
M  V30 1182 H 125.845 3.31194 2.66816 0
M  V30 1183 N 124.16 -0.719506 1.40217 0
M  V30 1184 C 125.09 -1.8465 1.42922 0
M  V30 1185 C 126.071 -1.67599 0.29062 0
M  V30 1186 O 127.256 -1.87688 0.498677 0
M  V30 1187 C 124.386 -3.22565 1.28722 0
M  V30 1188 C 123.34 -3.54281 2.40144 0
M  V30 1189 C 122.666 -4.91298 2.11023 0
M  V30 1190 C 123.966 -3.55676 3.82481 0
M  V30 1191 H 125.66 -1.82644 2.37237 0
M  V30 1192 H 123.206 -0.877305 1.1419 0
M  V30 1193 H 125.159 -4.01095 1.29232 0
M  V30 1194 H 123.883 -3.25137 0.308811 0
M  V30 1195 H 122.542 -2.78088 2.38877 0
M  V30 1196 H 122.19 -4.90468 1.11582 0
M  V30 1197 H 121.89 -5.13485 2.8567 0
M  V30 1198 H 123.414 -5.72166 2.13209 0
M  V30 1199 H 124.828 -4.24254 3.85592 0
M  V30 1200 H 123.225 -3.89388 4.56614 0
M  V30 1201 H 124.295 -2.55144 4.12346 0
M  V30 1202 N 125.638 -1.25649 -0.95132 0
M  V30 1203 C 126.885 -1.10594 -1.69633 0
M  V30 1204 C 127.213 0.352515 -1.91279 0
M  V30 1205 O 126.468 1.27601 -1.4838 0
M  V30 1206 C 126.767 -1.80909 -3.08231 0
M  V30 1207 C 126.433 -3.30825 -3.06375 0
M  V30 1208 C 125.095 -3.71722 -3.05576 0
M  V30 1209 C 127.447 -4.26589 -2.99452 0
M  V30 1210 C 124.775 -5.06788 -2.95606 0
M  V30 1211 C 127.127 -5.61683 -2.91024 0
M  V30 1212 C 125.791 -6.01904 -2.88562 0
M  V30 1213 H 125.061 -0.404691 -0.620731 0
M  V30 1214 H 127.708 -1.55964 -1.11119 0
M  V30 1215 H 126.013 -1.27979 -3.70309 0
M  V30 1216 H 127.71 -1.6671 -3.64704 0
M  V30 1217 H 124.3 -2.98287 -3.07771 0
M  V30 1218 H 128.484 -3.95982 -2.99185 0
M  V30 1219 H 123.74 -5.37126 -2.92071 0
M  V30 1220 H 127.914 -6.35578 -2.84629 0
M  V30 1221 H 125.541 -7.06521 -2.80593 0
M  V30 1222 N 127.117 1.15442 -1.07289 0
M  V30 1223 C 128.345 1.90096 -0.81676 0
M  V30 1224 C 128.76 1.7798 0.629966 0
M  V30 1225 O 128.117 1.1313 1.43206 0
M  V30 1226 C 128.168 3.40466 -1.21512 0
M  V30 1227 O 127.889 3.52232 -2.60508 0
M  V30 1228 C 129.39 4.32145 -0.988198 0
M  V30 1229 H 126.61 0.602495 -0.295366 0
M  V30 1230 H 129.154 1.4627 -1.42918 0
M  V30 1231 H 127.309 3.81958 -0.647039 0
M  V30 1232 H 127.723 4.45549 -2.76742 0
M  V30 1233 H 129.197 5.36072 -1.31645 0
M  V30 1234 H 129.674 4.39135 0.0755063 0
M  V30 1235 H 130.28 3.96395 -1.54115 0
M  V30 1236 N 128.595 0.856903 1.32268 0
M  V30 1237 C 130.011 0.547061 1.49931 0
M  V30 1238 C 130.211 -0.921781 1.7918 0
M  V30 1239 O 129.267 -1.70469 1.8627 0
M  V30 1240 C 130.58 1.43599 2.64196 0
M  V30 1241 C 132.128 1.43665 2.78081 0
M  V30 1242 C 132.603 2.31085 3.95428 0
M  V30 1243 N 134.094 2.28893 4.02694 0
M  V30 1244 C 134.829 2.93262 4.92732 0
M  V30 1245 N 134.325 3.66751 5.87763 0
M  V30 1246 N 136.118 2.82638 4.85873 0
M  V30 1247 H 128.269 1.8075 1.11549 0
M  V30 1248 H 130.532 0.772144 0.549997 0
M  V30 1249 H 130.238 2.48058 2.49319 0
M  V30 1250 H 130.112 1.12502 3.60032 0
M  V30 1251 H 132.499 0.399701 2.92381 0
M  V30 1252 H 132.58 1.7878 1.82952 0
M  V30 1253 H 132.224 3.34849 3.81888 0
M  V30 1254 H 132.154 1.93302 4.89839 0
M  V30 1255 H 134.645 1.75466 3.34694 0
M  V30 1256 H 134.958 4.13027 6.53168 0
M  V30 1257 H 133.303 3.70859 5.87783 0
M  V30 1258 H 136.494 2.24774 4.10602 0
M  V30 1259 H 136.667 3.33084 5.55841 0
M  V30 1260 N 130.073 -1.45103 0.615059 0
M  V30 1261 C 131.313 -2.04069 0.116282 0
M  V30 1262 C 131.677 -1.4721 -1.2326 0
M  V30 1263 O 132.878 -1.97577 -1.82255 0
M  V30 1264 C 131.149 -3.57298 0.085482 0
M  V30 1265 S 132.708 -4.37394 -0.351015 0
M  V30 1266 H 129.526 -0.709006 0.0532183 0
M  V30 1267 H 132.128 -1.77709 0.81484 0
M  V30 1268 H 130.832 -3.9619 1.0706 0
M  V30 1269 H 130.363 -3.88244 -0.634835 0
M  V30 1270 H 132.378 -4.69734 -1.59889 0
M  V30 1271 N 131.551 -0.354651 -1.53558 0
M  V30 1272 C 132.514 0.484566 -2.24019 0
M  V30 1273 C 133.514 1.01861 -1.24422 0
M  V30 1274 O 134.704 0.906097 -1.4878 0
M  V30 1275 C 131.836 1.67615 -2.96847 0
M  V30 1276 H 133.029 -0.131843 -2.9961 0
M  V30 1277 H 130.582 -0.106165 -1.55939 0
M  V30 1278 H 131.317 2.33095 -2.25471 0
M  V30 1279 H 131.102 1.30029 -3.69912 0
M  V30 1280 H 132.592 2.27114 -3.50441 0
M  V30 1281 N 133.029 1.57378 -0.0835403 0
M  V30 1282 C 133.939 2.16897 0.894021 0
M  V30 1283 C 134.955 1.13528 1.31861 0
M  V30 1284 O 136.131 1.45848 1.3889 0
M  V30 1285 C 133.196 2.72831 2.13925 0
M  V30 1286 C 132.257 3.91115 1.76997 0
M  V30 1287 C 131.49 4.44371 2.95584 0
M  V30 1288 O 131.713 3.96596 4.09961 0
M  V30 1289 O 130.647 5.35549 2.74719 0
M  V30 1290 H 134.473 3.00814 0.417679 0
M  V30 1291 H 132.058 1.48741 0.140181 0
M  V30 1292 H 133.94 3.0863 2.86924 0
M  V30 1293 H 132.615 1.91967 2.60635 0
M  V30 1294 H 131.522 3.60148 1.01214 0
M  V30 1295 H 132.855 4.73307 1.3506 0
M  V30 1296 N 134.507 -0.190092 1.56449 0
M  V30 1297 C 135.437 -1.23816 1.97969 0
M  V30 1298 C 136.418 -1.47201 0.852395 0
M  V30 1299 O 137.603 -1.58854 1.1171 0
M  V30 1300 C 134.733 -2.5813 2.3235 0
M  V30 1301 C 133.687 -2.49348 3.47864 0
M  V30 1302 C 133.013 -3.8798 3.67934 0
M  V30 1303 C 134.313 -2.01424 4.81898 0
M  V30 1304 H 136.007 -0.89311 2.85769 0
M  V30 1305 H 133.553 -0.428177 1.37487 0
M  V30 1306 H 135.506 -3.31637 2.59991 0
M  V30 1307 H 134.23 -2.94386 1.41438 0
M  V30 1308 H 132.889 -1.78297 3.20321 0
M  V30 1309 H 132.537 -4.21597 2.74344 0
M  V30 1310 H 132.237 -3.82978 4.45648 0
M  V30 1311 H 133.761 -4.63101 3.97957 0
M  V30 1312 H 135.175 -2.64693 5.08538 0
M  V30 1313 H 133.572 -2.07413 5.63116 0
M  V30 1314 H 134.642 -0.967677 4.75146 0
M  V30 1315 N 135.985 -1.50799 -0.457987 0
M  V30 1316 C 137.231 -1.62683 -1.21088 0
M  V30 1317 C 137.564 -0.332268 -1.91336 0
M  V30 1318 O 136.839 0.667043 -1.82704 0
M  V30 1319 C 137.122 -2.81615 -2.24422 0
M  V30 1320 C 136.975 -4.20989 -1.58392 0
M  V30 1321 C 138.294 -2.96085 -3.2561 0
M  V30 1322 H 135.413 -0.592087 -0.438864 0
M  V30 1323 H 138.055 -1.83225 -0.50286 0
M  V30 1324 H 136.205 -2.64231 -2.84806 0
M  V30 1325 H 137.877 -4.49994 -1.01504 0
M  V30 1326 H 136.12 -4.24641 -0.886704 0
M  V30 1327 H 136.791 -5.0016 -2.33547 0
M  V30 1328 H 139.267 -3.12042 -2.75262 0
M  V30 1329 H 138.143 -3.80902 -3.95228 0
M  V30 1330 H 138.404 -2.0726 -3.90507 0
M  V30 1331 N 137.463 0.71206 -1.40597 0
M  V30 1332 C 138.426 1.80785 -1.40888 0
M  V30 1333 C 139.426 1.57937 -0.302103 0
M  V30 1334 O 140.616 1.64913 -0.561182 0
M  V30 1335 C 137.748 3.18927 -1.20409 0
M  V30 1336 H 138.941 1.81924 -2.38419 0
M  V30 1337 H 136.494 0.91805 -1.26497 0
M  V30 1338 H 137.229 3.23436 -0.236522 0
M  V30 1339 H 137.014 3.36911 -2.00582 0
M  V30 1340 H 138.504 3.98949 -1.23408 0
M  V30 1341 N 138.941 1.26152 0.944643 0
M  V30 1342 C 139.904 1.07474 2.0244 0
M  V30 1343 C 140.904 0.0242064 1.60782 0
M  V30 1344 O 142.094 0.267302 1.72137 0
M  V30 1345 C 139.226 0.633956 3.34953 0
M  V30 1346 H 140.419 2.03336 2.20442 0
M  V30 1347 H 137.972 1.087 1.12312 0
M  V30 1348 H 138.707 -0.326811 3.22649 0
M  V30 1349 H 138.492 1.39247 3.66542 0
M  V30 1350 H 139.982 0.52501 4.14287 0
M  V30 1351 N 140.419 -1.14872 1.07899 0
M  V30 1352 C 141.659 -1.8745 0.814965 0
M  V30 1353 C 142.023 -1.80758 -0.64733 0
M  V30 1354 O 143.224 -2.48422 -1.02664 0
M  V30 1355 C 141.495 -3.32286 1.31607 0
M  V30 1356 S 143.054 -4.22537 1.18357 0
M  V30 1357 H 139.872 -0.646833 0.295174 0
M  V30 1358 H 142.474 -1.38555 1.37923 0
M  V30 1359 H 141.178 -3.34703 2.37491 0
M  V30 1360 H 140.709 -3.86238 0.747261 0
M  V30 1361 H 142.724 -4.96044 0.124586 0
M  V30 1362 N 141.898 -0.863906 -1.31812 0
M  V30 1363 C 143.128 -0.485406 -2.00817 0
M  V30 1364 C 143.536 0.925007 -1.65046 0
M  V30 1365 O 142.879 1.61653 -0.872574 0
M  V30 1366 C 142.941 -0.555589 -3.55181 0
M  V30 1367 C 142.605 -1.92654 -4.14407 0
M  V30 1368 C 143.602 -2.89324 -4.31958 0
M  V30 1369 C 141.287 -2.2262 -4.50273 0
M  V30 1370 C 143.281 -4.14108 -4.84555 0
M  V30 1371 C 140.968 -3.47654 -5.02573 0
M  V30 1372 C 141.966 -4.43214 -5.19664 0
M  V30 1373 O 141.654 -5.66033 -5.70843 0
M  V30 1374 H 141.386 -0.188224 -0.649267 0
M  V30 1375 H 143.94 -1.16514 -1.69156 0
M  V30 1376 H 142.17 0.181037 -3.86276 0
M  V30 1377 H 143.859 -0.19138 -4.05449 0
M  V30 1378 H 144.625 -2.6748 -4.04573 0
M  V30 1379 H 140.504 -1.4902 -4.3625 0
M  V30 1380 H 144.048 -4.88703 -4.9781 0
M  V30 1381 H 139.945 -3.69345 -5.29391 0
M  V30 1382 H 140.713 -5.6812 -5.89222 0
M  V30 1383 N 143.376 1.44774 -0.622745 0
M  V30 1384 C 144.604 2.06487 -0.130722 0
M  V30 1385 C 145.019 1.46476 1.19123 0
M  V30 1386 O 144.376 0.584502 1.72887 0
M  V30 1387 C 144.427 3.615 -0.000807207 0
M  V30 1388 O 144.148 4.19274 -1.27048 0
M  V30 1389 C 145.649 4.40229 0.520898 0
M  V30 1390 H 142.869 0.666704 -0.0758106 0
M  V30 1391 H 145.413 1.85779 -0.854774 0
M  V30 1392 H 143.568 3.81498 0.673643 0
M  V30 1393 H 143.982 5.12622 -1.1099 0
M  V30 1394 H 145.456 5.49144 0.560838 0
M  V30 1395 H 145.933 4.1108 1.54627 0
M  V30 1396 H 146.539 4.25131 -0.120018 0
M  V30 1397 N 144.854 0.36279 1.53368 0
M  V30 1398 C 145.804 -0.501391 2.22419 0
M  V30 1399 C 146.788 -1.0509 1.2184 0
M  V30 1400 O 147.98 -0.981404 1.47301 0
M  V30 1401 C 145.109 -1.64201 3.01484 0
M  V30 1402 C 144.195 -1.10552 4.09438 0
M  V30 1403 N 144.586 -0.291788 5.04958 0
M  V30 1404 C 142.884 -1.3806 4.24094 0
M  V30 1405 C 143.585 0.00162655 5.817 0
M  V30 1406 N 142.561 -0.595244 5.40331 0
M  V30 1407 H 146.363 0.127159 2.93625 0
M  V30 1408 H 143.877 0.170658 1.61501 0
M  V30 1409 H 145.874 -2.27326 3.49469 0
M  V30 1410 H 144.534 -2.27365 2.31809 0
M  V30 1411 H 145.545 0.0687731 5.17854 0
M  V30 1412 H 142.222 -2.01522 3.65644 0
M  V30 1413 H 143.612 0.659278 6.68658 0
M  V30 1414 N 146.332 -1.57332 0.0918853 0
M  V30 1415 C 147.578 -1.95328 -0.567313 0
M  V30 1416 C 147.933 -0.972866 -1.65991 0
M  V30 1417 O 147.226 0.00166256 -1.916 0
M  V30 1418 C 147.42 -3.37689 -1.17051 0
M  V30 1419 C 147.249 -4.49489 -0.137875 0
M  V30 1420 C 146.019 -5.04498 0.284515 0
M  V30 1421 C 148.217 -5.10393 0.63271 0
M  V30 1422 N 146.199 -5.99853 1.30576 0
M  V30 1423 C 147.57 -6.01435 1.50587 0
M  V30 1424 C 149.625 -4.93143 0.68658 0
M  V30 1425 C 148.328 -6.77077 2.42815 0
M  V30 1426 C 150.354 -5.69445 1.59645 0
M  V30 1427 C 149.716 -6.60151 2.45725 0
M  V30 1428 H 145.815 -0.761467 -0.178023 0
M  V30 1429 H 148.399 -1.93924 0.173706 0
M  V30 1430 H 146.57 -3.39793 -1.88136 0
M  V30 1431 H 148.302 -3.62872 -1.79181 0
M  V30 1432 H 145.057 -4.73489 -0.102593 0
M  V30 1433 H 145.481 -6.52231 1.81449 0
M  V30 1434 H 150.123 -4.22785 0.035244 0
M  V30 1435 H 147.841 -7.46699 3.08975 0
M  V30 1436 H 151.427 -5.58112 1.64323 0
M  V30 1437 H 150.307 -7.18159 3.14987 0
M  V30 1438 N 147.81 0.181792 -1.56548 0
M  V30 1439 C 149.058 0.89832 -1.81038 0
M  V30 1440 C 149.379 1.83232 -0.667164 0
M  V30 1441 O 148.649 1.93372 0.313673 0
M  V30 1442 H 147.229 0.33471 -0.667816 0
M  V30 1443 H 149.891 0.184116 -1.94028 0
M  V30 1444 H 148.987 1.4815 -2.74696 0
M  V30 1445 N 149.288 1.51039 0.449983 0
M  V30 1446 C 150.704 1.38934 0.785462 0
M  V30 1447 C 150.904 0.461817 1.96136 0
M  V30 1448 O 149.96 -0.0877389 2.52348 0
M  V30 1449 C 151.273 2.80724 1.0777 0
M  V30 1450 C 152.821 2.89787 1.1829 0
M  V30 1451 C 153.296 4.32457 1.50815 0
M  V30 1452 N 154.787 4.35505 1.57764 0
M  V30 1453 C 155.522 5.42914 1.84477 0
M  V30 1454 N 155.018 6.60502 2.09068 0
M  V30 1455 N 156.811 5.3038 1.86155 0
M  V30 1456 H 148.962 2.09904 -0.324647 0
M  V30 1457 H 151.225 0.944378 -0.0827957 0
M  V30 1458 H 150.931 3.50531 0.286498 0
M  V30 1459 H 150.805 3.19273 2.00859 0
M  V30 1460 H 153.192 2.20186 1.96474 0
M  V30 1461 H 153.273 2.54752 0.231314 0
M  V30 1462 H 152.917 5.02603 0.731622 0
M  V30 1463 H 152.847 4.64995 2.47158 0
M  V30 1464 H 155.338 3.50724 1.40715 0
M  V30 1465 H 155.651 7.38158 2.28785 0
M  V30 1466 H 153.996 6.63639 2.06416 0
M  V30 1467 H 157.187 4.37505 1.66454 0
M  V30 1468 H 157.36 6.1417 2.06637 0
M  V30 1469 N 150.766 -0.704594 1.40972 0
M  V30 1470 C 152.006 -1.47691 1.41304 0
M  V30 1471 C 152.37 -1.91992 0.0178582 0
M  V30 1472 O 153.571 -2.68599 -0.103996 0
M  V30 1473 C 151.842 -2.66254 2.38419 0
M  V30 1474 S 153.401 -3.55516 2.57204 0
M  V30 1475 H 150.219 -0.504808 0.500689 0
M  V30 1476 H 152.821 -0.822962 1.77335 0
M  V30 1477 H 151.525 -2.31897 3.38603 0
M  V30 1478 H 151.056 -3.3655 2.03711 0
M  V30 1479 H 153.071 -4.61115 1.83268 0
M  V30 1480 N 152.244 -1.26651 -0.937939 0
M  V30 1481 C 153.521 -1.0313 -1.66204 0
M  V30 1482 C 153.901 0.437256 -2.06522 0
M  V30 1483 O 153.249 1.41831 -1.79154 0
M  V30 1484 C 153.459 -1.98314 -2.87181 0
M  V30 1485 C 154.807 -2.27107 -3.58758 0
M  V30 1486 O 155.831 -1.96205 -2.97291 0
M  V30 1487 O 154.69 -2.79736 -4.69479 0
M  V30 1488 H 151.784 -0.392384 -0.727986 0
M  V30 1489 H 154.33 -1.37874 -0.989382 0
M  V30 1490 H 153.102 -2.97399 -2.54302 0
M  V30 1491 H 152.725 -1.64068 -3.6217 0
M  V30 1492 N 153.722 1.14298 -1.08507 0
M  V30 1493 C 154.968 1.85633 -0.816581 0
M  V30 1494 C 155.301 1.82784 0.656021 0
M  V30 1495 O 154.576 1.25926 1.48233 0
M  V30 1496 C 154.859 3.34223 -1.34041 0
M  V30 1497 C 154.712 3.45639 -2.87843 0
M  V30 1498 C 156.031 4.29356 -0.9665 0
M  V30 1499 H 153.15 0.67402 -0.298104 0
M  V30 1500 H 155.792 1.34214 -1.34487 0
M  V30 1501 H 153.942 3.78144 -0.89104 0
M  V30 1502 H 155.614 3.10498 -3.41158 0
M  V30 1503 H 153.857 2.86817 -3.25451 0
M  V30 1504 H 154.528 4.50089 -3.19569 0
M  V30 1505 H 157.004 3.93457 -1.35391 0
M  V30 1506 H 155.88 5.3178 -1.3602 0
M  V30 1507 H 156.141 4.41919 0.126362 0
M  V30 1508 N 155.201 0.870884 1.31352 0
M  V30 1509 C 156.131 0.343096 2.30966 0
M  V30 1510 C 157.112 -0.566507 1.60389 0
M  V30 1511 O 158.297 -0.483336 1.88089 0
M  V30 1512 C 155.427 -0.455487 3.443 0
M  V30 1513 C 154.381 0.361103 4.26474 0
M  V30 1514 C 153.707 -0.563221 5.31725 0
M  V30 1515 C 155.007 1.59566 4.97329 0
M  V30 1516 H 156.701 1.17548 2.75359 0
M  V30 1517 H 154.247 0.566686 1.32381 0
M  V30 1518 H 156.2 -0.83525 4.13039 0
M  V30 1519 H 154.924 -1.32139 2.98675 0
M  V30 1520 H 153.583 0.722825 3.59403 0
M  V30 1521 H 153.231 -1.42643 4.82351 0
M  V30 1522 H 152.931 -0.0207409 5.87596 0
M  V30 1523 H 154.455 -0.939808 6.03324 0
M  V30 1524 H 155.869 1.28728 5.58661 0
M  V30 1525 H 154.266 2.07728 5.63 0
M  V30 1526 H 155.336 2.34798 4.24262 0
M  V30 1527 N 156.679 -1.44442 0.630414 0
M  V30 1528 C 157.925 -2.02351 0.134816 0
M  V30 1529 C 158.258 -1.4947 -1.23986 0
M  V30 1530 O 157.533 -0.678475 -1.82283 0
M  V30 1531 C 157.816 -3.59898 0.120707 0
M  V30 1532 C 157.669 -4.23063 1.52767 0
M  V30 1533 C 158.988 -4.36585 -0.555127 0
M  V30 1534 H 156.107 -0.73527 0.0504646 0
M  V30 1535 H 158.749 -1.72022 0.806751 0
M  V30 1536 H 156.899 -3.85868 -0.451477 0
M  V30 1537 H 158.571 -4.08202 2.14869 0
M  V30 1538 H 156.814 -3.80586 2.08175 0
M  V30 1539 H 157.485 -5.32071 1.46984 0
M  V30 1540 H 159.961 -4.16044 -0.0685429 0
M  V30 1541 H 158.837 -5.46294 -0.534185 0
M  V30 1542 H 159.098 -4.11138 -1.62535 0
M  V30 1543 N 158.157 -0.370918 -1.53173 0
M  V30 1544 C 159.105 0.488101 -2.27421 0
M  V30 1545 C 160.099 1.07884 -1.30604 0
M  V30 1546 O 161.305 1.02143 -1.48212 0
M  V30 1547 H 157.68 0.176134 -0.731082 0
M  V30 1548 H 159.651 -0.159815 -2.97972 0
M  V30 1549 C 158.4 1.61306 -3.08019 0
M  V30 1550 H 157.723 1.1678 -3.82364 0
M  V30 1551 H 159.163 2.18872 -3.63141 0
M  V30 1552 C 157.622 2.55848 -2.19188 0
M  V30 1553 O 158.152 3.58799 -1.80626 0
M  V30 1554 N 156.358 2.2516 -1.83715 0
M  V30 1555 H 155.905 1.41476 -2.15273 0
M  V30 1556 H 155.863 2.8867 -1.24567 0
M  V30 1557 N 159.635 1.57281 -0.100228 0
M  V30 1558 C 160.583 2.15542 0.874328 0
M  V30 1559 C 161.577 1.09962 1.28859 0
M  V30 1560 O 162.783 1.28298 1.26252 0
M  V30 1561 H 159.158 0.689567 0.300003 0
M  V30 1562 H 161.129 2.96241 0.35829 0
M  V30 1563 C 159.878 2.75454 2.1218 0
M  V30 1564 H 159.201 3.56384 1.81193 0
M  V30 1565 H 160.641 3.19781 2.78417 0
M  V30 1566 C 159.1 1.71602 2.89921 0
M  V30 1567 O 159.63 1.15804 3.84646 0
M  V30 1568 N 157.836 1.41975 2.53558 0
M  V30 1569 H 157.383 1.87539 1.76598 0
M  V30 1570 H 157.341 0.727274 3.05873 0
M  V30 1571 N 161.113 -0.173488 1.56642 0
M  V30 1572 C 162.076 -1.19859 1.95362 0
M  V30 1573 C 163.076 -1.37296 0.83704 0
M  V30 1574 O 164.266 -1.34739 1.10413 0
M  V30 1575 C 161.398 -2.56405 2.24654 0
M  V30 1576 H 162.591 -0.867062 2.87092 0
M  V30 1577 H 160.144 -0.415853 1.50666 0
M  V30 1578 H 160.879 -2.94576 1.35631 0
M  V30 1579 H 160.664 -2.45115 3.06041 0
M  V30 1580 H 162.154 -3.30287 2.5554 0
M  V30 1581 N 162.591 -1.51276 -0.441967 0
M  V30 1582 C 163.816 -1.67799 -1.21895 0
M  V30 1583 C 164.241 -0.372864 -1.84367 0
M  V30 1584 O 163.599 0.666501 -1.68604 0
M  V30 1585 C 163.647 -2.79199 -2.28211 0
M  V30 1586 O 162.751 -2.42479 -3.33583 0
M  V30 1587 H 162.092 -0.559649 -0.357336 0
M  V30 1588 H 164.622 -1.97815 -0.522522 0
M  V30 1589 H 164.632 -3.03146 -2.73069 0
M  V30 1590 H 163.307 -3.73906 -1.82118 0
M  V30 1591 H 161.884 -2.29087 -2.94234 0
M  V30 1592 N 164.069 0.697108 -1.41344 0
M  V30 1593 C 165.294 1.49096 -1.44171 0
M  V30 1594 C 165.719 1.88038 -0.0481568 0
M  V30 1595 O 165.077 1.54525 0.948243 0
M  V30 1596 C 165.125 2.73088 -2.3549 0
M  V30 1597 O 164.229 3.70514 -1.81088 0
M  V30 1598 H 163.57 0.448801 -0.489361 0
M  V30 1599 H 166.1 0.856992 -1.85787 0
M  V30 1600 H 166.11 3.21413 -2.51312 0
M  V30 1601 H 164.785 2.44081 -3.36745 0
M  V30 1602 H 163.362 3.29441 -1.74708 0
M  V30 1603 N 165.547 1.27147 0.931209 0
M  V30 1604 C 166.794 1.13278 1.67852 0
M  V30 1605 C 167.122 -0.32204 1.91815 0
M  V30 1606 O 166.377 -1.25224 1.50391 0
M  V30 1607 C 166.676 1.8579 3.05314 0
M  V30 1608 C 166.342 3.35657 3.01073 0
M  V30 1609 C 165.004 3.76536 2.99623 0
M  V30 1610 C 167.356 4.31299 2.92627 0
M  V30 1611 C 164.684 5.11426 2.87506 0
M  V30 1612 C 167.036 5.66242 2.82051 0
M  V30 1613 C 165.7 6.06418 2.7895 0
M  V30 1614 H 164.97 0.414515 0.614214 0
M  V30 1615 H 167.617 1.57712 1.08624 0
M  V30 1616 H 165.922 1.33854 3.68226 0
M  V30 1617 H 167.619 1.72491 3.62005 0
M  V30 1618 H 164.209 3.03146 3.02986 0
M  V30 1619 H 168.393 4.00692 2.92848 0
M  V30 1620 H 163.649 5.41705 2.83489 0
M  V30 1621 H 167.823 6.40026 2.74481 0
M  V30 1622 H 165.45 7.10895 2.69318 0
M  V30 1623 N 167.025 -1.13721 1.09112 0
M  V30 1624 C 168.255 -1.88499 0.845671 0
M  V30 1625 C 168.663 -1.79218 -0.606432 0
M  V30 1626 O 168.006 -1.1544 -1.42896 0
M  V30 1627 C 168.068 -3.38954 1.19793 0
M  V30 1628 C 167.732 -3.72018 2.65428 0
M  V30 1629 C 168.729 -3.7153 3.63677 0
M  V30 1630 C 166.414 -4.01775 3.01467 0
M  V30 1631 C 168.408 -4.00336 4.95994 0
M  V30 1632 C 166.095 -4.30243 4.33975 0
M  V30 1633 C 167.093 -4.29508 5.31048 0
M  V30 1634 O 166.781 -4.5728 6.61173 0
M  V30 1635 H 166.513 -0.603702 0.304171 0
M  V30 1636 H 169.067 -1.44903 1.45576 0
M  V30 1637 H 167.297 -3.83039 0.530871 0
M  V30 1638 H 168.986 -3.95052 0.932146 0
M  V30 1639 H 169.752 -3.4862 3.37179 0
M  V30 1640 H 165.631 -4.01496 2.26544 0
M  V30 1641 H 169.175 -3.99678 5.71755 0
M  V30 1642 H 165.072 -4.52625 4.60219 0
M  V30 1643 H 165.84 -4.74964 6.66597 0
M  V30 1644 N 168.503 -0.877838 -1.30888 0
M  V30 1645 C 169.914 -0.544193 -1.78593 0
M  V30 1646 C 170.265 0.939301 -1.72254 0
M  V30 1647 O 169.39 1.7337 -1.29505 0
M  V30 1648 C 169.985 -0.98105 -3.24285 0
M  V30 1649 C 168.544 -0.698935 -3.69854 0
M  V30 1650 C 167.691 -1.168 -2.51502 0
M  V30 1651 H 170.642 -1.06278 -1.17859 0
M  V30 1652 H 170.663 -0.307009 -3.79259 0
M  V30 1653 H 170.175 -2.06079 -3.28866 0
M  V30 1654 H 168.276 0.369112 -3.70767 0
M  V30 1655 H 168.389 -1.28148 -4.61644 0
M  V30 1656 H 166.753 -0.587535 -2.47831 0
M  V30 1657 H 167.536 -2.25533 -2.58824 0
M  V30 1658 N 169.982 1.44106 -0.638065 0
M  V30 1659 C 171.21 2.06336 -0.152615 0
M  V30 1660 C 171.625 1.47731 1.17563 0
M  V30 1661 O 170.982 0.602806 1.72257 0
M  V30 1662 C 171.033 3.61479 -0.0391491 0
M  V30 1663 O 170.754 4.17903 -1.31487 0
M  V30 1664 C 172.255 4.40757 0.474176 0
M  V30 1665 H 169.475 0.665862 -0.0828776 0
M  V30 1666 H 172.019 1.84862 -0.87443 0
M  V30 1667 H 170.174 3.82191 0.633142 0
M  V30 1668 H 170.588 5.11416 -1.16421 0
M  V30 1669 H 172.062 5.49707 0.502562 0
M  V30 1670 H 172.539 4.12697 1.50258 0
M  V30 1671 H 173.145 4.24979 -0.165102 0
M  V30 1672 N 171.46 0.379036 1.52974 0
M  V30 1673 C 172.871 -0.0972525 1.86447 0
M  V30 1674 C 173.222 -1.47027 1.29914 0
M  V30 1675 O 172.347 -2.07135 0.626433 0
M  V30 1676 C 172.942 -0.183248 3.38304 0
M  V30 1677 C 171.501 -0.603812 3.71525 0
M  V30 1678 C 170.648 0.240632 2.76254 0
M  V30 1679 H 173.599 0.597316 1.4703 0
M  V30 1680 H 173.62 -1.00432 3.67006 0
M  V30 1681 H 173.132 0.816191 3.79421 0
M  V30 1682 H 171.233 -1.61099 3.35973 0
M  V30 1683 H 171.346 -0.369086 4.77676 0
M  V30 1684 H 169.71 -0.292548 2.53014 0
M  V30 1685 H 170.493 1.23786 3.20206 0
M  V30 1686 N 172.938 -1.57226 0.108567 0
M  V30 1687 C 173.868 -2.17778 -0.84232 0
M  V30 1688 C 174.849 -1.11487 -1.2847 0
M  V30 1689 O 176.034 -1.39681 -1.34918 0
M  V30 1690 C 173.164 -2.76888 -2.09644 0
M  V30 1691 C 172.118 -3.88669 -1.79221 0
M  V30 1692 C 171.444 -4.34541 -3.11574 0
M  V30 1693 C 172.744 -5.11251 -1.06864 0
M  V30 1694 H 174.438 -2.97489 -0.337774 0
M  V30 1695 H 171.984 -1.43097 -0.161025 0
M  V30 1696 H 173.937 -3.17904 -2.76614 0
M  V30 1697 H 172.661 -1.94451 -2.62405 0
M  V30 1698 H 171.32 -3.48213 -1.14644 0
M  V30 1699 H 170.968 -3.48977 -3.62249 0
M  V30 1700 H 170.668 -5.09914 -2.91996 0
M  V30 1701 H 172.192 -4.782 -3.7968 0
M  V30 1702 H 173.606 -5.49352 -1.63968 0
M  V30 1703 H 172.003 -5.9214 -0.974178 0
M  V30 1704 H 173.073 -4.8487 -0.0536168 0
M  V30 1705 N 174.416 0.165178 -1.56732 0
M  V30 1706 C 175.346 1.20651 -1.99914 0
M  V30 1707 C 176.327 1.45827 -0.875705 0
M  V30 1708 O 177.512 1.57057 -1.14223 0
M  V30 1709 C 174.642 2.54401 -2.36427 0
M  V30 1710 C 173.596 2.43782 -3.51787 0
M  V30 1711 C 172.922 3.82078 -3.7406 0
M  V30 1712 C 174.222 1.93732 -4.85041 0
M  V30 1713 H 175.916 0.847534 -2.87154 0
M  V30 1714 H 173.462 0.40625 -1.38151 0
M  V30 1715 H 175.415 3.27458 -2.65234 0
M  V30 1716 H 174.139 2.92098 -1.46103 0
M  V30 1717 H 172.798 1.73178 -3.23117 0
M  V30 1718 H 172.446 4.17179 -2.81017 0
M  V30 1719 H 172.146 3.7584 -4.51684 0
M  V30 1720 H 173.67 4.56712 -4.05274 0
M  V30 1721 H 175.084 2.56569 -5.12684 0
M  V30 1722 H 173.481 1.98428 -5.66345 0
M  V30 1723 H 174.551 0.891962 -4.76626 0
M  V30 1724 N 175.894 1.51508 0.433938 0
M  V30 1725 C 177.31 1.39759 0.770682 0
M  V30 1726 C 177.51 0.482594 1.95636 0
M  V30 1727 O 176.566 -0.0609691 2.52426 0
M  V30 1728 C 177.879 2.81851 1.04787 0
M  V30 1729 C 179.427 2.91025 1.1521 0
M  V30 1730 C 179.902 4.34032 1.46219 0
M  V30 1731 N 181.393 4.37154 1.53136 0
M  V30 1732 C 182.128 5.4484 1.78709 0
M  V30 1733 N 181.624 6.62682 2.02051 0
M  V30 1734 N 183.417 5.32324 1.80519 0
M  V30 1735 H 175.568 2.09548 -0.346892 0
M  V30 1736 H 177.831 0.943446 -0.0928074 0
M  V30 1737 H 177.537 3.50815 0.249304 0
M  V30 1738 H 177.411 3.21386 1.97461 0
M  V30 1739 H 179.798 2.22257 1.94128 0
M  V30 1740 H 179.879 2.54983 0.204281 0
M  V30 1741 H 179.523 5.03351 0.678274 0
M  V30 1742 H 179.453 4.6759 2.42212 0
M  V30 1743 H 181.944 3.52197 1.36987 0
M  V30 1744 H 182.257 7.40543 2.20943 0
M  V30 1745 H 180.602 6.65791 1.99366 0
M  V30 1746 H 183.793 4.39246 1.61805 0
M  V30 1747 H 183.966 6.16328 2.00111 0
M  V30 1748 N 177.372 -0.689602 1.41712 0
M  V30 1749 C 178.32 -1.82475 1.44242 0
M  V30 1750 C 179.314 -1.66354 0.319774 0
M  V30 1751 O 180.52 -1.73143 0.492089 0
M  V30 1752 H 176.895 -0.601416 0.451445 0
M  V30 1753 H 178.866 -1.77458 2.39899 0
M  V30 1754 C 177.615 -3.20535 1.3473 0
M  V30 1755 H 176.938 -3.33559 2.20405 0
M  V30 1756 H 178.378 -4.00023 1.40562 0
M  V30 1757 C 176.837 -3.36846 0.0603281 0
M  V30 1758 O 177.367 -3.91656 -0.892663 0
M  V30 1759 N 175.573 -2.90595 -0.0177039 0
M  V30 1760 H 175.12 -2.46178 0.758572 0
M  V30 1761 H 175.078 -3.01886 -0.878201 0
M  V30 1762 N 178.85 -1.27639 -0.924453 0
M  V30 1763 C 180.127 -1.04887 -1.651 0
M  V30 1764 C 180.507 0.415327 -2.06974 0
M  V30 1765 O 179.855 1.39923 -1.80648 0
M  V30 1766 C 180.065 -2.01348 -2.85061 0
M  V30 1767 C 181.413 -2.30899 -3.56329 0
M  V30 1768 O 182.437 -1.99348 -2.95193 0
M  V30 1769 O 181.296 -2.84699 -4.66485 0
M  V30 1770 H 178.39 -0.400083 -0.723784 0
M  V30 1771 H 180.936 -1.38916 -0.974703 0
M  V30 1772 H 179.708 -3.0008 -2.51133 0
M  V30 1773 H 179.331 -1.679 -3.6041 0
M  V30 1774 N 180.328 1.1314 -1.09713 0
M  V30 1775 C 181.238 2.22242 -0.751367 0
M  V30 1776 C 182.254 1.72224 0.247938 0
M  V30 1777 O 183.43 2.01205 0.0885463 0
M  V30 1778 C 180.495 3.46231 -0.180274 0
M  V30 1779 C 179.556 4.11125 -1.2359 0
M  V30 1780 C 178.789 5.29195 -0.691966 0
M  V30 1781 O 179.012 5.68342 0.48414 0
M  V30 1782 O 177.946 5.84214 -1.44838 0
M  V30 1783 H 181.772 2.54197 -1.66186 0
M  V30 1784 H 179.357 1.21331 -0.871735 0
M  V30 1785 H 181.239 4.21185 0.134739 0
M  V30 1786 H 179.914 3.1597 0.703185 0
M  V30 1787 H 178.821 3.37985 -1.60366 0
M  V30 1788 H 180.154 4.45524 -2.09211 0
M  V30 1789 N 181.806 0.884767 1.30421 0
M  V30 1790 C 183.083 0.423185 1.90967 0
M  V30 1791 C 183.463 -1.09605 1.80416 0
M  V30 1792 O 182.811 -1.93126 1.22125 0
M  V30 1793 C 183.021 0.921056 3.36627 0
M  V30 1794 C 184.369 0.955903 4.137 0
M  V30 1795 O 185.393 0.867706 3.4547 0
M  V30 1796 O 184.252 1.08614 5.35598 0
M  V30 1797 H 181.346 0.129369 0.816819 0
M  V30 1798 H 183.892 0.973653 1.3899 0
M  V30 1799 H 182.664 1.96489 3.3839 0
M  V30 1800 H 182.287 0.349741 3.96059 0
M  V30 1801 N 183.284 -1.43765 0.645699 0
M  V30 1802 C 184.532 -2.01499 0.155731 0
M  V30 1803 C 184.853 -1.51151 -1.232 0
M  V30 1804 O 184.123 -0.721044 -1.82148 0
M  V30 1805 H 182.703 -0.745003 0.0545817 0
M  V30 1806 H 185.365 -1.76075 0.835677 0
M  V30 1807 H 184.461 -3.1181 0.134577 0
M  V30 1808 N 184.763 -0.387143 -1.52771 0
M  V30 1809 C 185.713 0.465942 -2.23188 0
M  V30 1810 C 186.697 1.03138 -1.23496 0
M  V30 1811 O 187.889 0.957845 -1.48843 0
M  V30 1812 C 185.018 1.59384 -3.04059 0
M  V30 1813 C 184.104 1.04024 -4.11144 0
M  V30 1814 N 184.495 0.211416 -5.05358 0
M  V30 1815 C 182.793 1.31295 -4.26237 0
M  V30 1816 C 183.494 -0.0941698 -5.81624 0
M  V30 1817 N 182.47 0.509207 -5.4121 0
M  V30 1818 H 186.272 -0.173856 -2.93385 0
M  V30 1819 H 183.786 -0.19633 -1.61209 0
M  V30 1820 H 185.783 2.21738 -3.53041 0
M  V30 1821 H 184.443 2.23648 -2.35397 0
M  V30 1822 H 185.454 -0.151151 -5.17679 0
M  V30 1823 H 182.131 1.95679 -3.68803 0
M  V30 1824 H 183.521 -0.765572 -6.67524 0
M  V30 1825 N 186.241 1.57166 -0.116904 0
M  V30 1826 C 187.151 2.18745 0.847812 0
M  V30 1827 C 188.167 1.163 1.29423 0
M  V30 1828 O 189.343 1.48761 1.35765 0
M  V30 1829 C 186.408 2.77307 2.0809 0
M  V30 1830 C 185.469 3.94781 1.68661 0
M  V30 1831 C 184.702 4.50541 2.86091 0
M  V30 1832 O 184.925 4.05202 4.01456 0
M  V30 1833 O 183.859 5.41256 2.63298 0
M  V30 1834 H 187.685 3.01632 0.353778 0
M  V30 1835 H 185.27 1.49005 0.108599 0
M  V30 1836 H 187.152 3.14647 2.80313 0
M  V30 1837 H 185.827 1.97452 2.56504 0
M  V30 1838 H 184.734 3.62214 0.935518 0
M  V30 1839 H 186.067 4.76065 1.24991 0
M  V30 1840 N 187.719 -0.156864 1.56817 0
M  V30 1841 C 189.13 -0.717916 1.72345 0
M  V30 1842 C 189.481 -1.82124 0.729747 0
M  V30 1843 O 188.606 -2.16141 -0.105781 0
M  V30 1844 C 189.201 -1.30904 3.12489 0
M  V30 1845 C 187.76 -1.81676 3.29653 0
M  V30 1846 C 186.907 -0.701349 2.68284 0
M  V30 1847 H 189.858 0.0686989 1.58551 0
M  V30 1848 H 189.879 -2.17882 3.11942 0
M  V30 1849 H 189.391 -0.505796 3.8479 0
M  V30 1850 H 187.492 -2.64598 2.62333 0
M  V30 1851 H 187.605 -1.95226 4.3752 0
M  V30 1852 H 185.969 -1.12548 2.28484 0
M  V30 1853 H 186.752 0.0902846 3.43181 0
M  V30 1854 N 189.197 -1.51736 -0.425897 0
M  V30 1855 C 190.437 -1.66636 -1.18371 0
M  V30 1856 C 190.801 -0.379854 -1.88205 0
M  V30 1857 O 192.002 -0.404758 -2.65735 0
M  V30 1858 C 190.273 -2.84382 -2.16476 0
M  V30 1859 S 191.832 -3.19673 -3.0059 0
M  V30 1860 H 188.65 -0.586957 -0.40125 0
M  V30 1861 H 191.252 -1.89679 -0.473518 0
M  V30 1862 H 189.956 -3.76281 -1.63831 0
M  V30 1863 H 189.487 -2.63562 -2.92059 0
M  V30 1864 H 191.502 -2.66994 -4.18245 0
M  V30 1865 N 190.675 0.682077 -1.42076 0
M  V30 1866 C 191.921 1.44428 -1.42367 0
M  V30 1867 C 192.254 1.94164 -0.0373056 0
M  V30 1868 O 191.529 1.70429 0.937239 0
M  V30 1869 C 191.812 2.64654 -2.44194 0
M  V30 1870 C 191.665 2.20596 -3.91991 0
M  V30 1871 C 192.984 3.66865 -2.431 0
M  V30 1872 H 190.103 0.523834 -0.518428 0
M  V30 1873 H 192.745 0.77576 -1.73442 0
M  V30 1874 H 190.895 3.2169 -2.17826 0
M  V30 1875 H 192.567 1.68783 -4.29313 0
M  V30 1876 H 190.81 1.52242 -4.06208 0
M  V30 1877 H 191.481 3.06921 -4.58807 0
M  V30 1878 H 193.957 3.19531 -2.66532 0
M  V30 1879 H 192.833 4.48577 -3.16339 0
M  V30 1880 H 193.094 4.17493 -1.45437 0
M  V30 1881 N 192.153 1.28127 0.917671 0
M  V30 1882 C 193.401 1.14825 1.66312 0
M  V30 1883 C 193.722 -0.304379 1.9261 0
M  V30 1884 O 192.992 -1.21149 1.53947 0
M  V30 1885 H 191.572 0.421953 0.616413 0
M  V30 1886 H 194.234 1.608 1.10134 0
M  V30 1887 H 193.33 1.68489 2.62712 0
M  V30 1888 N 193.631 -1.12557 1.10312 0
M  V30 1889 C 194.908 -1.80363 0.756878 0
M  V30 1890 C 195.288 -1.97067 -0.756824 0
M  V30 1891 O 194.636 -1.54601 -1.68259 0
M  V30 1892 C 194.846 -3.14812 1.50647 0
M  V30 1893 C 196.194 -3.90029 1.67817 0
M  V30 1894 O 197.218 -3.24464 1.46974 0
M  V30 1895 O 196.077 -5.07652 2.02365 0
M  V30 1896 H 193.171 -0.780667 0.272926 0
M  V30 1897 H 195.717 -1.19404 1.20586 0
M  V30 1898 H 194.489 -2.97936 2.53672 0
M  V30 1899 H 194.112 -3.83478 1.05026 0
M  V30 1900 N 195.109 -0.891671 -1.2995 0
M  V30 1901 C 196.525 -0.58662 -1.48428 0
M  V30 1902 C 196.725 0.873951 -1.81561 0
M  V30 1903 O 195.781 1.65471 -1.90724 0
M  V30 1904 C 197.094 -1.50553 -2.60296 0
M  V30 1905 C 198.642 -1.50988 -2.74175 0
M  V30 1906 C 199.117 -2.41488 -3.89163 0
M  V30 1907 N 200.608 -2.39489 -3.96483 0
M  V30 1908 C 201.343 -3.06223 -4.84784 0
M  V30 1909 N 200.839 -3.82206 -5.77833 0
M  V30 1910 N 202.632 -2.95421 -4.78208 0
M  V30 1911 H 194.783 -1.83644 -1.06718 0
M  V30 1912 H 197.046 -0.786455 -0.529332 0
M  V30 1913 H 196.752 -2.54581 -2.42654 0
M  V30 1914 H 196.626 -1.22008 -3.56923 0
M  V30 1915 H 199.013 -0.47708 -2.91218 0
M  V30 1916 H 199.094 -1.83567 -1.78148 0
M  V30 1917 H 198.738 -3.44857 -3.72876 0
M  V30 1918 H 198.668 -2.06222 -4.84541 0
M  V30 1919 H 201.159 -1.84278 -3.29924 0
M  V30 1920 H 201.472 -4.302 -6.41988 0
M  V30 1921 H 199.817 -3.86313 -5.77743 0
M  V30 1922 H 203.008 -2.35581 -4.04499 0
M  V30 1923 H 203.181 -3.47704 -5.46814 0
M  V30 1924 N 196.587 1.43421 -0.653314 0
M  V30 1925 C 197.497 2.34568 0.0388565 0
M  V30 1926 C 198.513 1.53888 0.81207 0
M  V30 1927 O 199.689 1.86539 0.759294 0
M  V30 1928 C 196.754 3.32167 0.993269 0
M  V30 1929 C 195.815 4.28751 0.216977 0
M  V30 1930 C 195.048 5.21688 1.12593 0
M  V30 1931 O 195.271 5.19052 2.36519 0
M  V30 1932 O 194.205 5.98919 0.598284 0
M  V30 1933 H 198.031 2.95251 -0.711386 0
M  V30 1934 H 195.616 1.43564 -0.413502 0
M  V30 1935 H 197.498 3.92183 1.54176 0
M  V30 1936 H 196.173 2.73987 1.72374 0
M  V30 1937 H 195.08 3.72215 -0.375101 0
M  V30 1938 H 196.413 4.89913 -0.473924 0
M  V30 1939 N 198.065 0.39524 1.52563 0
M  V30 1940 C 199.028 -0.425001 2.25225 0
M  V30 1941 C 200.028 -0.985266 1.27079 0
M  V30 1942 O 201.218 -0.866332 1.5113 0
M  V30 1943 C 198.35 -1.59686 3.01186 0
M  V30 1944 H 199.543 0.211233 2.99155 0
M  V30 1945 H 197.096 0.147472 1.55603 0
M  V30 1946 H 197.831 -2.27035 2.31572 0
M  V30 1947 H 197.616 -1.20176 3.73229 0
M  V30 1948 H 199.106 -2.17743 3.5634 0
M  V30 1949 N 199.544 -1.57102 0.125237 0
M  V30 1950 C 200.477 -2.11371 -0.860094 0
M  V30 1951 C 201.455 -1.03168 -1.25679 0
M  V30 1952 O 202.639 -1.30862 -1.35674 0
M  V30 1953 C 199.766 -2.61555 -2.1519 0
M  V30 1954 C 198.812 -3.81701 -1.9028 0
M  V30 1955 S 199.645 -5.23797 -1.11343 0
M  V30 1956 C 200.801 -5.77353 -2.41689 0
M  V30 1957 H 201.034 -2.94617 -0.39852 0
M  V30 1958 H 198.567 -1.54145 -0.0886555 0
M  V30 1959 H 200.525 -2.91122 -2.89411 0
M  V30 1960 H 199.186 -1.78479 -2.58465 0
M  V30 1961 H 198.379 -4.14985 -2.86014 0
M  V30 1962 H 197.981 -3.52783 -1.24178 0
M  V30 1963 H 200.273 -5.87458 -3.37489 0
M  V30 1964 H 201.216 -6.75323 -2.12942 0
M  V30 1965 H 201.624 -5.05457 -2.51342 0
M  V30 1966 N 201.022 0.148545 -1.56898 0
M  V30 1967 C 201.932 1.20293 -2.01412 0
M  V30 1968 C 202.948 1.47107 -0.929273 0
M  V30 1969 O 204.124 1.58807 -1.23863 0
M  V30 1970 C 201.189 2.51682 -2.38447 0
M  V30 1971 C 200.25 2.32529 -3.60872 0
M  V30 1972 C 199.483 3.57653 -3.96132 0
M  V30 1973 O 199.706 4.63771 -3.32073 0
M  V30 1974 O 198.64 3.50408 -4.89385 0
M  V30 1975 H 202.466 0.855025 -2.91416 0
M  V30 1976 H 200.051 0.357151 -1.45068 0
M  V30 1977 H 201.933 3.29147 -2.63135 0
M  V30 1978 H 200.608 2.86006 -1.51599 0
M  V30 1979 H 199.515 1.53019 -3.41373 0
M  V30 1980 H 200.848 2.03121 -4.48333 0
M  V30 1981 N 202.5 1.5196 0.417844 0
M  V30 1982 C 203.728 1.69426 1.18753 0
M  V30 1983 C 204.143 0.399955 1.84515 0
M  V30 1984 O 203.5 -0.623288 1.71527 0
M  V30 1985 C 203.551 2.82375 2.25714 0
M  V30 1986 O 203.272 4.06793 1.62638 0
M  V30 1987 C 204.773 3.11277 3.15628 0
M  V30 1988 H 201.993 0.568031 0.357186 0
M  V30 1989 H 204.537 1.98475 0.49273 0
M  V30 1990 H 202.692 2.5587 2.90877 0
M  V30 1991 H 203.106 4.69667 2.3348 0
M  V30 1992 H 204.58 3.93843 3.86771 0
M  V30 1993 H 205.057 2.24473 3.77503 0
M  V30 1994 H 205.663 3.39515 2.56144 0
M  V30 1995 N 203.978 -0.674533 1.42435 0
M  V30 1996 C 204.941 -1.76986 1.45632 0
M  V30 1997 C 205.941 -1.5708 0.343871 0
M  V30 1998 O 207.131 -1.63367 0.604709 0
M  V30 1999 C 204.263 -3.15623 1.28822 0
M  V30 2000 H 205.456 -1.75539 2.43158 0
M  V30 2001 H 203.009 -0.884189 1.28887 0
M  V30 2002 H 203.744 -3.22696 0.322193 0
M  V30 2003 H 203.529 -3.31475 2.09444 0
M  V30 2004 H 205.019 -3.95537 1.33942 0
M  V30 2005 N 205.456 -1.28612 -0.910864 0
M  V30 2006 C 206.684 -1.18792 -1.69399 0
M  V30 2007 C 207.099 0.253039 -1.87097 0
M  V30 2008 O 206.456 1.17071 -1.40003 0
M  V30 2009 C 206.507 -1.88511 -3.08457 0
M  V30 2010 O 206.228 -3.26979 -2.91576 0
M  V30 2011 C 207.729 -1.85029 -4.02839 0
M  V30 2012 H 204.949 -0.412233 -0.529438 0
M  V30 2013 H 207.493 -1.69788 -1.13984 0
M  V30 2014 H 205.648 -1.41379 -3.60681 0
M  V30 2015 H 206.062 -3.61936 -3.79608 0
M  V30 2016 H 207.536 -2.38395 -4.97867 0
M  V30 2017 H 208.013 -0.823303 -4.31414 0
M  V30 2018 H 208.619 -2.31853 -3.56545 0
M  V30 2019 N 206.934 1.1197 -1.10907 0
M  V30 2020 C 207.897 2.16031 -0.765707 0
M  V30 2021 C 208.897 1.59393 0.212235 0
M  V30 2022 O 210.087 1.74196 -0.0115441 0
M  V30 2023 C 207.219 3.40632 -0.135053 0
M  V30 2024 H 208.412 2.47919 -1.68748 0
M  V30 2025 H 205.965 1.27061 -0.910226 0
M  V30 2026 H 206.7 3.14348 0.797218 0
M  V30 2027 H 206.485 3.8302 -0.838937 0
M  V30 2028 H 207.975 4.17505 0.0892469 0
M  V30 2029 N 208.412 0.89855 1.29475 0
M  V30 2030 C 209.689 0.443416 1.90508 0
M  V30 2031 C 210.069 -1.07685 1.81569 0
M  V30 2032 O 209.417 -1.9182 1.24166 0
M  V30 2033 C 209.627 0.956708 3.35631 0
M  V30 2034 C 210.975 0.999728 4.12663 0
M  V30 2035 O 211.999 0.904299 3.4453 0
M  V30 2036 O 210.858 1.14289 5.34416 0
M  V30 2037 H 207.952 0.138025 0.815401 0
M  V30 2038 H 210.498 0.98834 1.37949 0
M  V30 2039 H 209.27 2.00067 3.36287 0
M  V30 2040 H 208.893 0.391728 3.95666 0
M  V30 2041 N 209.89 -1.43072 0.660911 0
M  V30 2042 C 210.82 -2.33497 -0.0122829 0
M  V30 2043 C 211.801 -1.49903 -0.803925 0
M  V30 2044 O 212.986 -1.78546 -0.763864 0
M  V30 2045 C 210.116 -3.33363 -0.973994 0
M  V30 2046 C 209.07 -4.27003 -0.291928 0
M  V30 2047 C 208.396 -5.16967 -1.36562 0
M  V30 2048 C 209.696 -5.15816 0.820462 0
M  V30 2049 H 211.39 -2.90038 0.742873 0
M  V30 2050 H 208.936 -1.39461 0.358688 0
M  V30 2051 H 210.889 -3.95524 -1.45392 0
M  V30 2052 H 209.613 -2.75095 -1.7604 0
M  V30 2053 H 208.272 -3.66217 0.167623 0
M  V30 2054 H 207.92 -4.55034 -2.14366 0
M  V30 2055 H 207.62 -5.80441 -0.914454 0
M  V30 2056 H 209.144 -5.82003 -1.84675 0
M  V30 2057 H 210.558 -5.71742 0.422366 0
M  V30 2058 H 208.955 -5.8805 1.19656 0
M  V30 2059 H 210.025 -4.55045 1.67518 0
M  V30 2060 N 211.368 -0.403325 -1.52352 0
M  V30 2061 C 212.615 0.174347 -2.01748 0
M  V30 2062 C 212.943 1.45636 -1.2892 0
M  V30 2063 O 212.198 1.9193 -0.382258 0
M  V30 2064 C 212.497 0.474665 -3.54234 0
M  V30 2065 C 212.163 -0.717458 -4.45155 0
M  V30 2066 C 210.825 -1.04447 -4.69728 0
M  V30 2067 C 213.177 -1.51432 -4.98716 0
M  V30 2068 C 210.505 -2.16963 -5.45109 0
M  V30 2069 C 212.857 -2.6302 -5.75329 0
M  V30 2070 C 211.521 -2.96213 -5.98175 0
M  V30 2071 H 210.791 0.0637981 -0.738248 0
M  V30 2072 H 213.438 -0.543553 -1.83624 0
M  V30 2073 H 211.743 1.27406 -3.70506 0
M  V30 2074 H 213.44 0.934496 -3.89959 0
M  V30 2075 H 210.03 -0.452596 -4.26204 0
M  V30 2076 H 214.214 -1.27491 -4.79645 0
M  V30 2077 H 209.47 -2.43034 -5.61021 0
M  V30 2078 H 213.644 -3.25158 -6.15829 0
M  V30 2079 H 211.271 -3.83516 -6.56368 0
M  V30 2080 N 212.846 1.57033 -0.133567 0
M  V30 2081 C 214.094 1.953 0.519848 0
M  V30 2082 C 214.415 1.01866 1.66278 0
M  V30 2083 O 213.685 0.0776513 1.95746 0
M  V30 2084 H 212.265 0.721091 0.195032 0
M  V30 2085 H 214.927 1.93809 -0.205921 0
M  V30 2086 H 214.023 2.98695 0.904854 0
M  V30 2087 N 214.325 -0.140222 1.56975 0
M  V30 2088 C 215.55 -0.870414 1.88251 0
M  V30 2089 C 215.975 -1.73637 0.723312 0
M  V30 2090 O 215.333 -1.78329 -0.32689 0
M  V30 2091 C 215.381 -1.69737 3.18154 0
M  V30 2092 O 214.485 -2.80229 3.02565 0
M  V30 2093 H 213.826 -0.242025 0.61832 0
M  V30 2094 H 216.356 -0.128999 2.04193 0
M  V30 2095 H 216.366 -2.09099 3.50345 0
M  V30 2096 H 215.041 -1.06152 4.02125 0
M  V30 2097 H 213.618 -2.44224 2.81796 0
M  V30 2098 N 215.803 -1.52179 -0.40978 0
M  V30 2099 C 216.751 -1.76086 -1.51975 0
M  V30 2100 C 217.745 -0.627964 -1.57331 0
M  V30 2101 O 218.951 -0.809993 -1.60745 0
M  V30 2102 H 215.326 -0.556829 -0.505416 0
M  V30 2103 H 217.297 -2.69077 -1.28996 0
M  V30 2104 C 216.046 -1.92799 -2.8935 0
M  V30 2105 H 215.369 -2.79392 -2.85972 0
M  V30 2106 H 216.809 -2.13527 -3.66309 0
M  V30 2107 C 215.268 -0.694923 -3.29655 0
M  V30 2108 O 215.798 0.13751 -4.01465 0
M  V30 2109 N 214.004 -0.53101 -2.85707 0
M  V30 2110 H 213.551 -1.20952 -2.27439 0
M  V30 2111 H 213.509 0.292718 -3.13034 0
M  V30 2112 N 217.281 0.66697 -1.42791 0
M  V30 2113 C 218.244 1.76211 -1.46568 0
M  V30 2114 C 219.244 1.56896 -0.352196 0
M  V30 2115 O 220.434 1.63044 -0.613364 0
M  V30 2116 C 217.566 3.14935 -1.30494 0
M  V30 2117 H 218.759 1.74247 -2.44086 0
M  V30 2118 H 216.312 0.877342 -1.29354 0
M  V30 2119 H 217.047 3.2252 -0.339301 0
M  V30 2120 H 216.832 3.30359 -2.11199 0
M  V30 2121 H 218.322 3.94821 -1.36038 0
M  V30 2122 N 218.759 1.29093 0.90403 0
M  V30 2123 C 220.008 1.16187 1.64874 0
M  V30 2124 C 220.321 -0.286742 1.93487 0
M  V30 2125 O 221.527 -0.537062 2.66135 0
M  V30 2126 C 219.983 2.03177 2.97064 0
M  V30 2127 C 219.591 3.52836 2.76062 0
M  V30 2128 C 221.335 1.98984 3.74974 0
M  V30 2129 C 219.242 4.31945 4.03952 0
M  V30 2130 H 218.172 0.431246 0.618501 0
M  V30 2131 H 220.823 1.53699 1.00243 0
M  V30 2132 H 219.205 1.5853 3.62883 0
M  V30 2133 H 220.379 4.05507 2.18863 0
M  V30 2134 H 218.694 3.58656 2.11553 0
M  V30 2135 H 221.291 2.55351 4.69787 0
M  V30 2136 H 221.634 0.968815 4.0487 0
M  V30 2137 H 222.167 2.41652 3.15989 0
M  V30 2138 H 218.906 5.34667 3.79225 0
M  V30 2139 H 218.426 3.84045 4.60727 0
M  V30 2140 H 220.105 4.42379 4.72133 0
M  V30 2141 N 220.237 -1.11381 1.11499 0
M  V30 2142 C 221.2 -2.15622 0.777153 0
M  V30 2143 C 222.2 -1.59504 -0.203779 0
M  V30 2144 O 223.39 -1.74188 0.020782 0
M  V30 2145 C 220.522 -3.40556 0.153116 0
M  V30 2146 H 221.715 -2.47021 1.70061 0
M  V30 2147 H 219.268 -1.26577 0.916952 0
M  V30 2148 H 220.003 -3.14767 -0.780536 0
M  V30 2149 H 219.788 -3.8257 0.859238 0
M  V30 2150 H 221.278 -4.17546 -0.0671044 0
M  V30 2151 N 221.715 -0.905404 -1.28997 0
M  V30 2152 C 223.126 -0.581953 -1.77398 0
M  V30 2153 C 223.477 0.902552 -1.74208 0
M  V30 2154 O 222.602 1.70584 -1.33154 0
M  V30 2155 C 223.197 -1.04961 -3.22131 0
M  V30 2156 C 221.756 -0.777229 -3.68288 0
M  V30 2157 C 220.903 -1.22109 -2.48967 0
M  V30 2158 H 223.854 -1.08754 -1.15578 0
M  V30 2159 H 223.875 -0.387387 -3.78523 0
M  V30 2160 H 223.387 -2.13008 -3.24421 0
M  V30 2161 H 221.488 0.290383 -3.71467 0
M  V30 2162 H 221.601 -1.37911 -4.58822 0
M  V30 2163 H 219.965 -0.639971 -2.46529 0
M  V30 2164 H 220.748 -2.30972 -2.53982 0
M  V30 2165 N 223.193 1.4272 -0.668489 0
M  V30 2166 C 224.423 2.05668 -0.196063 0
M  V30 2167 C 224.831 1.5028 1.14946 0
M  V30 2168 O 224.174 0.6348 1.72383 0
M  V30 2169 C 224.236 3.59469 -0.0468879 0
M  V30 2170 C 223.9 4.37518 -1.32012 0
M  V30 2171 C 224.897 4.68584 -2.25222 0
M  V30 2172 C 222.582 4.77266 -1.56596 0
M  V30 2173 C 224.576 5.38326 -3.41297 0
M  V30 2174 C 222.263 5.4675 -2.72962 0
M  V30 2175 C 223.261 5.77204 -3.65137 0
M  V30 2176 O 222.949 6.45264 -4.79468 0
M  V30 2177 H 222.681 0.669382 -0.0943599 0
M  V30 2178 H 225.235 1.83954 -0.913788 0
M  V30 2179 H 223.465 3.79817 0.726357 0
M  V30 2180 H 225.154 4.04071 0.384852 0
M  V30 2181 H 225.92 4.38382 -2.07477 0
M  V30 2182 H 221.799 4.52959 -0.857249 0
M  V30 2183 H 225.343 5.62014 -4.13263 0
M  V30 2184 H 221.24 5.76369 -2.90635 0
M  V30 2185 H 222.008 6.63753 -4.78931 0
M  V30 2186 N 224.671 0.411399 1.52136 0
M  V30 2187 C 225.918 -0.163645 2.01838 0
M  V30 2188 C 226.246 -1.4495 1.29691 0
M  V30 2189 O 225.501 -1.91725 0.392431 0
M  V30 2190 C 225.8 -0.455872 3.54481 0
M  V30 2191 C 225.466 0.741055 4.44769 0
M  V30 2192 C 224.128 1.06936 4.69167 0
M  V30 2193 C 226.48 1.54075 4.97906 0
M  V30 2194 C 223.808 2.19851 5.43951 0
M  V30 2195 C 226.16 2.66067 5.73926 0
M  V30 2196 C 224.824 2.99381 5.96596 0
M  V30 2197 H 224.094 -0.0598821 0.738576 0
M  V30 2198 H 226.741 0.553283 1.83333 0
M  V30 2199 H 225.046 -1.2544 3.71177 0
M  V30 2200 H 226.743 -0.913802 3.90449 0
M  V30 2201 H 223.333 0.475192 4.25958 0
M  V30 2202 H 227.517 1.30033 4.78963 0
M  V30 2203 H 222.773 2.46006 5.59724 0
M  V30 2204 H 226.947 3.28419 6.14096 0
M  V30 2205 H 224.574 3.86992 6.54325 0
M  V30 2206 N 226.149 -1.5696 0.141893 0
M  V30 2207 C 227.079 -2.19516 -0.795936 0
M  V30 2208 C 228.06 -1.14187 -1.26077 0
M  V30 2209 O 229.245 -1.42511 -1.31925 0
M  V30 2210 C 226.375 -2.81272 -2.03723 0
M  V30 2211 C 225.329 -3.92384 -1.70936 0
M  V30 2212 C 224.655 -4.41052 -3.02287 0
M  V30 2213 C 225.955 -5.13403 -0.959954 0
M  V30 2214 H 227.649 -2.98138 -0.274596 0
M  V30 2215 H 225.195 -1.43406 -0.130636 0
M  V30 2216 H 227.148 -3.237 -2.69808 0
M  V30 2217 H 225.872 -1.99973 -2.58221 0
M  V30 2218 H 224.531 -3.50566 -1.07232 0
M  V30 2219 H 224.179 -3.56582 -3.54765 0
M  V30 2220 H 223.879 -5.15993 -2.81114 0
M  V30 2221 H 225.403 -4.86146 -3.69451 0
M  V30 2222 H 226.817 -5.52706 -1.52279 0
M  V30 2223 H 225.214 -5.94073 -0.848357 0
M  V30 2224 H 226.284 -4.84875 0.0492434 0
M  V30 2225 N 227.627 0.131896 -1.57047 0
M  V30 2226 C 228.876 0.84044 -1.83356 0
M  V30 2227 C 229.189 1.81646 -0.725535 0
M  V30 2228 O 230.395 2.57025 -0.874659 0
M  V30 2229 C 228.851 1.54528 -3.25037 0
M  V30 2230 C 228.459 0.610902 -4.43815 0
M  V30 2231 C 230.203 2.23972 -3.60606 0
M  V30 2232 C 228.11 1.31823 -5.76521 0
M  V30 2233 H 227.04 0.317599 -0.683847 0
M  V30 2234 H 229.691 0.0931561 -1.83263 0
M  V30 2235 H 228.073 2.33873 -3.19561 0
M  V30 2236 H 229.247 -0.148407 -4.60561 0
M  V30 2237 H 227.562 0.0241016 -4.16393 0
M  V30 2238 H 230.159 2.77558 -4.57018 0
M  V30 2239 H 230.502 3.01173 -2.87403 0
M  V30 2240 H 231.035 1.51529 -3.6781 0
M  V30 2241 H 227.774 0.587771 -6.52859 0
M  V30 2242 H 227.294 2.04987 -5.63685 0
M  V30 2243 H 228.973 1.855 -6.19838 0
M  V30 2244 N 229.106 1.52395 0.401703 0
M  V30 2245 C 230.053 1.76268 1.48991 0
M  V30 2246 C 231.023 0.605386 1.54675 0
M  V30 2247 O 232.208 0.843742 1.7113 0
M  V30 2248 C 229.348 1.92592 2.86361 0
M  V30 2249 C 228.461 3.20259 2.89928 0
M  V30 2250 C 227.596 3.26972 4.18644 0
M  V30 2251 C 226.635 4.48812 4.16214 0
M  V30 2252 N 225.772 4.52877 5.36514 0
M  V30 2253 H 230.612 2.6914 1.27935 0
M  V30 2254 H 228.149 1.33355 0.620871 0
M  V30 2255 H 230.107 2.0004 3.66115 0
M  V30 2256 H 228.737 1.03093 3.05895 0
M  V30 2257 H 227.789 3.21945 2.02621 0
M  V30 2258 H 229.101 4.10056 2.83999 0
M  V30 2259 H 228.255 3.33533 5.06794 0
M  V30 2260 H 226.994 2.35126 4.27278 0
M  V30 2261 H 225.999 4.4239 3.26453 0
M  V30 2262 H 227.224 5.41961 4.09213 0
M  V30 2263 H 225.17 3.63917 5.45802 0
M  V30 2264 H 225.087 5.36529 5.32609 0
M  V30 2265 H 226.355 4.63676 6.26597 0
M  V30 2266 N 230.584 -0.659388 1.43143 0
M  V30 2267 C 231.547 -1.75432 1.47501 0
M  V30 2268 C 232.547 -1.56707 0.360512 0
M  V30 2269 O 233.737 -1.62717 0.622002 0
M  V30 2270 C 230.869 -3.14239 1.32162 0
M  V30 2271 H 232.062 -1.7295 2.45006 0
M  V30 2272 H 229.615 -0.870469 1.29817 0
M  V30 2273 H 230.35 -3.22336 0.356401 0
M  V30 2274 H 230.135 -3.29235 2.12948 0
M  V30 2275 H 231.625 -3.94094 1.3813 0
M  V30 2276 N 232.062 -1.29571 -0.897171 0
M  V30 2277 C 233.309 -1.17689 -1.6479 0
M  V30 2278 C 233.637 0.27107 -1.92602 0
M  V30 2279 O 232.892 1.21193 -1.53658 0
M  V30 2280 C 233.191 -1.9382 -3.00281 0
M  V30 2281 C 232.857 -3.43522 -2.92068 0
M  V30 2282 C 231.519 -3.84348 -2.89535 0
M  V30 2283 C 233.871 -4.38906 -2.81089 0
M  V30 2284 C 231.199 -5.18869 -2.73846 0
M  V30 2285 C 233.551 -5.73521 -2.66939 0
M  V30 2286 C 232.215 -6.13601 -2.62774 0
M  V30 2287 H 231.485 -0.430654 -0.603008 0
M  V30 2288 H 234.132 -1.60536 -1.04404 0
M  V30 2289 H 232.437 -1.4357 -3.64547 0
M  V30 2290 H 234.134 -1.82028 -3.57305 0
M  V30 2291 H 230.724 -3.11072 -2.94842 0
M  V30 2292 H 234.908 -4.08315 -2.82121 0
M  V30 2293 H 230.164 -5.4903 -2.69027 0
M  V30 2294 H 234.338 -6.47078 -2.57416 0
M  V30 2295 H 231.965 -7.17786 -2.50375 0
M  V30 2296 N 233.54 1.10788 -1.12088 0
M  V30 2297 C 234.503 2.15207 -0.788577 0
M  V30 2298 C 235.503 1.59609 0.195317 0
M  V30 2299 O 236.693 1.74174 -0.0300193 0
M  V30 2300 C 233.825 3.4047 -0.171174 0
M  V30 2301 H 235.018 2.46116 -1.71368 0
M  V30 2302 H 232.571 1.26089 -0.923652 0
M  V30 2303 H 233.306 3.15176 0.763832 0
M  V30 2304 H 233.091 3.82109 -0.879514 0
M  V30 2305 H 234.581 4.17576 0.04496 0
M  V30 2306 N 235.018 0.912232 1.28515 0
M  V30 2307 C 235.968 0.370649 2.24967 0
M  V30 2308 C 236.952 -0.516375 1.52389 0
M  V30 2309 O 238.144 -0.356345 1.73376 0
M  V30 2310 C 235.273 -0.389526 3.41083 0
M  V30 2311 C 234.359 0.51313 4.20984 0
M  V30 2312 N 234.75 1.62604 4.78951 0
M  V30 2313 C 233.048 0.313235 4.44899 0
M  V30 2314 C 233.749 2.18619 5.39055 0
M  V30 2315 N 232.725 1.47765 5.23132 0
M  V30 2316 H 236.527 1.22061 2.67354 0
M  V30 2317 H 234.041 0.764712 1.43269 0
M  V30 2318 H 236.038 -0.794353 4.09262 0
M  V30 2319 H 234.698 -1.2366 3.0023 0
M  V30 2320 H 235.709 2.00864 4.77362 0
M  V30 2321 H 232.386 -0.494452 4.14562 0
M  V30 2322 H 233.776 3.12228 5.94948 0
M  V30 2323 N 236.496 -1.42363 0.676048 0
M  V30 2324 C 237.912 -1.55811 0.345718 0
M  V30 2325 C 238.112 -1.65544 -1.14879 0
M  V30 2326 O 237.168 -1.62306 -1.93424 0
M  V30 2327 C 238.481 -2.80746 1.07713 0
M  V30 2328 C 240.029 -2.9452 1.05958 0
M  V30 2329 C 240.504 -4.22318 1.77233 0
M  V30 2330 N 241.995 -4.29233 1.74108 0
M  V30 2331 C 242.73 -5.26935 2.26113 0
M  V30 2332 N 242.226 -6.30783 2.86505 0
M  V30 2333 N 244.019 -5.18741 2.1648 0
M  V30 2334 H 236.17 -1.34289 1.6456 0
M  V30 2335 H 238.433 -0.646506 0.69335 0
M  V30 2336 H 238.139 -2.79696 2.13221 0
M  V30 2337 H 238.013 -3.71676 0.64316 0
M  V30 2338 H 240.4 -2.95097 0.0128255 0
M  V30 2339 H 240.481 -2.04817 1.53244 0
M  V30 2340 H 240.125 -4.22502 2.81877 0
M  V30 2341 H 240.055 -5.10958 1.27396 0
M  V30 2342 H 242.546 -3.54814 1.30059 0
M  V30 2343 H 242.859 -7.01691 3.23805 0
M  V30 2344 H 241.204 -6.31341 2.90575 0
M  V30 2345 H 244.395 -4.36533 1.68987 0
M  V30 2346 H 244.568 -5.94721 2.57316 0
M  V30 2347 N 237.974 -0.419461 -1.51915 0
M  V30 2348 C 239.221 0.152939 -2.01922 0
M  V30 2349 C 239.549 1.4426 -1.30458 0
M  V30 2350 O 238.804 1.91514 -0.402593 0
M  V30 2351 C 239.103 0.437067 -3.54717 0
M  V30 2352 C 238.769 -0.764632 -4.44369 0
M  V30 2353 C 237.431 -1.09423 -4.68594 0
M  V30 2354 C 239.783 -1.56713 -4.97082 0
M  V30 2355 C 237.111 -2.22732 -5.42777 0
M  V30 2356 C 239.463 -2.69107 -5.72507 0
M  V30 2357 C 238.127 -3.02541 -5.95 0
M  V30 2358 H 237.397 0.0559644 -0.738884 0
M  V30 2359 H 240.044 -0.562998 -1.83037 0
M  V30 2360 H 238.349 1.23469 -3.71837 0
M  V30 2361 H 240.046 0.893083 -3.90928 0
M  V30 2362 H 236.636 -0.497775 -4.257 0
M  V30 2363 H 240.82 -1.32571 -4.78266 0
M  V30 2364 H 236.076 -2.48971 -5.58411 0
M  V30 2365 H 240.25 -3.31671 -6.12346 0
M  V30 2366 H 237.877 -3.90457 -6.52264 0
M  V30 2367 N 239.452 1.56882 -0.150215 0
M  V30 2368 C 240.415 2.1573 0.774157 0
M  V30 2369 C 241.415 1.0999 1.17298 0
M  V30 2370 O 242.605 1.35613 1.09338 0
M  V30 2371 C 239.737 2.72302 2.05096 0
M  V30 2372 H 240.93 2.98752 0.262201 0
M  V30 2373 H 238.483 1.55985 0.099248 0
M  V30 2374 H 239.218 1.92956 2.6065 0
M  V30 2375 H 239.003 3.49665 1.77416 0
M  V30 2376 H 240.493 3.17632 2.71109 0
M  V30 2377 N 240.93 -0.123565 1.57115 0
M  V30 2378 C 242.178 -0.83051 1.84247 0
M  V30 2379 C 242.499 -1.80629 0.73471 0
M  V30 2380 O 241.769 -1.94403 -0.241688 0
M  V30 2381 H 240.349 -0.309694 0.679778 0
M  V30 2382 H 243.011 -0.111976 1.94578 0
M  V30 2383 H 242.107 -1.37852 2.80006 0
M  V30 2384 N 242.408 -1.52605 -0.393616 0
M  V30 2385 C 243.636 -1.71294 -1.16043 0
M  V30 2386 C 244.051 -0.429259 -1.83855 0
M  V30 2387 O 243.408 0.595921 -1.72496 0
M  V30 2388 C 243.459 -2.8593 -2.21193 0
M  V30 2389 O 243.18 -4.09329 -1.56146 0
M  V30 2390 C 244.681 -3.16259 -3.10636 0
M  V30 2391 H 241.901 -0.573641 -0.348104 0
M  V30 2392 H 244.445 -1.99234 -0.461092 0
M  V30 2393 H 242.6 -2.60465 -2.86769 0
M  V30 2394 H 243.014 -4.73323 -2.25978 0
M  V30 2395 H 244.488 -3.99946 -3.80456 0
M  V30 2396 H 244.965 -2.3045 -3.73884 0
M  V30 2397 H 245.571 -3.43547 -2.50711 0
M  V30 2398 N 243.887 0.651787 -1.4349 0
M  V30 2399 C 245.298 1.233 -1.40193 0
M  V30 2400 C 245.649 1.9591 -0.106727 0
M  V30 2401 O 244.774 2.01316 0.793773 0
M  V30 2402 C 245.369 2.24257 -2.53957 0
M  V30 2403 C 243.928 2.77852 -2.5392 0
M  V30 2404 C 243.075 1.52517 -2.3159 0
M  V30 2405 H 246.026 0.443717 -1.52371 0
M  V30 2406 H 246.047 3.0646 -2.25528 0
M  V30 2407 H 245.559 1.71382 -3.4821 0
M  V30 2408 H 243.66 3.34786 -1.63551 0
M  V30 2409 H 243.773 3.25299 -3.51735 0
M  V30 2410 H 242.137 1.79915 -1.80285 0
M  V30 2411 H 242.92 1.01574 -3.27929 0
M  V30 2412 N 245.365 1.30045 0.890287 0
M  V30 2413 C 246.328 1.15963 1.977 0
M  V30 2414 C 247.328 0.0923777 1.60534 0
M  V30 2415 O 248.518 0.340071 1.70848 0
M  V30 2416 C 245.65 0.775451 3.31963 0
M  V30 2417 H 246.843 2.12502 2.11619 0
M  V30 2418 H 244.396 1.13366 1.07601 0
M  V30 2419 H 245.131 -0.189671 3.23745 0
M  V30 2420 H 244.916 1.54668 3.60306 0
M  V30 2421 H 246.406 0.700251 4.11687 0
M  V30 2422 N 246.843 -1.10192 1.12674 0
M  V30 2423 C 247.79 -2.16606 0.796906 0
M  V30 2424 C 248.76 -1.64394 -0.237476 0
M  V30 2425 O 249.945 -1.90474 -0.111484 0
M  V30 2426 C 247.085 -3.44116 0.26043 0
M  V30 2427 C 246.198 -4.10268 1.35293 0
M  V30 2428 C 245.333 -5.25507 0.775621 0
M  V30 2429 C 244.372 -5.83567 1.84706 0
M  V30 2430 N 243.509 -6.90179 1.28829 0
M  V30 2431 H 248.349 -2.44163 1.70846 0
M  V30 2432 H 245.886 -1.19846 0.85295 0
M  V30 2433 H 247.844 -4.17143 -0.0686814 0
M  V30 2434 H 246.474 -3.16901 -0.614274 0
M  V30 2435 H 245.526 -3.35184 1.79877 0
M  V30 2436 H 246.838 -4.4946 2.16303 0
M  V30 2437 H 245.992 -6.05398 0.397327 0
M  V30 2438 H 244.731 -4.87656 -0.0656581 0
M  V30 2439 H 243.736 -5.02344 2.23452 0
M  V30 2440 H 244.961 -6.23482 2.69161 0
M  V30 2441 H 242.907 -6.54322 0.468881 0
M  V30 2442 H 242.824 -7.28097 2.03497 0
M  V30 2443 H 244.092 -7.73844 0.937311 0
M  V30 2444 N 248.321 -0.919034 -1.28029 0
M  V30 2445 C 249.271 -0.382574 -2.24767 0
M  V30 2446 C 250.255 0.508286 -1.52661 0
M  V30 2447 O 251.447 0.347145 -1.73562 0
M  V30 2448 C 248.576 0.371432 -3.41285 0
M  V30 2449 C 247.662 -0.535449 -4.20706 0
M  V30 2450 N 248.053 -1.65141 -4.78082 0
M  V30 2451 C 246.351 -0.336824 -4.44726 0
M  V30 2452 C 247.052 -2.21475 -5.37888 0
M  V30 2453 N 246.028 -1.50537 -5.22341 0
M  V30 2454 H 249.83 -1.23477 -2.66703 0
M  V30 2455 H 247.344 -0.772299 -1.42861 0
M  V30 2456 H 249.341 0.772638 -4.09678 0
M  V30 2457 H 248.001 1.22066 -3.00882 0
M  V30 2458 H 249.012 -2.03392 -4.7629 0
M  V30 2459 H 245.689 0.47246 -4.14818 0
M  V30 2460 H 247.079 -3.15379 -5.93284 0
M  V30 2461 N 249.799 1.42003 -0.683588 0
M  V30 2462 C 251.215 1.55625 -0.353976 0
M  V30 2463 C 251.415 1.66151 1.14 0
M  V30 2464 O 250.471 1.63329 1.92561 0
M  V30 2465 C 251.784 2.80171 -1.092 0
M  V30 2466 C 253.332 2.93954 -1.07518 0
M  V30 2467 C 253.807 4.21372 -1.79471 0
M  V30 2468 N 255.298 4.28303 -1.76381 0
M  V30 2469 C 256.033 5.25729 -2.28904 0
M  V30 2470 N 255.529 6.29254 -2.89846 0
M  V30 2471 N 257.322 5.17586 -2.19228 0
M  V30 2472 H 249.473 1.33415 -1.6527 0
M  V30 2473 H 251.736 0.64282 -0.696769 0
M  V30 2474 H 251.442 2.78561 -2.14701 0
M  V30 2475 H 251.316 3.7133 -0.662862 0
M  V30 2476 H 253.703 2.95086 -0.028475 0
M  V30 2477 H 253.784 2.04002 -1.54328 0
M  V30 2478 H 253.428 4.21001 -2.84114 0
M  V30 2479 H 253.358 5.10275 -1.30104 0
M  V30 2480 H 255.849 3.54119 -1.31939 0
M  V30 2481 H 256.162 6.99964 -3.27522 0
M  V30 2482 H 254.507 6.29791 -2.93919 0
M  V30 2483 H 257.698 4.35631 -1.71299 0
M  V30 2484 H 257.871 5.93348 -2.60466 0
M  V30 2485 N 251.277 0.427512 1.51691 0
M  V30 2486 C 252.525 -0.141948 2.01601 0
M  V30 2487 C 252.846 -1.44067 1.31414 0
M  V30 2488 O 252.116 -1.90763 0.445658 0
M  V30 2489 H 250.696 -0.0554468 0.744939 0
M  V30 2490 H 253.358 0.567968 1.86441 0
M  V30 2491 H 252.454 -0.324913 3.10404 0
M  V30 2492 N 252.755 -1.56801 0.158532 0
M  V30 2493 C 253.983 -2.00859 -0.496303 0
M  V30 2494 C 254.398 -1.03871 -1.57659 0
M  V30 2495 O 253.755 -0.0375165 -1.82461 0
M  V30 2496 C 253.806 -3.4479 -1.08638 0
M  V30 2497 O 253.527 -4.38072 -0.0492322 0
M  V30 2498 C 255.028 -4.04185 -1.8207 0
M  V30 2499 H 252.248 -0.65864 -0.128199 0
M  V30 2500 H 254.792 -2.02885 0.256506 0
M  V30 2501 H 252.947 -3.43579 -1.78975 0
M  V30 2502 H 253.361 -5.2227 -0.483102 0
M  V30 2503 H 254.835 -5.06857 -2.18633 0
M  V30 2504 H 255.312 -3.45549 -2.71095 0
M  V30 2505 H 255.918 -4.0906 -1.16405 0
M  V30 2506 N 254.233 0.115231 -1.57178 0
M  V30 2507 C 255.181 1.16014 -2.01602 0
M  V30 2508 C 256.175 1.42653 -0.913587 0
M  V30 2509 O 257.381 1.42571 -1.09879 0
M  V30 2510 H 253.756 0.391252 -0.642204 0
M  V30 2511 H 255.727 0.758998 -2.88586 0
M  V30 2512 C 254.476 2.47767 -2.4394 0
M  V30 2513 H 253.799 2.28108 -3.28339 0
M  V30 2514 H 255.239 3.19432 -2.78818 0
M  V30 2515 C 253.698 3.10617 -1.30455 0
M  V30 2516 O 254.228 3.96846 -0.622585 0
M  V30 2517 N 252.434 2.70553 -1.06064 0
M  V30 2518 H 251.981 2.00527 -1.61699 0
M  V30 2519 H 251.939 3.12934 -0.303284 0
M  V30 2520 N 255.711 1.52812 0.385517 0
M  V30 2521 C 256.941 1.71658 1.14966 0
M  V30 2522 C 257.349 0.436253 1.84102 0
M  V30 2523 O 256.692 -0.599313 1.73649 0
M  V30 2524 C 256.754 2.81309 2.23843 0
M  V30 2525 C 256.418 4.22313 1.74644 0
M  V30 2526 C 257.415 5.05352 1.22129 0
M  V30 2527 C 255.1 4.68648 1.80761 0
M  V30 2528 C 257.094 6.32807 0.763838 0
M  V30 2529 C 254.781 5.96086 1.34627 0
M  V30 2530 C 255.779 6.77996 0.825264 0
M  V30 2531 O 255.467 8.03045 0.370669 0
M  V30 2532 H 255.199 0.578022 0.350523 0
M  V30 2533 H 257.753 2.00263 0.456509 0
M  V30 2534 H 255.983 2.48133 2.96592 0
M  V30 2535 H 257.672 2.88524 2.85497 0
M  V30 2536 H 258.438 4.70736 1.16758 0
M  V30 2537 H 254.317 4.04979 2.20256 0
M  V30 2538 H 257.861 6.96689 0.356494 0
M  V30 2539 H 253.758 6.30205 1.39686 0
M  V30 2540 H 254.526 8.17021 0.491829 0
M  V30 2541 N 257.189 -0.644168 1.43834 0
M  V30 2542 C 258.414 -1.43642 1.49605 0
M  V30 2543 C 258.839 -1.8773 0.117913 0
M  V30 2544 O 258.197 -1.57938 -0.890239 0
M  V30 2545 C 258.245 -2.6416 2.45463 0
M  V30 2546 O 257.349 -3.63538 1.94714 0
M  V30 2547 H 256.69 -0.430329 0.50568 0
M  V30 2548 H 259.22 -0.787448 1.8884 0
M  V30 2549 H 259.23 -3.11864 2.63068 0
M  V30 2550 H 257.905 -2.31414 3.45572 0
M  V30 2551 H 256.482 -3.2273 1.86814 0
M  V30 2552 N 258.668 -1.30515 -0.883378 0
M  V30 2553 C 259.917 -1.18795 -1.63005 0
M  V30 2554 C 260.23 0.255923 -1.93919 0
M  V30 2555 O 261.436 0.494654 -2.66956 0
M  V30 2556 C 259.892 -2.07878 -2.93794 0
M  V30 2557 C 259.5 -3.57184 -2.70414 0
M  V30 2558 C 261.244 -2.04924 -3.71761 0
M  V30 2559 C 259.151 -4.38317 -3.97029 0
M  V30 2560 H 258.081 -0.441031 -0.611562 0
M  V30 2561 H 260.732 -1.55275 -0.977854 0
M  V30 2562 H 259.114 -1.64283 -3.60315 0
M  V30 2563 H 260.288 -4.08937 -2.12384 0
M  V30 2564 H 258.603 -3.61976 -2.0582 0
M  V30 2565 H 261.2 -2.62792 -4.65665 0
M  V30 2566 H 261.543 -1.0331 -4.03277 0
M  V30 2567 H 262.076 -2.46649 -3.12104 0
M  V30 2568 H 258.815 -5.40632 -3.70671 0
M  V30 2569 H 258.335 -3.91326 -4.54559 0
M  V30 2570 H 260.014 -4.49834 -4.65036 0
M  V30 2571 N 260.146 1.09593 -1.13257 0
M  V30 2572 C 261.395 1.81105 -0.887917 0
M  V30 2573 C 261.708 1.86563 0.587672 0
M  V30 2574 O 262.914 2.54367 0.949204 0
M  V30 2575 C 261.37 3.25338 -1.53895 0
M  V30 2576 C 260.978 3.28151 -3.04994 0
M  V30 2577 C 262.722 4.01617 -1.37492 0
M  V30 2578 C 260.629 4.66897 -3.6299 0
M  V30 2579 H 259.559 0.678661 -0.328534 0
M  V30 2580 H 262.21 1.23183 -1.36008 0
M  V30 2581 H 260.592 3.8331 -0.994446 0
M  V30 2582 H 261.766 2.79953 -3.66009 0
M  V30 2583 H 260.081 2.65361 -3.20893 0
M  V30 2584 H 262.678 5.04119 -1.78235 0
M  V30 2585 H 263.021 4.15072 -0.31957 0
M  V30 2586 H 263.554 3.50082 -1.88912 0
M  V30 2587 H 260.293 4.58643 -4.68323 0
M  V30 2588 H 259.813 5.15426 -3.06752 0
M  V30 2589 H 261.492 5.3587 -3.62563 0
M  V30 2590 N 261.624 0.925811 1.2754 0
M  V30 2591 C 262.572 0.413897 2.28888 0
M  V30 2592 C 263.566 -0.500779 1.61829 0
M  V30 2593 O 264.772 -0.38069 1.75928 0
M  V30 2594 H 261.147 0.115274 0.743112 0
M  V30 2595 H 263.118 1.28151 2.69481 0
M  V30 2596 C 261.867 -0.319792 3.46226 0
M  V30 2597 H 261.19 0.374846 3.98039 0
M  V30 2598 H 262.63 -0.642435 4.19105 0
M  V30 2599 C 261.089 -1.53209 3.00048 0
M  V30 2600 O 261.619 -2.6309 3.03557 0
M  V30 2601 N 259.825 -1.38326 2.55566 0
M  V30 2602 H 259.372 -0.489292 2.5291 0
M  V30 2603 H 259.33 -2.19564 2.25031 0
M  V30 2604 N 263.102 -1.41638 0.69111 0
M  V30 2605 C 264.035 -2.28183 -0.0274913 0
M  V30 2606 C 265.013 -1.41984 -0.792424 0
M  V30 2607 O 266.197 -1.71415 -0.784169 0
M  V30 2608 C 263.324 -3.22135 -1.04628 0
M  V30 2609 C 262.37 -4.24848 -0.375037 0
M  V30 2610 S 263.203 -5.28231 0.879321 0
M  V30 2611 C 264.359 -6.25748 -0.137983 0
M  V30 2612 H 264.592 -2.88782 0.706553 0
M  V30 2613 H 262.125 -1.46709 0.481222 0
M  V30 2614 H 264.083 -3.76797 -1.62894 0
M  V30 2615 H 262.744 -2.6064 -1.75287 0
M  V30 2616 H 261.937 -4.90837 -1.14433 0
M  V30 2617 H 261.539 -3.73758 0.134434 0
M  V30 2618 H 263.831 -6.70188 -0.992659 0
M  V30 2619 H 264.774 -7.06417 0.487867 0
M  V30 2620 H 265.182 -5.62363 -0.490762 0
M  V30 2621 N 264.58 -0.43555 -1.51462 0
M  V30 2622 C 265.826 0.131709 -2.02372 0
M  V30 2623 C 266.159 1.42516 -1.3192 0
M  V30 2624 O 265.434 1.89606 -0.433573 0
M  V30 2625 C 265.717 0.352301 -3.58373 0
M  V30 2626 C 265.57 -0.959676 -4.39443 0
M  V30 2627 C 266.889 1.12286 -4.25535 0
M  V30 2628 H 264.008 0.0463936 -0.735538 0
M  V30 2629 H 266.65 -0.574197 -1.81116 0
M  V30 2630 H 264.8 0.9536 -3.76615 0
M  V30 2631 H 266.472 -1.59482 -4.32855 0
M  V30 2632 H 264.715 -1.56468 -4.04599 0
M  V30 2633 H 265.386 -0.759394 -5.46752 0
M  V30 2634 H 267.862 0.613545 -4.11552 0
M  V30 2635 H 266.738 1.24598 -5.34571 0
M  V30 2636 H 266.999 2.15048 -3.86273 0
M  V30 2637 N 266.058 1.56714 -0.166846 0
M  V30 2638 C 267.335 1.88412 0.525373 0
M  V30 2639 C 267.715 1.07602 1.81618 0
M  V30 2640 O 267.063 0.168621 2.27877 0
M  V30 2641 C 267.273 3.40363 0.771613 0
M  V30 2642 C 268.621 4.10007 1.1036 0
M  V30 2643 O 269.645 3.45655 0.860304 0
M  V30 2644 O 268.504 5.2369 1.56239 0
M  V30 2645 H 265.598 0.781587 0.270278 0
M  V30 2646 H 268.144 1.68458 -0.204946 0
M  V30 2647 H 266.916 3.91046 -0.141093 0
M  V30 2648 H 266.539 3.65914 1.55541 0
M  V30 2649 N 267.536 -0.106894 1.57237 0
M  V30 2650 C 268.499 -1.11466 2.0027 0
M  V30 2651 C 269.499 -1.33623 0.894519 0
M  V30 2652 O 270.689 -1.29935 1.16028 0
M  V30 2653 C 267.821 -2.46646 2.35327 0
M  V30 2654 H 269.014 -0.744516 2.90512 0
M  V30 2655 H 266.567 -0.351576 1.52295 0
M  V30 2656 H 267.302 -2.88558 1.48003 0
M  V30 2657 H 267.087 -2.31915 3.16161 0
M  V30 2658 H 268.577 -3.19151 2.69318 0
M  V30 2659 N 269.014 -1.53014 -0.377408 0
M  V30 2660 C 269.947 -1.73382 -1.48371 0
M  V30 2661 C 270.925 -0.581879 -1.51832 0
M  V30 2662 O 272.109 -0.81307 -1.70063 0
M  V30 2663 C 269.236 -1.80192 -2.8679 0
M  V30 2664 C 268.282 -3.02056 -3.01105 0
M  V30 2665 S 269.115 -4.61811 -2.71093 0
M  V30 2666 C 270.271 -4.71453 -4.11683 0
M  V30 2667 H 270.504 -2.66946 -1.30872 0
M  V30 2668 H 268.037 -1.43453 -0.571012 0
M  V30 2669 H 269.995 -1.84802 -3.6655 0
M  V30 2670 H 268.656 -0.877008 -3.01608 0
M  V30 2671 H 267.849 -3.03396 -4.02451 0
M  V30 2672 H 267.451 -2.95498 -2.29253 0
M  V30 2673 H 269.743 -4.50781 -5.0577 0
M  V30 2674 H 270.686 -5.73487 -4.15353 0
M  V30 2675 H 271.094 -4.00189 -3.98132 0
M  V30 2676 N 270.492 0.636531 -1.44174 0
M  V30 2677 C 271.72 1.42353 -1.50144 0
M  V30 2678 C 272.135 1.88389 -0.124575 0
M  V30 2679 O 271.492 1.6051 0.868489 0
M  V30 2680 C 271.543 2.64744 -2.46156 0
M  V30 2681 O 271.264 2.20629 -3.7849 0
M  V30 2682 C 272.765 3.57929 -2.61537 0
M  V30 2683 H 269.985 0.436752 -0.5094 0
M  V30 2684 H 272.529 0.778933 -1.89084 0
M  V30 2685 H 270.684 3.25307 -2.10366 0
M  V30 2686 H 271.098 2.99938 -4.30276 0
M  V30 2687 H 272.572 4.40428 -3.32757 0
M  V30 2688 H 273.049 4.06382 -1.66585 0
M  V30 2689 H 273.655 3.03238 -2.98206 0
M  V30 2690 N 271.97 1.30982 0.876444 0
M  V30 2691 C 272.918 1.18006 2.00443 0
M  V30 2692 C 273.912 0.0898871 1.69161 0
M  V30 2693 O 275.118 0.251333 1.78237 0
M  V30 2694 H 271.493 0.365196 0.65737 0
M  V30 2695 H 273.464 2.13453 2.0852 0
M  V30 2696 C 272.213 0.897521 3.35916 0
M  V30 2697 H 271.536 1.7285 3.60504 0
M  V30 2698 H 272.976 0.846874 4.15456 0
M  V30 2699 C 271.435 -0.399674 3.34521 0
M  V30 2700 O 271.965 -1.41852 3.7582 0
M  V30 2701 N 270.171 -0.413893 2.87637 0
M  V30 2702 H 269.718 0.41571 2.54224 0
M  V30 2703 H 269.676 -1.28175 2.87086 0
M  V30 2704 N 273.449 -1.08991 1.13837 0
M  V30 2705 C 274.381 -2.15606 0.777612 0
M  V30 2706 C 275.394 -1.61533 -0.202739 0
M  V30 2707 O 276.583 -1.78491 0.0181055 0
M  V30 2708 C 273.683 -3.3864 0.132623 0
M  V30 2709 C 272.856 -4.22115 1.1462 0
M  V30 2710 C 271.915 -5.23564 0.526074 0
M  V30 2711 O 270.941 -5.56678 1.18735 0
M  V30 2712 N 272.143 -5.76266 -0.699866 0
M  V30 2713 H 274.908 -2.47159 1.69506 0
M  V30 2714 H 272.469 -1.24747 1.03198 0
M  V30 2715 H 274.461 -4.03626 -0.29459 0
M  V30 2716 H 273.031 -3.04938 -0.687849 0
M  V30 2717 H 272.251 -3.53199 1.75055 0
M  V30 2718 H 273.539 -4.74709 1.83109 0
M  V30 2719 H 272.937 -5.51585 -1.25581 0
M  V30 2720 H 271.494 -6.42963 -1.06968 0
M  V30 2721 N 274.927 -0.932562 -1.27047 0
M  V30 2722 C 276.338 -0.619451 -1.76124 0
M  V30 2723 C 276.689 0.865397 -1.76083 0
M  V30 2724 O 275.814 1.67722 -1.36742 0
M  V30 2725 C 276.409 -1.11771 -3.19832 0
M  V30 2726 C 274.968 -0.855174 -3.66557 0
M  V30 2727 C 274.115 -1.27362 -2.46321 0
M  V30 2728 H 277.066 -1.11181 -1.13245 0
M  V30 2729 H 277.087 -0.46759 -3.77616 0
M  V30 2730 H 276.599 -2.19842 -3.1983 0
M  V30 2731 H 274.7 0.211524 -3.71999 0
M  V30 2732 H 274.813 -1.47613 -4.55793 0
M  V30 2733 H 273.177 -0.692119 -2.45116 0
M  V30 2734 H 273.96 -2.36307 -2.49025 0
M  V30 2735 N 276.405 1.4127 -0.698611 0
M  V30 2736 C 277.335 2.33447 -0.049629 0
M  V30 2737 C 278.316 1.51982 0.763898 0
M  V30 2738 O 279.501 1.80509 0.716257 0
M  V30 2739 C 276.631 3.35828 0.885267 0
M  V30 2740 C 275.585 4.27627 0.178613 0
M  V30 2741 C 274.911 5.20406 1.22807 0
M  V30 2742 C 276.211 5.13459 -0.956933 0
M  V30 2743 H 277.905 2.87966 -0.81951 0
M  V30 2744 H 275.451 1.38461 -0.395538 0
M  V30 2745 H 277.404 3.9924 1.34854 0
M  V30 2746 H 276.128 2.79666 1.68685 0
M  V30 2747 H 274.787 3.65643 -0.26466 0
M  V30 2748 H 274.435 4.60558 2.02226 0
M  V30 2749 H 274.135 5.82661 0.760239 0
M  V30 2750 H 275.659 5.86695 1.69179 0
M  V30 2751 H 277.073 5.70421 -0.573805 0
M  V30 2752 H 275.47 5.8467 -1.35205 0
M  V30 2753 H 276.54 4.50443 -1.79524 0
M  V30 2754 N 277.883 0.443576 1.51229 0
M  V30 2755 C 278.813 -0.355142 2.30783 0
M  V30 2756 C 279.794 -1.0154 1.36468 0
M  V30 2757 O 280.979 -1.01785 1.65389 0
M  V30 2758 C 278.109 -1.45312 3.15439 0
M  V30 2759 C 277.063 -0.916002 4.18083 0
M  V30 2760 C 276.389 -2.1102 4.91299 0
M  V30 2761 C 277.689 0.0538602 5.22272 0
M  V30 2762 H 279.383 0.308767 2.97804 0
M  V30 2763 H 276.929 0.149937 1.43217 0
M  V30 2764 H 278.882 -2.01914 3.69876 0
M  V30 2765 H 277.606 -2.14541 2.46252 0
M  V30 2766 H 276.265 -0.372145 3.64706 0
M  V30 2767 H 275.913 -2.78882 4.18609 0
M  V30 2768 H 275.613 -1.75717 5.60712 0
M  V30 2769 H 277.137 -2.68164 5.48562 0
M  V30 2770 H 278.551 -0.422069 5.71744 0
M  V30 2771 H 276.948 0.319776 5.99247 0
M  V30 2772 H 278.018 0.98858 4.74716 0
M  V30 2773 N 279.361 -1.56624 0.175154 0
M  V30 2774 C 280.609 -1.96609 -0.467885 0
M  V30 2775 C 280.93 -1.06238 -1.63519 0
M  V30 2776 O 280.2 -0.129523 -1.95471 0
M  V30 2777 H 278.78 -0.726008 -0.175845 0
M  V30 2778 H 281.442 -1.93195 0.257234 0
M  V30 2779 H 280.538 -3.00989 -0.825342 0
M  V30 2780 N 280.839 0.0985539 -1.57292 0
M  V30 2781 C 282.069 0.815135 -1.8984 0
M  V30 2782 C 282.477 1.7297 -0.766679 0
M  V30 2783 O 281.82 1.81698 0.270483 0
M  V30 2784 C 281.882 1.6842 -3.17608 0
M  V30 2785 C 281.546 0.94182 -4.4719 0
M  V30 2786 C 282.543 0.273212 -5.19182 0
M  V30 2787 C 280.228 0.916927 -4.9386 0
M  V30 2788 C 282.222 -0.410361 -6.36078 0
M  V30 2789 C 279.909 0.229567 -6.10669 0
M  V30 2790 C 280.907 -0.432902 -6.81627 0
M  V30 2791 O 280.595 -1.10925 -7.9621 0
M  V30 2792 H 280.327 0.238501 -0.632529 0
M  V30 2793 H 282.881 0.0812659 -2.05239 0
M  V30 2794 H 281.111 2.46022 -2.98345 0
M  V30 2795 H 282.8 2.27704 -3.36015 0
M  V30 2796 H 283.566 0.283927 -4.84168 0
M  V30 2797 H 279.445 1.42201 -4.3852 0
M  V30 2798 H 282.989 -0.928013 -6.914 0
M  V30 2799 H 278.886 0.216686 -6.45136 0
M  V30 2800 H 279.654 -1.01579 -8.12172 0
M  V30 2801 N 282.317 1.53212 0.369288 0
M  V30 2802 C 283.545 1.73119 1.13303 0
M  V30 2803 C 283.96 0.458455 1.83149 0
M  V30 2804 O 283.317 -0.568403 1.73423 0
M  V30 2805 C 283.368 2.89413 2.16616 0
M  V30 2806 O 283.089 4.11761 1.49614 0
M  V30 2807 C 284.59 3.21161 3.05566 0
M  V30 2808 H 281.81 0.579107 0.338934 0
M  V30 2809 H 284.354 1.99942 0.429338 0
M  V30 2810 H 282.509 2.64994 2.82589 0
M  V30 2811 H 282.923 4.76858 2.18419 0
M  V30 2812 H 284.397 4.05949 3.74045 0
M  V30 2813 H 284.874 2.36369 3.70171 0
M  V30 2814 H 285.48 3.47492 2.45213 0
M  V30 2815 N 283.795 -0.628877 1.44509 0
M  V30 2816 C 285.044 -1.38437 1.4669 0
M  V30 2817 C 285.357 -1.95322 0.104272 0
M  V30 2818 O 286.563 -2.715 0.00362163 0
M  V30 2819 C 285.019 -2.50659 2.5826 0
M  V30 2820 C 284.627 -2.00277 4.0074 0
M  V30 2821 C 286.371 -3.27844 2.69664 0
M  V30 2822 C 284.278 -3.09854 5.0373 0
M  V30 2823 H 283.208 -0.520245 0.545766 0
M  V30 2824 H 285.859 -0.676313 1.70582 0
M  V30 2825 H 284.241 -3.2405 2.27612 0
M  V30 2826 H 285.415 -1.33736 4.40966 0
M  V30 2827 H 283.73 -1.35901 3.93599 0
M  V30 2828 H 286.327 -4.09534 3.43781 0
M  V30 2829 H 286.67 -3.77471 1.75559 0
M  V30 2830 H 287.203 -2.61543 2.99733 0
M  V30 2831 H 283.942 -2.65168 5.99472 0
M  V30 2832 H 283.462 -3.7503 4.68095 0
M  V30 2833 H 285.141 -3.74592 5.27532 0
M  V30 2834 N 285.273 -1.31445 -0.869486 0
M  V30 2835 C 286.503 -1.23942 -1.65294 0
M  V30 2836 C 286.911 0.197561 -1.88166 0
M  V30 2837 O 286.254 1.14019 -1.44033 0
M  V30 2838 C 286.316 -1.91385 -3.04322 0
M  V30 2839 C 285.98 -3.40726 -3.04557 0
M  V30 2840 C 286.977 -4.36464 -2.82481 0
M  V30 2841 C 284.662 -3.82425 -3.25663 0
M  V30 2842 C 286.656 -5.71876 -2.8149 0
M  V30 2843 C 284.343 -5.1795 -3.243 0
M  V30 2844 C 285.341 -6.12486 -3.02241 0
M  V30 2845 O 285.029 -7.45534 -3.00724 0
M  V30 2846 H 284.761 -0.429459 -0.522054 0
M  V30 2847 H 287.315 -1.73873 -1.0935 0
M  V30 2848 H 285.545 -1.36004 -3.61994 0
M  V30 2849 H 287.234 -1.77791 -3.64891 0
M  V30 2850 H 288 -4.05576 -2.65956 0
M  V30 2851 H 283.879 -3.09274 -3.41863 0
M  V30 2852 H 287.423 -6.45638 -2.64191 0
M  V30 2853 H 283.32 -5.48473 -3.40365 0
M  V30 2854 H 284.088 -7.54713 -3.16782 0
M  V30 2855 N 286.751 1.08385 -1.14413 0
M  V30 2856 C 287.979 1.84517 -0.936001 0
M  V30 2857 C 288.394 1.81626 0.515503 0
M  V30 2858 O 287.751 1.22008 1.35721 0
M  V30 2859 C 287.802 3.32049 -1.42918 0
M  V30 2860 O 287.523 3.34951 -2.82381 0
M  V30 2861 C 289.024 4.24986 -1.26103 0
M  V30 2862 H 286.244 0.582491 -0.333084 0
M  V30 2863 H 288.788 1.36885 -1.5193 0
M  V30 2864 H 286.943 3.7707 -0.888641 0
M  V30 2865 H 287.357 4.27048 -3.04517 0
M  V30 2866 H 288.831 5.26615 -1.6547 0
M  V30 2867 H 289.308 4.38726 -0.20392 0
M  V30 2868 H 289.914 3.85791 -1.79012 0
M  V30 2869 N 288.23 0.939286 1.26551 0
M  V30 2870 C 289.163 0.391702 2.24813 0
M  V30 2871 C 290.141 -0.518421 1.54114 0
M  V30 2872 O 291.325 -0.456299 1.82894 0
M  V30 2873 C 288.452 -0.437382 3.35864 0
M  V30 2874 C 287.498 0.410946 4.24516 0
M  V30 2875 S 288.331 1.83372 5.03125 0
M  V30 2876 C 289.487 1.01264 6.17654 0
M  V30 2877 H 289.72 1.22448 2.70913 0
M  V30 2878 H 287.253 0.742269 1.35387 0
M  V30 2879 H 289.211 -0.909837 4.0029 0
M  V30 2880 H 287.872 -1.24482 2.8838 0
M  V30 2881 H 287.065 -0.224191 5.03501 0
M  V30 2882 H 286.667 0.818014 3.64945 0
M  V30 2883 H 288.959 0.254023 6.77024 0
M  V30 2884 H 289.902 1.77589 6.85469 0
M  V30 2885 H 290.31 0.549532 5.61819 0
M  V30 2886 N 289.708 -1.40897 0.706093 0
M  V30 2887 C 290.671 -2.29131 0.0562841 0
M  V30 2888 C 291.671 -1.44901 -0.697166 0
M  V30 2889 O 292.861 -1.65926 -0.530484 0
M  V30 2890 C 289.993 -3.27957 -0.93043 0
M  V30 2891 H 291.186 -2.88091 0.833284 0
M  V30 2892 H 288.739 -1.4906 0.470192 0
M  V30 2893 H 289.474 -2.73997 -1.73482 0
M  V30 2894 H 289.259 -3.90124 -0.393166 0
M  V30 2895 H 290.749 -3.94049 -1.38256 0
M  V30 2896 N 291.186 -0.45159 -1.50991 0
M  V30 2897 C 292.133 0.352625 -2.2809 0
M  V30 2898 C 293.103 1.0044 -1.32291 0
M  V30 2899 O 294.288 1.02058 -1.6121 0
M  V30 2900 C 291.428 1.43983 -3.13629 0
M  V30 2901 C 290.541 0.804772 -4.24438 0
M  V30 2902 C 289.676 1.86822 -4.97263 0
M  V30 2903 C 288.715 1.21236 -5.99973 0
M  V30 2904 N 287.852 2.2178 -6.66152 0
M  V30 2905 H 292.692 -0.311186 -2.96371 0
M  V30 2906 H 290.229 -0.165308 -1.46168 0
M  V30 2907 H 292.187 2.08161 -3.61559 0
M  V30 2908 H 290.817 2.07307 -2.47434 0
M  V30 2909 H 289.869 0.0509129 -3.80366 0
M  V30 2910 H 291.181 0.286076 -4.97979 0
M  V30 2911 H 290.335 2.58628 -5.48813 0
M  V30 2912 H 289.074 2.42068 -4.23385 0
M  V30 2913 H 288.079 0.479828 -5.47702 0
M  V30 2914 H 289.304 0.667051 -6.75816 0
M  V30 2915 H 287.25 2.76079 -5.95077 0
M  V30 2916 H 287.167 1.74841 -7.35504 0
M  V30 2917 H 288.435 2.93026 -7.22327 0
M  V30 2918 N 292.664 1.56529 -0.183458 0
M  V30 2919 C 293.912 1.96855 0.457452 0
M  V30 2920 C 294.233 1.07104 1.62953 0
M  V30 2921 O 293.503 0.139887 1.954 0
M  V30 2922 H 292.083 0.72693 0.171992 0
M  V30 2923 H 294.745 1.93056 -0.267476 0
M  V30 2924 H 293.841 3.01423 0.809368 0
M  V30 2925 N 294.142 -0.090211 1.57342 0
M  V30 2926 C 295.105 -1.09335 2.01441 0
M  V30 2927 C 296.105 -1.32666 0.908641 0
M  V30 2928 O 297.295 -1.28697 1.174 0
M  V30 2929 C 294.427 -2.44136 2.3793 0
M  V30 2930 H 295.62 -0.713662 2.91285 0
M  V30 2931 H 293.173 -0.335404 1.52659 0
M  V30 2932 H 293.908 -2.86972 1.51055 0
M  V30 2933 H 293.693 -2.28548 3.18603 0
M  V30 2934 H 295.183 -3.16277 2.72688 0
M  V30 2935 N 295.62 -1.53406 -0.361157 0
M  V30 2936 C 296.55 -1.83136 -1.44857 0
M  V30 2937 C 297.531 -0.685174 -1.5569 0
M  V30 2938 O 298.716 -0.93544 -1.70186 0
M  V30 2939 C 295.846 -2.02522 -2.82138 0
M  V30 2940 C 294.8 -3.18302 -2.86126 0
M  V30 2941 C 294.126 -3.22989 -4.26125 0
M  V30 2942 C 295.426 -4.56796 -2.53248 0
M  V30 2943 H 297.12 -2.74201 -1.20226 0
M  V30 2944 H 294.666 -1.31938 -0.576922 0
M  V30 2945 H 296.619 -2.21904 -3.58241 0
M  V30 2946 H 295.343 -1.08172 -3.08166 0
M  V30 2947 H 294.002 -2.98747 -2.12475 0
M  V30 2948 H 293.65 -2.26267 -4.49235 0
M  V30 2949 H 293.35 -4.00781 -4.29708 0
M  V30 2950 H 294.874 -3.44559 -5.04094 0
M  V30 2951 H 296.288 -4.7631 -3.19064 0
M  V30 2952 H 294.685 -5.36862 -2.68141 0
M  V30 2953 H 295.755 -4.61606 -1.48484 0
M  V30 2954 N 297.098 0.621204 -1.44841 0
M  V30 2955 C 298.008 1.7612 -1.5498 0
M  V30 2956 C 299.024 1.68477 -0.434927 0
M  V30 2957 O 300.2 1.89076 -0.693693 0
M  V30 2958 C 297.265 3.1254 -1.50065 0
M  V30 2959 C 296.326 3.31741 -2.72482 0
M  V30 2960 C 295.559 4.61653 -2.67792 0
M  V30 2961 O 295.782 5.431 -1.74352 0
M  V30 2962 O 294.716 4.83271 -3.58794 0
M  V30 2963 H 298.542 1.70518 -2.51311 0
M  V30 2964 H 296.127 0.783643 -1.27198 0
M  V30 2965 H 298.009 3.93844 -1.49882 0
M  V30 2966 H 296.684 3.18663 -0.568806 0
M  V30 2967 H 295.591 2.50077 -2.7823 0
M  V30 2968 H 296.924 3.30486 -3.64746 0
M  V30 2969 N 298.576 1.31904 0.862503 0
M  V30 2970 C 299.824 1.21776 1.61292 0
M  V30 2971 C 300.145 -0.222413 1.93727 0
M  V30 2972 O 299.415 -1.1451 1.58947 0
M  V30 2973 H 297.995 0.447717 0.597962 0
M  V30 2974 H 300.657 1.65326 1.03215 0
M  V30 2975 H 299.753 1.7948 2.5533 0
M  V30 2976 N 300.054 -1.07777 1.14986 0
M  V30 2977 C 300.984 -2.16865 0.865557 0
M  V30 2978 C 301.965 -1.69123 -0.182083 0
M  V30 2979 O 303.15 -1.94164 -0.0373815 0
M  V30 2980 C 300.28 -3.45539 0.349313 0
M  V30 2981 C 299.234 -4.06708 1.33313 0
M  V30 2982 C 298.56 -5.30411 0.675918 0
M  V30 2983 C 299.86 -4.47241 2.69764 0
M  V30 2984 H 301.554 -2.40905 1.77778 0
M  V30 2985 H 299.1 -1.15781 0.856203 0
M  V30 2986 H 301.053 -4.21174 0.137983 0
M  V30 2987 H 299.777 -3.21072 -0.598362 0
M  V30 2988 H 298.436 -3.33112 1.53075 0
M  V30 2989 H 298.084 -5.02232 -0.277767 0
M  V30 2990 H 297.784 -5.72293 1.33244 0
M  V30 2991 H 299.308 -6.08755 0.474262 0
M  V30 2992 H 300.722 -5.14025 2.53873 0
M  V30 2993 H 299.119 -5.00062 3.3175 0
M  V30 2994 H 300.189 -3.58818 3.26156 0
M  V30 2995 N 301.532 -0.945985 -1.26051 0
M  V30 2996 C 302.76 -0.613025 -1.9761 0
M  V30 2997 C 303.175 0.813035 -1.70397 0
M  V30 2998 O 302.532 1.54274 -0.974979 0
M  V30 2999 C 302.583 -0.85159 -3.51326 0
M  V30 3000 O 302.304 -2.22157 -3.77595 0
M  V30 3001 C 303.805 -0.529831 -4.40122 0
M  V30 3002 H 301.025 -0.230593 -0.630133 0
M  V30 3003 H 303.569 -1.268 -1.60443 0
M  V30 3004 H 301.724 -0.243151 -3.86636 0
M  V30 3005 H 302.138 -2.2852 -4.721 0
M  V30 3006 H 303.612 -0.747348 -5.46917 0
M  V30 3007 H 304.089 0.535341 -4.35925 0
M  V30 3008 H 304.695 -1.11721 -4.10364 0
M  V30 3009 N 303.011 1.40521 -0.713556 0
M  V30 3010 C 304.427 1.54839 -0.386907 0
M  V30 3011 C 304.627 1.68532 1.1045 0
M  V30 3012 O 303.683 1.67377 1.89053 0
M  V30 3013 C 304.996 2.77792 -1.15118 0
M  V30 3014 C 306.544 2.91607 -1.13729 0
M  V30 3015 C 307.019 4.1747 -1.88368 0
M  V30 3016 N 308.51 4.24466 -1.85427 0
M  V30 3017 C 309.245 5.20755 -2.40004 0
M  V30 3018 N 308.741 6.22965 -3.03129 0
M  V30 3019 N 310.534 5.1282 -2.30158 0
M  V30 3020 H 302.685 1.29879 -1.68063 0
M  V30 3021 H 304.948 0.627896 -0.710247 0
M  V30 3022 H 304.654 2.73944 -2.20561 0
M  V30 3023 H 304.528 3.6984 -0.741477 0
M  V30 3024 H 306.915 2.94959 -0.0910608 0
M  V30 3025 H 306.996 2.00682 -1.5862 0
M  V30 3026 H 306.64 4.1488 -2.9298 0
M  V30 3027 H 306.57 5.074 -1.40898 0
M  V30 3028 H 309.061 3.51241 -1.3942 0
M  V30 3029 H 309.374 6.92859 -3.42295 0
M  V30 3030 H 307.719 6.23415 -3.07212 0
M  V30 3031 H 310.91 4.31899 -1.80501 0
M  V30 3032 H 311.083 5.87689 -2.72993 0
M  V30 3033 N 304.489 0.459591 1.5075 0
M  V30 3034 C 305.714 -0.0996819 2.0716 0
M  V30 3035 C 306.139 -1.33761 1.32249 0
M  V30 3036 O 305.497 -1.77551 0.366786 0
M  V30 3037 C 305.545 -0.378226 3.58611 0
M  V30 3038 O 304.649 -1.46081 3.85661 0
M  V30 3039 H 303.99 0.00791392 0.663953 0
M  V30 3040 H 306.52 0.647329 1.9409 0
M  V30 3041 H 306.53 -0.622135 4.03229 0
M  V30 3042 H 305.205 0.526439 4.12555 0
M  V30 3043 H 303.782 -1.20511 3.5289 0
M  V30 3044 N 305.967 -1.56429 0.191757 0
M  V30 3045 C 306.93 -2.17707 -0.716688 0
M  V30 3046 C 307.93 -1.13061 -1.14341 0
M  V30 3047 O 309.12 -1.38464 -1.05704 0
M  V30 3048 C 306.252 -2.77644 -1.97804 0
M  V30 3049 H 307.445 -2.99342 -0.1829 0
M  V30 3050 H 304.998 -1.56193 -0.0578566 0
M  V30 3051 H 305.733 -1.99799 -2.55443 0
M  V30 3052 H 305.518 -3.54246 -1.68083 0
M  V30 3053 H 307.008 -3.24708 -2.62592 0
M  V30 3054 N 307.445 0.0818655 -1.57387 0
M  V30 3055 C 308.408 1.08265 -2.02018 0
M  V30 3056 C 309.408 1.32183 -0.915664 0
M  V30 3057 O 310.598 1.28073 -1.18081 0
M  V30 3058 C 307.73 2.42871 -2.39221 0
M  V30 3059 H 308.923 0.698204 -2.91659 0
M  V30 3060 H 306.476 0.327303 -1.52835 0
M  V30 3061 H 307.211 2.86167 -1.52575 0
M  V30 3062 H 306.996 2.26855 -3.19811 0
M  V30 3063 H 308.486 3.14826 -2.74362 0
M  V30 3064 N 308.923 1.53595 0.353017 0
M  V30 3065 C 309.853 1.83902 1.43883 0
M  V30 3066 C 310.834 0.693421 1.55324 0
M  V30 3067 O 312.019 0.944452 1.69687 0
M  V30 3068 C 309.149 2.04016 2.8106 0
M  V30 3069 C 308.103 3.19814 2.84434 0
M  V30 3070 C 307.429 3.25244 4.24406 0
M  V30 3071 C 308.729 4.58133 2.50822 0
M  V30 3072 H 310.423 2.74835 1.1877 0
M  V30 3073 H 307.969 1.32242 0.569917 0
M  V30 3074 H 309.922 2.238 3.57059 0
M  V30 3075 H 308.646 1.09804 3.07588 0
M  V30 3076 H 307.305 2.9987 2.10887 0
M  V30 3077 H 306.953 2.28646 4.48029 0
M  V30 3078 H 306.653 4.03054 4.27576 0
M  V30 3079 H 308.177 3.47228 5.0226 0
M  V30 3080 H 309.591 4.77995 3.16534 0
M  V30 3081 H 307.988 5.38276 2.6529 0
M  V30 3082 H 309.058 4.62387 1.46034 0
M  V30 3083 N 310.401 -0.613514 1.45168 0
M  V30 3084 C 311.311 -1.75296 1.55912 0
M  V30 3085 C 312.327 -1.68244 0.443856 0
M  V30 3086 O 313.503 -1.88706 0.70371 0
M  V30 3087 C 310.568 -3.1174 1.5172 0
M  V30 3088 C 309.629 -3.30291 2.74238 0
M  V30 3089 C 308.862 -4.60226 2.70236 0
M  V30 3090 O 309.085 -5.42168 1.77229 0
M  V30 3091 O 308.019 -4.81361 3.61352 0
M  V30 3092 H 311.845 -1.69183 2.52212 0
M  V30 3093 H 309.43 -0.776886 1.27612 0
M  V30 3094 H 311.312 -3.93044 1.51968 0
M  V30 3095 H 309.987 -3.18357 0.585697 0
M  V30 3096 H 308.894 -2.48598 2.79553 0
M  V30 3097 H 310.227 -3.28547 3.66494 0
M  V30 3098 N 311.879 -1.3236 -0.855495 0
M  V30 3099 C 312.809 -1.23833 -1.97958 0
M  V30 3100 C 313.79 -0.122361 -1.69659 0
M  V30 3101 O 314.975 -0.30939 -1.9172 0
M  V30 3102 C 312.105 -0.959772 -3.33775 0
M  V30 3103 C 311.059 -2.03689 -3.76424 0
M  V30 3104 C 310.385 -1.61075 -5.09862 0
M  V30 3105 C 311.685 -3.4518 -3.9198 0
M  V30 3106 H 313.379 -2.1788 -2.0535 0
M  V30 3107 H 310.925 -1.04891 -0.986605 0
M  V30 3108 H 312.878 -0.886678 -4.11966 0
M  V30 3109 H 311.602 0.0163404 -3.26596 0
M  V30 3110 H 310.261 -2.10012 -3.00484 0
M  V30 3111 H 309.909 -0.622107 -4.99138 0
M  V30 3112 H 309.609 -2.33143 -5.39368 0
M  V30 3113 H 311.133 -1.55201 -5.90546 0
M  V30 3114 H 312.547 -3.4145 -4.60526 0
M  V30 3115 H 310.944 -4.1559 -4.32903 0
M  V30 3116 H 312.014 -3.84903 -2.94919 0
M  V30 3117 N 313.357 1.07166 -1.15556 0
M  V30 3118 C 314.32 2.12589 -0.856644 0
M  V30 3119 C 315.32 1.6015 0.14444 0
M  V30 3120 O 316.51 1.7399 -0.0854163 0
M  V30 3121 C 313.642 3.39753 -0.279405 0
M  V30 3122 H 314.835 2.40539 -1.79112 0
M  V30 3123 H 312.388 1.23086 -0.963298 0
M  V30 3124 H 313.123 3.17447 0.663174 0
M  V30 3125 H 312.908 3.79117 -1.00063 0
M  V30 3126 H 314.398 4.17507 -0.0879113 0
M  V30 3127 N 314.835 0.952656 1.25548 0
M  V30 3128 C 316.246 0.647392 1.75116 0
M  V30 3129 C 316.597 -0.837274 1.77438 0
M  V30 3130 O 315.722 -1.65525 1.39393 0
M  V30 3131 C 316.317 1.16845 3.18014 0
M  V30 3132 C 314.876 0.913382 3.6515 0
M  V30 3133 C 314.023 1.31265 2.44264 0
M  V30 3134 H 316.974 1.12968 1.11462 0
M  V30 3135 H 316.995 0.527606 3.76824 0
M  V30 3136 H 316.507 2.24902 3.16292 0
M  V30 3137 H 314.608 -0.152316 3.72289 0
M  V30 3138 H 314.721 1.54845 4.53387 0
M  V30 3139 H 313.085 0.731028 2.43984 0
M  V30 3140 H 313.868 2.40239 2.45234 0
M  V30 3141 N 316.313 -1.40141 0.720998 0
M  V30 3142 C 317.243 -2.33339 0.0867621 0
M  V30 3143 C 318.224 -1.53178 -0.739622 0
M  V30 3144 O 319.409 -1.81625 -0.687449 0
M  V30 3145 C 316.539 -3.37194 -0.831728 0
M  V30 3146 C 315.493 -4.27857 -0.110558 0
M  V30 3147 C 314.819 -5.22294 -1.14513 0
M  V30 3148 C 316.119 -5.11872 1.0385 0
M  V30 3149 H 317.813 -2.86626 0.865219 0
M  V30 3150 H 315.359 -1.37814 0.417516 0
M  V30 3151 H 317.312 -4.01335 -1.28485 0
M  V30 3152 H 316.036 -2.82314 -1.64214 0
M  V30 3153 H 314.695 -3.65176 0.322797 0
M  V30 3154 H 314.343 -4.63717 -1.94874 0
M  V30 3155 H 314.043 -5.83797 -0.667446 0
M  V30 3156 H 315.567 -5.89312 -1.59824 0
M  V30 3157 H 316.981 -5.69436 0.664482 0
M  V30 3158 H 315.378 -5.82445 1.4449 0
M  V30 3159 H 316.448 -4.4753 1.86668 0
M  V30 3160 N 317.792 -0.46758 -1.50504 0
M  V30 3161 C 318.724 0.364655 -2.26281 0
M  V30 3162 C 319.737 0.960151 -1.31472 0
M  V30 3163 O 320.926 0.849153 -1.57008 0
M  V30 3164 C 318.026 1.52509 -3.02645 0
M  V30 3165 C 317.199 1.04302 -4.24782 0
M  V30 3166 C 316.258 2.07709 -4.8347 0
M  V30 3167 O 315.284 1.65913 -5.44483 0
M  V30 3168 N 316.486 3.40485 -4.70159 0
M  V30 3169 H 319.251 -0.28495 -2.98342 0
M  V30 3170 H 316.812 -0.298163 -1.59131 0
M  V30 3171 H 318.804 2.21371 -3.38787 0
M  V30 3172 H 317.374 2.07945 -2.33404 0
M  V30 3173 H 316.594 0.180393 -3.93787 0
M  V30 3174 H 317.882 0.698798 -5.03978 0
M  V30 3175 H 317.28 3.77155 -4.21629 0
M  V30 3176 H 315.837 4.05156 -5.1058 0
M  V30 3177 N 319.27 1.56325 -0.20005 0
M  V30 3178 C 320.519 1.96895 0.437652 0
M  V30 3179 C 320.832 1.08999 1.62415 0
M  V30 3180 O 322.038 1.39372 2.32997 0
M  V30 3181 C 320.494 3.50198 0.830025 0
M  V30 3182 C 320.102 4.46765 -0.332461 0
M  V30 3183 C 321.846 3.99526 1.43453 0
M  V30 3184 C 319.753 5.91344 0.0811468 0
M  V30 3185 H 318.683 0.735209 0.167282 0
M  V30 3186 H 321.334 1.81148 -0.292853 0
M  V30 3187 H 319.716 3.61467 1.61734 0
M  V30 3188 H 320.89 4.47231 -1.11 0
M  V30 3189 H 319.205 4.07657 -0.848789 0
M  V30 3190 H 321.802 5.05025 1.75652 0
M  V30 3191 H 322.145 3.44122 2.34277 0
M  V30 3192 H 322.678 3.91393 0.71109 0
M  V30 3193 H 319.417 6.50685 -0.793033 0
M  V30 3194 H 318.937 5.94121 0.823445 0
M  V30 3195 H 320.616 6.44945 0.515252 0
M  V30 3196 N 320.748 -0.0735177 1.57428 0
M  V30 3197 C 322.164 -0.428264 1.53747 0
M  V30 3198 C 322.364 -1.79272 0.91998 0
M  V30 3199 O 321.42 -2.47051 0.521745 0
M  V30 3200 C 322.733 -0.370914 2.98404 0
M  V30 3201 C 324.281 -0.451224 3.0973 0
M  V30 3202 C 324.756 -0.4238 4.56035 0
M  V30 3203 N 326.247 -0.483925 4.60665 0
M  V30 3204 C 326.982 -0.484891 5.71346 0
M  V30 3205 N 326.478 -0.440775 6.91396 0
M  V30 3206 N 328.271 -0.531319 5.59583 0
M  V30 3207 H 320.422 0.819949 1.95935 0
M  V30 3208 H 322.685 0.307493 0.896745 0
M  V30 3209 H 322.391 0.564956 3.47133 0
M  V30 3210 H 322.265 -1.18176 3.5821 0
M  V30 3211 H 324.652 -1.37752 2.60976 0
M  V30 3212 H 324.733 0.388167 2.52838 0
M  V30 3213 H 324.377 0.498638 5.05446 0
M  V30 3214 H 324.307 -1.2807 5.10789 0
M  V30 3215 H 326.798 -0.522338 3.74273 0
M  V30 3216 H 327.111 -0.44539 7.71515 0
M  V30 3217 H 325.456 -0.40749 6.93804 0
M  V30 3218 H 328.647 -0.563464 4.64696 0
M  V30 3219 H 328.82 -0.528603 6.4584 0
M  V30 3220 N 322.226 -1.5378 -0.344866 0
M  V30 3221 C 323.472 -1.71216 -1.08687 0
M  V30 3222 C 323.805 -0.473281 -1.88345 0
M  V30 3223 O 323.08 0.52968 -1.87149 0
M  V30 3224 C 323.363 -2.97486 -2.02914 0
M  V30 3225 C 323.216 -4.31579 -1.26727 0
M  V30 3226 C 324.535 -3.19422 -3.0275 0
M  V30 3227 H 321.654 -0.62301 -0.393735 0
M  V30 3228 H 324.296 -1.8645 -0.365563 0
M  V30 3229 H 322.446 -2.84629 -2.64421 0
M  V30 3230 H 324.118 -4.56284 -0.67845 0
M  V30 3231 H 322.361 -4.30049 -0.569273 0
M  V30 3232 H 323.032 -5.16106 -1.95803 0
M  V30 3233 H 325.508 -3.316 -2.51357 0
M  V30 3234 H 324.384 -4.09169 -3.65885 0
M  V30 3235 H 324.645 -2.35656 -3.74057 0
M  V30 3236 N 323.704 0.605807 -1.45491 0
M  V30 3237 C 324.652 1.73754 -1.54636 0
M  V30 3238 C 325.646 1.64207 -0.416219 0
M  V30 3239 O 326.852 1.69979 -0.592199 0
M  V30 3240 H 323.227 0.574073 -0.485741 0
M  V30 3241 H 325.198 1.63169 -2.49837 0
M  V30 3242 C 323.947 3.12135 -1.53189 0
M  V30 3243 H 323.27 3.20141 -2.39478 0
M  V30 3244 H 324.71 3.91147 -1.63645 0
M  V30 3245 C 323.169 3.35921 -0.256616 0
M  V30 3246 O 323.699 3.96194 0.662798 0
M  V30 3247 N 321.905 2.90204 -0.151751 0
M  V30 3248 H 321.452 2.41336 -0.90081 0
M  V30 3249 H 321.41 3.06492 0.700699 0
M  V30 3250 N 325.182 1.32811 0.848464 0
M  V30 3251 C 326.43 1.23479 1.59991 0
M  V30 3252 C 326.751 -0.201853 1.93952 0
M  V30 3253 O 326.021 -1.12818 1.60153 0
M  V30 3254 H 324.601 0.454034 0.593179 0
M  V30 3255 H 327.263 1.66412 1.01455 0
M  V30 3256 H 326.359 1.82178 2.53412 0
M  V30 3257 N 326.66 -1.06551 1.16123 0
M  V30 3258 C 327.906 -1.79567 0.94252 0
M  V30 3259 C 328.239 -1.86869 -0.528547 0
M  V30 3260 O 327.514 -1.35838 -1.39206 0
M  V30 3261 C 327.797 -3.24195 1.56747 0
M  V30 3262 C 327.65 -3.24989 3.10969 0
M  V30 3263 C 328.969 -4.21678 1.25998 0
M  V30 3264 H 326.088 -0.651883 0.343828 0
M  V30 3265 H 328.73 -1.2463 1.43413 0
M  V30 3266 H 326.88 -3.71107 1.14942 0
M  V30 3267 H 328.552 -2.86258 3.61737 0
M  V30 3268 H 326.795 -2.63716 3.44436 0
M  V30 3269 H 327.466 -4.27005 3.49815 0
M  V30 3270 H 329.942 -3.83196 1.62174 0
M  V30 3271 H 328.818 -5.21146 1.7233 0
M  V30 3272 H 329.079 -4.4174 0.178367 0
M  V30 3273 N 328.138 -0.959301 -1.25041 0
M  V30 3274 C 329.386 -0.615393 -1.92503 0
M  V30 3275 C 329.707 0.850969 -1.75452 0
M  V30 3276 O 328.977 1.60658 -1.12098 0
M  V30 3277 H 327.557 -0.224613 -0.712431 0
M  V30 3278 H 330.219 -1.21855 -1.5211 0
M  V30 3279 H 329.315 -0.848738 -3.00338 0
M  V30 3280 N 329.616 1.39756 -0.72842 0
M  V30 3281 C 331.027 1.83498 -0.344289 0
M  V30 3282 C 331.378 1.60868 1.12321 0
M  V30 3283 O 330.503 1.09634 1.86573 0
M  V30 3284 C 331.098 3.33114 -0.618112 0
M  V30 3285 C 329.657 3.753 -0.287549 0
M  V30 3286 C 328.804 2.62831 -0.884048 0
M  V30 3287 H 331.755 1.28842 -0.926578 0
M  V30 3288 H 331.776 3.80334 0.112349 0
M  V30 3289 H 331.288 3.49553 -1.68625 0
M  V30 3290 H 329.389 3.64451 0.775012 0
M  V30 3291 H 329.502 4.72945 -0.765512 0
M  V30 3292 H 327.866 2.52792 -0.311149 0
M  V30 3293 H 328.649 2.82078 -1.95671 0
M  V30 3294 N 331.094 0.475555 1.50254 0
M  V30 3295 C 332.342 -0.077738 2.0195 0
M  V30 3296 C 332.663 -1.39813 1.35931 0
M  V30 3297 O 331.933 -1.89249 0.506123 0
M  V30 3298 H 330.513 -0.031719 0.746326 0
M  V30 3299 H 333.175 0.626995 1.84539 0
M  V30 3300 H 332.271 -0.225995 3.11281 0
M  V30 3301 N 332.573 -1.56217 0.208337 0
M  V30 3302 C 333.503 -2.22694 -0.702116 0
M  V30 3303 C 334.484 -1.19432 -1.2112 0
M  V30 3304 O 335.669 -1.47978 -1.25762 0
M  V30 3305 C 332.799 -2.8966 -1.9161 0
M  V30 3306 C 331.753 -3.9928 -1.5414 0
M  V30 3307 C 331.079 -4.53476 -2.83308 0
M  V30 3308 C 332.379 -5.17012 -0.741339 0
M  V30 3309 H 334.073 -2.99034 -0.147898 0
M  V30 3310 H 331.619 -1.43831 -0.0696951 0
M  V30 3311 H 333.572 -3.34852 -2.55836 0
M  V30 3312 H 332.296 -2.10746 -2.49507 0
M  V30 3313 H 330.955 -3.54799 -0.922668 0
M  V30 3314 H 330.603 -3.71308 -3.39322 0
M  V30 3315 H 330.303 -5.27451 -2.58976 0
M  V30 3316 H 331.827 -5.01378 -3.485 0
M  V30 3317 H 333.241 -5.58667 -1.28699 0
M  V30 3318 H 331.638 -5.97137 -0.595627 0
M  V30 3319 H 332.708 -4.8423 0.254851 0
M  V30 3320 N 334.051 0.0651679 -1.57465 0
M  V30 3321 C 335.276 0.779605 -1.9219 0
M  V30 3322 C 335.701 1.69988 -0.805333 0
M  V30 3323 O 335.059 1.79685 0.241435 0
M  V30 3324 C 335.107 1.54364 -3.2589 0
M  V30 3325 O 334.211 2.65474 -3.1559 0
M  V30 3326 H 333.552 0.212249 -0.629163 0
M  V30 3327 H 336.082 0.0314294 -2.04576 0
M  V30 3328 H 336.092 1.92146 -3.59922 0
M  V30 3329 H 334.767 0.868457 -4.06732 0
M  V30 3330 H 333.344 2.30501 -2.93128 0
M  V30 3331 N 335.529 1.53961 0.336706 0
M  V30 3332 C 336.775 1.7179 1.07777 0
M  V30 3333 C 337.108 0.483263 1.88091 0
M  V30 3334 O 336.383 -0.519747 1.87427 0
M  V30 3335 C 336.666 2.98558 2.01334 0
M  V30 3336 C 336.519 4.32245 1.24437 0
M  V30 3337 C 337.838 3.21023 3.01052 0
M  V30 3338 H 334.957 0.625089 0.390426 0
M  V30 3339 H 337.599 1.86641 0.35567 0
M  V30 3340 H 335.749 2.86028 2.62908 0
M  V30 3341 H 337.421 4.56637 0.654243 0
M  V30 3342 H 335.664 4.30344 0.546458 0
M  V30 3343 H 336.335 5.17137 1.93063 0
M  V30 3344 H 338.811 3.32929 2.49595 0
M  V30 3345 H 337.687 4.11104 3.6371 0
M  V30 3346 H 337.948 2.37637 3.72802 0
M  V30 3347 N 337.007 -0.598083 1.45811 0
M  V30 3348 C 337.937 -1.71873 1.58057 0
M  V30 3349 C 338.918 -1.64533 0.431615 0
M  V30 3350 O 340.103 -1.82787 0.65595 0
M  V30 3351 C 337.233 -3.10495 1.55597 0
M  V30 3352 C 336.187 -3.32654 2.69305 0
M  V30 3353 C 335.513 -4.71646 2.51902 0
M  V30 3354 C 336.813 -3.21981 4.11248 0
M  V30 3355 H 338.507 -1.61881 2.51863 0
M  V30 3356 H 336.053 -0.777372 1.21214 0
M  V30 3357 H 338.006 -3.88699 1.6276 0
M  V30 3358 H 336.73 -3.2135 0.583255 0
M  V30 3359 H 335.389 -2.56843 2.61586 0
M  V30 3360 H 335.037 -4.79246 1.52748 0
M  V30 3361 H 334.737 -4.87426 3.2816 0
M  V30 3362 H 336.261 -5.52038 2.60933 0
M  V30 3363 H 337.675 -3.90049 4.20161 0
M  V30 3364 H 336.072 -3.49289 4.87972 0
M  V30 3365 H 337.142 -2.1928 4.32486 0
M  V30 3366 N 338.485 -1.33259 -0.841409 0
M  V30 3367 C 339.731 -1.24757 -1.59886 0
M  V30 3368 C 340.064 0.186913 -1.93298 0
M  V30 3369 O 339.339 1.12757 -1.5848 0
M  V30 3370 C 339.622 -2.12036 -2.91055 0
M  V30 3371 C 339.475 -3.63929 -2.6434 0
M  V30 3372 C 340.794 -1.9916 -3.92458 0
M  V30 3373 H 337.913 -0.454542 -0.580138 0
M  V30 3374 H 340.555 -1.63335 -0.970647 0
M  V30 3375 H 338.705 -1.79265 -3.44669 0
M  V30 3376 H 340.377 -4.06978 -2.17178 0
M  V30 3377 H 338.62 -3.85935 -1.98082 0
M  V30 3378 H 339.291 -4.20341 -3.57796 0
M  V30 3379 H 341.767 -2.27895 -3.48143 0
M  V30 3380 H 340.643 -2.62484 -4.82072 0
M  V30 3381 H 340.904 -0.963082 -4.31482 0
M  V30 3382 N 339.963 1.05934 -1.16686 0
M  V30 3383 C 341.24 1.75643 -0.860747 0
M  V30 3384 C 341.62 2.01144 0.640641 0
M  V30 3385 O 340.968 1.64147 1.58959 0
M  V30 3386 C 341.178 3.05493 -1.68745 0
M  V30 3387 C 342.526 3.79581 -1.90271 0
M  V30 3388 O 343.55 3.15344 -1.65641 0
M  V30 3389 O 342.409 4.9499 -2.31618 0
M  V30 3390 H 339.503 0.763426 -0.317977 0
M  V30 3391 H 342.049 1.1217 -1.27342 0
M  V30 3392 H 340.821 2.8264 -2.70611 0
M  V30 3393 H 340.444 3.76702 -1.27206 0
M  V30 3394 N 341.441 0.965919 1.2453 0
M  V30 3395 C 342.718 0.543777 1.87889 0
M  V30 3396 C 343.098 -0.97909 1.87021 0
M  V30 3397 O 342.446 -1.84969 1.3416 0
M  V30 3398 C 342.656 1.13327 3.30088 0
M  V30 3399 C 344.004 1.21707 4.06783 0
M  V30 3400 O 345.028 1.08566 3.39252 0
M  V30 3401 O 343.887 1.42456 5.27606 0
M  V30 3402 H 340.981 0.181054 0.806938 0
M  V30 3403 H 343.527 1.06007 1.32516 0
M  V30 3404 H 342.299 2.17612 3.25209 0
M  V30 3405 H 341.922 0.600911 3.93033 0
M  V30 3406 N 342.919 -1.39368 0.735821 0
M  V30 3407 C 343.852 -2.28155 0.0451175 0
M  V30 3408 C 344.83 -1.44433 -0.746852 0
M  V30 3409 O 346.014 -1.73823 -0.729237 0
M  V30 3410 C 343.141 -3.253 -0.943266 0
M  V30 3411 C 342.187 -4.25826 -0.239685 0
M  V30 3412 S 343.02 -5.25166 1.04693 0
M  V30 3413 C 344.176 -6.2587 0.0611639 0
M  V30 3414 H 344.409 -2.86388 0.79807 0
M  V30 3415 H 341.942 -1.45104 0.527653 0
M  V30 3416 H 343.9 -3.81789 -1.50824 0
M  V30 3417 H 342.561 -2.66085 -1.66906 0
M  V30 3418 H 341.754 -4.94229 -0.987596 0
M  V30 3419 H 341.356 -3.73141 0.253274 0
M  V30 3420 H 343.648 -6.73007 -0.778941 0
M  V30 3421 H 344.591 -7.04508 0.712362 0
M  V30 3422 H 344.999 -5.63639 -0.311602 0
M  V30 3423 N 344.397 -0.483516 -1.5 0
M  V30 3424 C 345.808 -0.0314176 -1.86674 0
M  V30 3425 C 346.159 1.37728 -1.39733 0
M  V30 3426 O 345.284 2.02327 -0.767635 0
M  V30 3427 C 345.879 -0.0502376 -3.38763 0
M  V30 3428 C 344.438 0.346442 -3.74802 0
M  V30 3429 C 343.585 -0.430366 -2.7394 0
M  V30 3430 H 346.536 -0.697182 -1.42566 0
M  V30 3431 H 346.557 0.749116 -3.73053 0
M  V30 3432 H 346.069 -1.07563 -3.72897 0
M  V30 3433 H 344.17 1.37572 -3.46273 0
M  V30 3434 H 344.283 0.0391486 -4.79084 0
M  V30 3435 H 342.647 0.117557 -2.54429 0
M  V30 3436 H 343.43 -1.4555 -3.10918 0
M  V30 3437 N 345.875 1.56104 -0.216619 0
M  V30 3438 C 347.286 1.844 0.292128 0
M  V30 3439 C 347.637 1.13788 1.59833 0
M  V30 3440 O 346.762 0.405888 2.12559 0
M  V30 3441 C 347.357 3.3452 0.53681 0
M  V30 3442 C 345.916 3.63151 0.989876 0
M  V30 3443 C 345.063 2.77255 0.0502302 0
M  V30 3444 H 348.014 1.52481 -0.439926 0
M  V30 3445 H 348.035 3.54459 1.38345 0
M  V30 3446 H 347.547 3.85885 -0.414031 0
M  V30 3447 H 345.648 3.17238 1.95425 0
M  V30 3448 H 345.761 4.71177 0.867698 0
M  V30 3449 H 344.125 2.48555 0.556117 0
M  V30 3450 H 344.908 3.31416 -0.89544 0
M  V30 3451 N 347.353 -0.0568162 1.57498 0
M  V30 3452 C 348.316 -1.05038 2.03715 0
M  V30 3453 C 349.316 -1.30709 0.936577 0
M  V30 3454 O 350.506 -1.26178 1.20103 0
M  V30 3455 C 347.638 -2.39034 2.43055 0
M  V30 3456 H 348.831 -0.651715 2.92733 0
M  V30 3457 H 346.384 -0.302947 1.53336 0
M  V30 3458 H 347.119 -2.83703 1.57108 0
M  V30 3459 H 346.904 -2.21739 3.2338 0
M  V30 3460 H 348.394 -3.10421 2.79336 0
M  V30 3461 N 348.832 -1.54138 -0.328536 0
M  V30 3462 C 350.078 -1.7236 -1.06865 0
M  V30 3463 C 350.411 -0.493231 -1.87832 0
M  V30 3464 O 349.686 0.5098 -1.877 0
M  V30 3465 C 349.969 -2.99621 -1.99747 0
M  V30 3466 C 349.822 -4.32899 -1.22143 0
M  V30 3467 C 351.141 -3.22615 -2.99345 0
M  V30 3468 H 348.26 -0.627151 -0.387105 0
M  V30 3469 H 350.902 -1.86827 -0.345767 0
M  V30 3470 H 349.052 -2.87418 -2.61387 0
M  V30 3471 H 350.724 -4.56978 -0.630017 0
M  V30 3472 H 348.967 -4.30628 -0.523628 0
M  V30 3473 H 349.638 -5.18154 -1.90318 0
M  V30 3474 H 352.114 -3.34248 -2.47826 0
M  V30 3475 H 350.99 -4.13027 -3.61524 0
M  V30 3476 H 351.251 -2.3961 -3.71536 0
M  V30 3477 N 350.31 0.590341 -1.46126 0
M  V30 3478 C 351.556 1.34874 -1.52252 0
M  V30 3479 C 351.911 1.91658 -0.168807 0
M  V30 3480 O 351.204 1.73093 0.821556 0
M  V30 3481 C 351.398 2.5032 -2.55097 0
M  V30 3482 C 351.227 2.04843 -4.00337 0
M  V30 3483 C 349.997 1.90213 -4.68132 0
M  V30 3484 C 352.195 1.61267 -4.88362 0
M  V30 3485 N 350.177 1.38727 -5.9802 0
M  V30 3486 C 351.548 1.21319 -6.08015 0
M  V30 3487 C 353.603 1.49015 -4.75078 0
M  V30 3488 C 352.306 0.7034 -7.15852 0
M  V30 3489 C 354.332 0.994401 -5.8298 0
M  V30 3490 C 353.694 0.604659 -7.018 0
M  V30 3491 H 349.793 0.486803 -0.612002 0
M  V30 3492 H 352.377 0.673007 -1.82698 0
M  V30 3493 H 350.548 3.15466 -2.26574 0
M  V30 3494 H 352.28 3.1725 -2.51266 0
M  V30 3495 H 349.035 2.11927 -4.23537 0
M  V30 3496 H 349.459 1.15168 -6.67132 0
M  V30 3497 H 354.101 1.77768 -3.83612 0
M  V30 3498 H 351.819 0.403446 -8.07092 0
M  V30 3499 H 355.405 0.903621 -5.7474 0
M  V30 3500 H 354.285 0.226963 -7.83871 0
M  V30 3501 N 351.788 1.33704 0.83433 0
M  V30 3502 C 352.698 1.26382 1.97648 0
M  V30 3503 C 353.714 0.173548 1.73132 0
M  V30 3504 O 354.89 0.397962 1.97429 0
M  V30 3505 C 351.955 1.00769 3.31733 0
M  V30 3506 C 351.016 2.1884 3.69334 0
M  V30 3507 C 350.249 1.9444 4.9702 0
M  V30 3508 O 350.472 0.896961 5.63303 0
M  V30 3509 O 349.406 2.81093 5.32231 0
M  V30 3510 H 353.232 2.22444 2.06767 0
M  V30 3511 H 350.817 1.13795 0.968037 0
M  V30 3512 H 352.699 0.882186 4.12062 0
M  V30 3513 H 351.374 0.0773783 3.23608 0
M  V30 3514 H 350.281 2.36946 2.89495 0
M  V30 3515 H 351.614 3.10221 3.82131 0
M  V30 3516 N 353.266 -1.05314 1.17247 0
M  V30 3517 C 354.514 -1.77941 0.958194 0
M  V30 3518 C 354.835 -1.88089 -0.514556 0
M  V30 3519 O 354.105 -1.39676 -1.37359 0
M  V30 3520 H 352.685 -0.659116 0.351533 0
M  V30 3521 H 355.347 -1.27166 1.47699 0
M  V30 3522 H 354.443 -2.79663 1.38546 0
M  V30 3523 N 354.744 -0.972509 -1.24016 0
M  V30 3524 C 355.694 -0.477561 -2.22942 0
M  V30 3525 C 356.678 0.44308 -1.54679 0
M  V30 3526 O 357.87 0.273219 -1.74879 0
M  V30 3527 C 354.999 0.226348 -3.42553 0
M  V30 3528 C 354.085 -0.713403 -4.18057 0
M  V30 3529 N 354.476 -1.8527 -4.70647 0
M  V30 3530 C 352.774 -0.525145 -4.42898 0
M  V30 3531 C 353.475 -2.44089 -5.28011 0
M  V30 3532 N 352.451 -1.72556 -5.15486 0
M  V30 3533 H 356.253 -1.34678 -2.61226 0
M  V30 3534 H 353.767 -0.832196 -1.39457 0
M  V30 3535 H 355.764 0.598184 -4.12586 0
M  V30 3536 H 354.424 1.09195 -3.05788 0
M  V30 3537 H 355.435 -2.2341 -4.67235 0
M  V30 3538 H 352.112 0.296096 -4.16449 0
M  V30 3539 H 353.502 -3.40259 -5.79374 0
M  V30 3540 N 356.222 1.38976 -0.743202 0
M  V30 3541 C 357.638 1.53984 -0.419664 0
M  V30 3542 C 357.838 1.70837 1.0685 0
M  V30 3543 O 356.894 1.7135 1.8546 0
M  V30 3544 C 358.207 2.75287 -1.20985 0
M  V30 3545 C 359.755 2.89129 -1.19889 0
M  V30 3546 C 360.23 4.13381 -1.97181 0
M  V30 3547 N 361.721 4.20437 -1.94389 0
M  V30 3548 C 362.456 5.15547 -2.50996 0
M  V30 3549 N 361.952 6.16395 -3.16274 0
M  V30 3550 N 363.745 5.07822 -2.40984 0
M  V30 3551 H 355.896 1.26285 -1.7078 0
M  V30 3552 H 358.159 0.612689 -0.723406 0
M  V30 3553 H 357.865 2.69204 -2.26323 0
M  V30 3554 H 357.739 3.68184 -0.819759 0
M  V30 3555 H 360.126 2.947 -0.153606 0
M  V30 3556 H 360.207 1.97272 -1.62841 0
M  V30 3557 H 359.851 4.08572 -3.01714 0
M  V30 3558 H 359.781 5.04298 -1.51629 0
M  V30 3559 H 362.272 3.48205 -1.46839 0
M  V30 3560 H 362.585 6.85443 -3.56915 0
M  V30 3561 H 360.93 6.16758 -3.20367 0
M  V30 3562 H 364.121 4.27973 -1.89622 0
M  V30 3563 H 364.294 5.81767 -2.85397 0
M  V30 3564 N 357.7 0.491464 1.49741 0
M  V30 3565 C 358.925 -0.0557177 2.07325 0
M  V30 3566 C 359.35 -1.30925 1.35056 0
M  V30 3567 O 358.708 -1.76733 0.404365 0
M  V30 3568 C 358.756 -0.302074 3.59333 0
M  V30 3569 O 357.86 -1.37868 3.88672 0
M  V30 3570 H 357.201 0.0219956 0.663636 0
M  V30 3571 H 359.731 0.688352 1.92673 0
M  V30 3572 H 359.741 -0.536464 4.04458 0
M  V30 3573 H 358.416 0.61383 4.11345 0
M  V30 3574 H 356.993 -1.12999 3.55367 0
M  V30 3575 N 359.178 -1.55987 0.224894 0
M  V30 3576 C 360.125 -2.20436 -0.68385 0
M  V30 3577 C 361.095 -1.16102 -1.18783 0
M  V30 3578 O 362.28 -1.4447 -1.24632 0
M  V30 3579 C 359.42 -2.89076 -1.88491 0
M  V30 3580 C 358.533 -4.08012 -1.41951 0
M  V30 3581 C 357.668 -4.64426 -2.5784 0
M  V30 3582 C 356.707 -5.75656 -2.08053 0
M  V30 3583 N 355.844 -6.26347 -3.17227 0
M  V30 3584 H 360.684 -2.97727 -0.12754 0
M  V30 3585 H 358.221 -1.47011 -0.0511978 0
M  V30 3586 H 360.179 -3.27059 -2.59014 0
M  V30 3587 H 358.809 -2.14298 -2.41405 0
M  V30 3588 H 357.861 -3.75492 -0.609095 0
M  V30 3589 H 359.173 -4.88375 -1.01447 0
M  V30 3590 H 358.327 -5.04869 -3.3644 0
M  V30 3591 H 357.066 -3.83233 -3.01635 0
M  V30 3592 H 356.071 -5.34712 -1.27916 0
M  V30 3593 H 357.296 -6.58686 -1.65255 0
M  V30 3594 H 355.242 -5.48067 -3.60497 0
M  V30 3595 H 355.159 -7.01843 -2.80986 0
M  V30 3596 H 356.427 -6.71447 -3.95953 0
M  V30 3597 N 360.656 0.0484629 -1.57525 0
M  V30 3598 C 361.902 0.744226 -1.88651 0
M  V30 3599 C 362.235 1.76029 -0.820212 0
M  V30 3600 O 361.51 1.93782 0.166985 0
M  V30 3601 C 361.793 1.43128 -3.30434 0
M  V30 3602 C 361.646 0.43005 -4.47739 0
M  V30 3603 C 362.965 2.37031 -3.70816 0
M  V30 3604 H 360.084 0.269089 -0.68612 0
M  V30 3605 H 362.726 0.00713532 -1.89999 0
M  V30 3606 H 360.876 2.05956 -3.29415 0
M  V30 3607 H 362.548 -0.194816 -4.60888 0
M  V30 3608 H 360.791 -0.252522 -4.33064 0
M  V30 3609 H 361.462 0.948874 -5.43783 0
M  V30 3610 H 363.938 1.84263 -3.73077 0
M  V30 3611 H 362.814 2.82094 -4.70865 0
M  V30 3612 H 363.075 3.22864 -3.02012 0
M  V30 3613 N 362.134 1.5431 0.320358 0
M  V30 3614 C 363.545 1.63872 0.894594 0
M  V30 3615 C 363.896 0.534847 1.88769 0
M  V30 3616 O 363.021 -0.331732 2.13842 0
M  V30 3617 C 363.616 2.97049 1.62934 0
M  V30 3618 C 362.175 3.08796 2.15226 0
M  V30 3619 C 361.322 2.59456 0.978671 0
M  V30 3620 H 364.273 1.58398 0.0978544 0
M  V30 3621 H 364.294 2.87388 2.49376 0
M  V30 3622 H 363.806 3.7737 0.906302 0
M  V30 3623 H 361.907 2.33156 2.90636 0
M  V30 3624 H 362.02 4.14649 2.40006 0
M  V30 3625 H 360.384 2.1543 1.35875 0
M  V30 3626 H 361.167 3.42237 0.269895 0
M  V30 3627 N 363.613 -0.582584 1.46437 0
M  V30 3628 C 364.543 -1.70187 1.59871 0
M  V30 3629 C 365.524 -1.64066 0.449042 0
M  V30 3630 O 366.709 -1.82081 0.6753 0
M  V30 3631 C 363.839 -3.08827 1.58881 0
M  V30 3632 C 362.793 -3.29779 2.72819 0
M  V30 3633 C 362.119 -4.68947 2.5689 0
M  V30 3634 C 363.419 -3.17601 4.1464 0
M  V30 3635 H 365.113 -1.592 2.53566 0
M  V30 3636 H 362.659 -0.764472 1.22032 0
M  V30 3637 H 364.612 -3.86951 1.66873 0
M  V30 3638 H 363.336 -3.20713 0.617306 0
M  V30 3639 H 361.995 -2.54054 2.64296 0
M  V30 3640 H 361.643 -4.77599 1.57823 0
M  V30 3641 H 361.343 -4.83919 3.33312 0
M  V30 3642 H 362.867 -5.4924 2.66773 0
M  V30 3643 H 364.281 -3.8557 4.24274 0
M  V30 3644 H 362.678 -3.44094 4.9165 0
M  V30 3645 H 363.748 -2.14681 4.34788 0
M  V30 3646 N 365.091 -1.34144 -0.827227 0
M  V30 3647 C 366.321 -1.29138 -1.61267 0
M  V30 3648 C 366.729 0.137597 -1.88699 0
M  V30 3649 O 366.072 1.09379 -1.47587 0
M  V30 3650 C 366.134 -2.0097 -2.9808 0
M  V30 3651 C 365.798 -3.50242 -2.93563 0
M  V30 3652 C 366.795 -4.4523 -2.68452 0
M  V30 3653 C 364.48 -3.92592 -3.13331 0
M  V30 3654 C 366.474 -5.80542 -2.63154 0
M  V30 3655 C 364.161 -5.28005 -3.07658 0
M  V30 3656 C 365.159 -6.21792 -2.82602 0
M  V30 3657 O 364.847 -7.54723 -2.76853 0
M  V30 3658 H 364.579 -0.445851 -0.508127 0
M  V30 3659 H 367.133 -1.77263 -1.03763 0
M  V30 3660 H 365.363 -1.47451 -3.57484 0
M  V30 3661 H 367.052 -1.89309 -3.5905 0
M  V30 3662 H 367.818 -4.13832 -2.52919 0
M  V30 3663 H 363.697 -3.19994 -3.31851 0
M  V30 3664 H 367.241 -6.53717 -2.43516 0
M  V30 3665 H 363.138 -5.59023 -3.22743 0
M  V30 3666 H 363.906 -7.64409 -2.92611 0
M  V30 3667 N 366.569 1.04691 -1.17803 0
M  V30 3668 C 367.501 2.12571 -0.857097 0
M  V30 3669 C 368.514 1.62174 0.142647 0
M  V30 3670 O 369.703 1.78301 -0.0843387 0
M  V30 3671 C 366.803 3.37915 -0.258216 0
M  V30 3672 C 365.976 4.1757 -1.30207 0
M  V30 3673 C 365.035 5.2125 -0.720029 0
M  V30 3674 O 364.061 5.51888 -1.39314 0
M  V30 3675 N 365.263 5.78466 0.485507 0
M  V30 3676 H 368.028 2.40698 -1.78562 0
M  V30 3677 H 365.589 1.20831 -1.07757 0
M  V30 3678 H 367.581 4.04442 0.144584 0
M  V30 3679 H 366.151 3.07281 0.574199 0
M  V30 3680 H 365.371 3.46458 -1.88043 0
M  V30 3681 H 366.659 4.67586 -2.00601 0
M  V30 3682 H 366.057 5.55866 1.05022 0
M  V30 3683 H 364.614 6.4649 0.830307 0
M  V30 3684 N 368.047 0.979072 1.23499 0
M  V30 3685 C 369.463 0.687475 1.44034 0
M  V30 3686 C 369.663 -0.746801 1.8715 0
M  V30 3687 O 368.719 -1.51939 2.0167 0
M  V30 3688 C 370.032 1.68127 2.49307 0
M  V30 3689 C 371.58 1.69516 2.63122 0
M  V30 3690 C 372.055 2.67723 3.71603 0
M  V30 3691 N 373.546 2.66233 3.79044 0
M  V30 3692 C 374.281 3.38891 4.62537 0
M  V30 3693 N 373.777 4.21103 5.50131 0
M  V30 3694 N 375.57 3.27661 4.56721 0
M  V30 3695 H 367.721 1.90559 0.938135 0
M  V30 3696 H 369.984 0.821051 0.473897 0
M  V30 3697 H 369.69 2.70693 2.2454 0
M  V30 3698 H 369.564 1.46306 3.4767 0
M  V30 3699 H 371.951 0.676561 2.8724 0
M  V30 3700 H 372.032 1.95404 1.65079 0
M  V30 3701 H 371.676 3.69724 3.48233 0
M  V30 3702 H 371.606 2.39111 4.69184 0
M  V30 3703 H 374.097 2.06568 3.16446 0
M  V30 3704 H 374.41 4.73403 6.10827 0
M  V30 3705 H 372.755 4.25195 5.49759 0
M  V30 3706 H 375.946 2.62887 3.87309 0
M  V30 3707 H 376.119 3.84547 5.21562 0
M  V30 3708 N 369.525 -1.3858 0.750561 0
M  V30 3709 C 370.802 -1.94231 0.231009 0
M  V30 3710 C 371.182 -1.68611 -1.27018 0
M  V30 3711 O 370.53 -1.02296 -2.04323 0
M  V30 3712 C 370.74 -3.44123 0.581428 0
M  V30 3713 C 372.088 -4.2116 0.539389 0
M  V30 3714 O 373.112 -3.52391 0.519541 0
M  V30 3715 O 371.971 -5.43749 0.54765 0
M  V30 3716 H 369.065 -0.825639 0.0474263 0
M  V30 3717 H 371.611 -1.4799 0.830478 0
M  V30 3718 H 370.383 -3.56267 1.61833 0
M  V30 3719 H 370.006 -3.97573 -0.0462047 0
M  V30 3720 N 371.003 -0.499398 -1.49478 0
M  V30 3721 C 372.228 0.044722 -2.07352 0
M  V30 3722 C 372.653 1.30207 -1.35749 0
M  V30 3723 O 372.011 1.76516 -0.413732 0
M  V30 3724 C 372.059 0.283013 -3.59488 0
M  V30 3725 O 371.163 1.35804 -3.89398 0
M  V30 3726 H 370.504 -0.0255147 -0.66351 0
M  V30 3727 H 373.034 -0.698561 -1.92305 0
M  V30 3728 H 373.044 0.515007 -4.04737 0
M  V30 3729 H 371.719 -0.635636 -4.11014 0
M  V30 3730 H 370.296 1.11113 -3.55961 0
M  V30 3731 N 372.481 1.55866 -0.233164 0
M  V30 3732 C 373.706 2.03449 0.402906 0
M  V30 3733 C 374.131 1.11166 1.51736 0
M  V30 3734 O 373.489 0.101996 1.81013 0
M  V30 3735 C 373.537 3.49165 0.9009 0
M  V30 3736 O 372.641 3.60019 2.01147 0
M  V30 3737 H 371.982 0.657913 0.0897025 0
M  V30 3738 H 374.512 2.01493 -0.355201 0
M  V30 3739 H 374.522 3.89716 1.2077 0
M  V30 3740 H 373.197 4.15813 0.0852889 0
M  V30 3741 H 371.774 3.3136 1.71042 0
M  V30 3742 N 373.959 -0.0401083 1.57549 0
M  V30 3743 C 374.922 -1.02871 2.04817 0
M  V30 3744 C 375.922 -1.29708 0.950388 0
M  V30 3745 O 377.112 -1.24897 1.21435 0
M  V30 3746 C 374.244 -2.36443 2.45576 0
M  V30 3747 H 375.437 -0.620631 2.93408 0
M  V30 3748 H 372.99 -0.286667 1.53649 0
M  V30 3749 H 373.725 -2.82021 1.60108 0
M  V30 3750 H 373.51 -2.18296 3.25713 0
M  V30 3751 H 375 -3.07441 2.82612 0
M  V30 3752 N 375.437 -1.54477 -0.31217 0
M  V30 3753 C 376.4 -1.83923 -1.36766 0
M  V30 3754 C 377.4 -0.711563 -1.44199 0
M  V30 3755 O 378.59 -0.979866 -1.44029 0
M  V30 3756 C 375.722 -2.0095 -2.75376 0
M  V30 3757 H 376.915 -2.78239 -1.11906 0
M  V30 3758 H 374.468 -1.46369 -0.548257 0
M  V30 3759 H 375.203 -1.08883 -3.05475 0
M  V30 3760 H 374.988 -2.83018 -2.71373 0
M  V30 3761 H 376.478 -2.2514 -3.51713 0
M  V30 3762 N 376.915 0.57481 -1.46744 0
M  V30 3763 C 377.825 1.711 -1.60505 0
M  V30 3764 C 378.841 1.67008 -0.488307 0
M  V30 3765 O 380.017 1.86774 -0.753495 0
M  V30 3766 C 377.082 3.07608 -1.59932 0
M  V30 3767 C 376.143 3.22904 -2.82898 0
M  V30 3768 C 375.376 4.529 -2.82343 0
M  V30 3769 O 375.599 5.37278 -1.91542 0
M  V30 3770 O 374.533 4.71611 -3.73987 0
M  V30 3771 H 378.359 1.62436 -2.56609 0
M  V30 3772 H 375.944 0.742779 -1.29627 0
M  V30 3773 H 377.826 3.88877 -1.62336 0
M  V30 3774 H 376.501 3.16692 -0.669898 0
M  V30 3775 H 375.408 2.41099 -2.86046 0
M  V30 3776 H 376.741 3.18715 -3.75076 0
M  V30 3777 N 378.394 1.34581 0.820102 0
M  V30 3778 C 379.64 1.27285 1.57881 0
M  V30 3779 C 379.973 -0.156137 1.93571 0
M  V30 3780 O 379.248 -1.10222 1.60254 0
M  V30 3781 C 379.531 2.16639 2.87645 0
M  V30 3782 C 379.384 3.68088 2.58517 0
M  V30 3783 C 380.703 2.05378 3.8924 0
M  V30 3784 H 377.822 0.463714 0.572833 0
M  V30 3785 H 380.464 1.64859 0.944539 0
M  V30 3786 H 378.614 1.84725 3.41773 0
M  V30 3787 H 380.286 4.10382 2.10676 0
M  V30 3788 H 378.529 3.89038 1.91917 0
M  V30 3789 H 379.2 4.2598 3.51063 0
M  V30 3790 H 381.676 2.33404 3.44473 0
M  V30 3791 H 380.552 2.7012 4.77835 0
M  V30 3792 H 380.813 1.0316 4.29896 0
M  V30 3793 N 379.872 -1.04064 1.18357 0
M  V30 3794 C 381.097 -1.81454 1.00445 0
M  V30 3795 C 381.522 -1.82823 -0.442423 0
M  V30 3796 O 380.88 -1.24555 -1.31741 0
M  V30 3797 C 380.928 -3.24925 1.56384 0
M  V30 3798 O 380.032 -4.04856 0.785209 0
M  V30 3799 H 379.373 -0.560604 0.355835 0
M  V30 3800 H 381.903 -1.31059 1.57114 0
M  V30 3801 H 381.913 -3.75702 1.59097 0
M  V30 3802 H 380.588 -3.23244 2.61699 0
M  V30 3803 H 379.165 -3.63537 0.830399 0
M  V30 3804 N 381.35 -0.985608 -1.22978 0
M  V30 3805 C 382.627 -0.573599 -1.87001 0
M  V30 3806 C 383.007 0.949213 -1.88555 0
M  V30 3807 O 382.355 1.82811 -1.37086 0
M  V30 3808 C 382.565 -1.18564 -3.28243 0
M  V30 3809 C 383.913 -1.28163 -4.04796 0
M  V30 3810 O 384.937 -1.13949 -3.37482 0
M  V30 3811 O 383.796 -1.50832 -5.25273 0
M  V30 3812 H 380.89 -0.193868 -0.803955 0
M  V30 3813 H 383.436 -1.08102 -1.30813 0
M  V30 3814 H 382.208 -2.22758 -3.21706 0
M  V30 3815 H 381.831 -0.663363 -3.92027 0
M  V30 3816 N 382.828 1.3818 -0.7579 0
M  V30 3817 C 384.074 2.00316 -0.316453 0
M  V30 3818 C 384.407 1.60026 1.10025 0
M  V30 3819 O 383.682 0.839835 1.75434 0
M  V30 3820 C 383.965 3.57349 -0.444245 0
M  V30 3821 C 383.818 4.07591 -1.90236 0
M  V30 3822 C 385.137 4.3981 0.1598 0
M  V30 3823 H 382.256 0.727741 -0.116459 0
M  V30 3824 H 384.898 1.6406 -0.958352 0
M  V30 3825 H 383.048 3.88365 0.102233 0
M  V30 3826 H 384.72 3.87199 -2.50748 0
M  V30 3827 H 382.963 3.60297 -2.41595 0
M  V30 3828 H 383.634 5.16677 -1.94291 0
M  V30 3829 H 386.11 4.14971 -0.306314 0
M  V30 3830 H 384.986 5.48885 0.0401675 0
M  V30 3831 H 385.247 4.24102 1.24859 0
M  V30 3832 N 384.306 0.507319 1.49211 0
M  V30 3833 C 385.552 -0.0350047 2.0277 0
M  V30 3834 C 385.885 -1.3606 1.38569 0
M  V30 3835 O 385.16 -1.87321 0.523542 0
M  V30 3836 C 385.443 -0.180916 3.59645 0
M  V30 3837 C 385.296 1.16825 4.34364 0
M  V30 3838 C 386.615 -0.918558 4.30407 0
M  V30 3839 H 383.734 -0.0112473 0.736914 0
M  V30 3840 H 386.376 0.659956 1.7817 0
M  V30 3841 H 384.526 -0.772826 3.80736 0
M  V30 3842 H 386.198 1.79952 4.24753 0
M  V30 3843 H 384.441 1.75594 3.96673 0
M  V30 3844 H 385.112 1.01939 5.42506 0
M  V30 3845 H 387.588 -0.41649 4.1401 0
M  V30 3846 H 386.464 -0.989505 5.39907 0
M  V30 3847 H 386.725 -1.96373 3.96093 0
M  V30 3848 N 385.784 -1.5574 0.241426 0
M  V30 3849 C 387.033 -1.97986 -0.385295 0
M  V30 3850 C 387.346 -1.13267 -1.59468 0
M  V30 3851 O 388.552 -1.45501 -2.2922 0
M  V30 3852 C 387.008 -3.52275 -0.736884 0
M  V30 3853 C 386.616 -4.45726 0.450796 0
M  V30 3854 C 388.36 -4.03189 -1.3281 0
M  V30 3855 C 386.267 -5.91352 0.0756662 0
M  V30 3856 H 385.197 -0.739386 -0.147731 0
M  V30 3857 H 387.848 -1.80308 0.340779 0
M  V30 3858 H 386.23 -3.65628 -1.52094 0
M  V30 3859 H 387.404 -4.44131 1.22819 0
M  V30 3860 H 385.719 -4.05264 0.956573 0
M  V30 3861 H 388.316 -5.09505 -1.62201 0
M  V30 3862 H 388.659 -3.50212 -2.25071 0
M  V30 3863 H 389.192 -3.93141 -0.607069 0
M  V30 3864 H 385.931 -6.48354 0.965272 0
M  V30 3865 H 385.451 -5.96095 -0.665635 0
M  V30 3866 H 387.13 -6.46084 -0.344075 0
M  V30 3867 N 387.262 0.0317525 -1.57568 0
M  V30 3868 C 388.509 0.723104 -1.89149 0
M  V30 3869 C 388.837 1.75504 -0.838377 0
M  V30 3870 O 388.092 1.95037 0.160982 0
M  V30 3871 C 388.391 1.43167 -3.27472 0
M  V30 3872 C 388.057 0.535972 -4.47703 0
M  V30 3873 C 386.719 0.289262 -4.8033 0
M  V30 3874 C 389.071 -0.0826125 -5.21135 0
M  V30 3875 C 386.399 -0.584853 -5.83778 0
M  V30 3876 C 388.751 -0.944414 -6.25511 0
M  V30 3877 C 387.415 -1.20061 -6.56614 0
M  V30 3878 H 386.685 0.264602 -0.692146 0
M  V30 3879 H 389.332 -0.0169496 -1.91492 0
M  V30 3880 H 387.637 2.24497 -3.21105 0
M  V30 3881 H 389.334 1.97209 -3.49155 0
M  V30 3882 H 385.924 0.738414 -4.22191 0
M  V30 3883 H 390.108 0.0950302 -4.96209 0
M  V30 3884 H 385.364 -0.79168 -6.06253 0
M  V30 3885 H 389.538 -1.43026 -6.81554 0
M  V30 3886 H 387.165 -1.87967 -7.36595 0
M  V30 3887 N 388.74 1.54641 0.303973 0
M  V30 3888 C 389.67 1.88386 1.3796 0
M  V30 3889 C 390.651 0.742485 1.5304 0
M  V30 3890 O 391.836 0.997959 1.66597 0
M  V30 3891 C 388.966 2.12854 2.74427 0
M  V30 3892 C 387.92 3.28702 2.74115 0
M  V30 3893 C 387.246 3.38582 4.13844 0
M  V30 3894 C 388.546 4.65881 2.3612 0
M  V30 3895 H 390.24 2.78474 1.09966 0
M  V30 3896 H 387.786 1.33988 0.527556 0
M  V30 3897 H 389.739 2.35047 3.49758 0
M  V30 3898 H 388.463 1.19535 3.03939 0
M  V30 3899 H 387.122 3.06428 2.0124 0
M  V30 3900 H 386.77 2.42784 4.40528 0
M  V30 3901 H 386.47 4.16453 4.14537 0
M  V30 3902 H 387.994 3.63031 4.90959 0
M  V30 3903 H 389.408 4.87823 3.01167 0
M  V30 3904 H 387.805 5.46444 2.48031 0
M  V30 3905 H 388.875 4.66799 1.3125 0
M  V30 3906 N 390.218 -0.567019 1.47046 0
M  V30 3907 C 391.458 -1.3355 1.54738 0
M  V30 3908 C 391.822 -1.90947 0.200772 0
M  V30 3909 O 393.023 -2.68367 0.152489 0
M  V30 3910 C 391.294 -2.42317 2.62712 0
M  V30 3911 S 392.853 -3.29383 2.89918 0
M  V30 3912 H 389.671 -0.454788 0.546525 0
M  V30 3913 H 392.273 -0.650191 1.84371 0
M  V30 3914 H 390.977 -1.98568 3.59164 0
M  V30 3915 H 390.508 -3.15601 2.34861 0
M  V30 3916 H 392.523 -4.41548 2.26384 0
M  V30 3917 N 391.696 -1.35014 -0.812953 0
M  V30 3918 C 392.921 -1.31187 -1.60639 0
M  V30 3919 C 393.346 0.109382 -1.87782 0
M  V30 3920 O 392.704 1.07424 -1.46047 0
M  V30 3921 C 392.752 -2.11809 -2.91838 0
M  V30 3922 O 391.856 -1.49444 -3.8437 0
M  V30 3923 H 391.197 -0.450084 -0.488181 0
M  V30 3924 H 393.727 -1.77963 -1.00947 0
M  V30 3925 H 393.737 -2.23531 -3.41318 0
M  V30 3926 H 392.412 -3.15137 -2.71407 0
M  V30 3927 H 390.989 -1.46524 -3.42907 0
M  V30 3928 N 393.175 1.03435 -1.18907 0
M  V30 3929 C 394.4 1.80919 -1.01406 0
M  V30 3930 C 394.825 1.83055 0.432721 0
M  V30 3931 O 394.183 1.25252 1.31079 0
M  V30 3932 C 394.231 3.24091 -1.58105 0
M  V30 3933 O 393.335 4.04434 -0.806669 0
M  V30 3934 H 392.676 0.558709 -0.358803 0
M  V30 3935 H 395.206 1.30223 -1.57807 0
M  V30 3936 H 395.216 3.74853 -1.61087 0
M  V30 3937 H 393.891 3.21851 -2.6341 0
M  V30 3938 H 392.468 3.63091 -0.849666 0
M  V30 3939 N 394.653 0.992116 1.22453 0
M  V30 3940 C 395.6 0.541731 2.24352 0
M  V30 3941 C 396.57 -0.425519 1.60557 0
M  V30 3942 O 397.755 -0.330453 1.87917 0
M  V30 3943 C 394.895 -0.138248 3.44823 0
M  V30 3944 C 394.008 0.870649 4.23136 0
M  V30 3945 C 393.143 0.164269 5.30946 0
M  V30 3946 C 392.182 1.16159 6.00977 0
M  V30 3947 N 391.319 0.483568 7.00433 0
M  V30 3948 H 396.159 1.41541 2.62241 0
M  V30 3949 H 393.696 0.709013 1.28885 0
M  V30 3950 H 395.654 -0.5494 4.13567 0
M  V30 3951 H 394.284 -0.975721 3.077 0
M  V30 3952 H 393.336 1.40013 3.53696 0
M  V30 3953 H 394.648 1.63014 4.7141 0
M  V30 3954 H 393.802 -0.303653 6.0594 0
M  V30 3955 H 392.541 -0.627733 4.83643 0
M  V30 3956 H 391.546 1.64015 5.24766 0
M  V30 3957 H 392.771 1.95445 6.50368 0
M  V30 3958 H 390.717 -0.289012 6.55363 0
M  V30 3959 H 390.634 1.18152 7.4671 0
M  V30 3960 H 391.902 0.0384219 7.79491 0
M  V30 3961 N 396.131 -1.37776 0.765217 0
M  V30 3962 C 397.094 -2.28686 0.153416 0
M  V30 3963 C 398.094 -1.47727 -0.635081 0
M  V30 3964 O 399.284 -1.68027 -0.459632 0
M  V30 3965 C 396.416 -3.31608 -0.790495 0
M  V30 3966 H 397.609 -2.84297 0.954723 0
M  V30 3967 H 395.162 -1.46932 0.53299 0
M  V30 3968 H 395.897 -2.81109 -1.61705 0
M  V30 3969 H 395.682 -3.9144 -0.227348 0
M  V30 3970 H 397.172 -3.99559 -1.21419 0
M  V30 3971 N 397.609 -0.515225 -1.4894 0
M  V30 3972 C 398.556 0.255567 -2.29381 0
M  V30 3973 C 399.526 0.947387 -1.36432 0
M  V30 3974 O 400.711 0.951288 -1.65394 0
M  V30 3975 C 397.851 1.30551 -3.19453 0
M  V30 3976 C 396.964 0.624029 -4.27469 0
M  V30 3977 C 396.099 1.65563 -5.0474 0
M  V30 3978 C 395.138 0.956802 -6.04576 0
M  V30 3979 N 394.275 1.93326 -6.74959 0
M  V30 3980 H 399.115 -0.436607 -2.94784 0
M  V30 3981 H 396.652 -0.227154 -1.45336 0
M  V30 3982 H 398.61 1.92639 -3.70062 0
M  V30 3983 H 397.24 1.96626 -2.56004 0
M  V30 3984 H 396.292 -0.110459 -3.8024 0
M  V30 3985 H 397.604 0.0746092 -4.98744 0
M  V30 3986 H 396.758 2.35119 -5.59289 0
M  V30 3987 H 395.497 2.23893 -4.3327 0
M  V30 3988 H 394.502 0.247097 -5.49244 0
M  V30 3989 H 395.727 0.379814 -6.78037 0
M  V30 3990 H 393.673 2.50591 -6.06251 0
M  V30 3991 H 393.59 1.43489 -7.42258 0
M  V30 3992 H 394.858 2.62126 -7.34105 0
M  V30 3993 N 399.087 1.5561 -0.249682 0
M  V30 3994 C 400.317 2.03116 0.377803 0
M  V30 3995 C 400.725 1.12822 1.51881 0
M  V30 3996 O 400.068 0.13562 1.83199 0
M  V30 3997 C 400.13 3.46866 0.944693 0
M  V30 3998 C 399.794 4.56955 -0.0644259 0
M  V30 3999 C 400.791 5.12485 -0.874957 0
M  V30 4000 C 398.476 5.01936 -0.19132 0
M  V30 4001 C 400.47 6.11491 -1.79881 0
M  V30 4002 C 398.157 6.00773 -1.11868 0
M  V30 4003 C 399.155 6.5543 -1.92095 0
M  V30 4004 O 398.843 7.5234 -2.83267 0
M  V30 4005 H 398.575 0.669489 0.0935961 0
M  V30 4006 H 401.129 2.02004 -0.371966 0
M  V30 4007 H 399.359 3.45136 1.74407 0
M  V30 4008 H 401.048 3.77856 1.48255 0
M  V30 4009 H 401.814 4.78564 -0.787523 0
M  V30 4010 H 397.693 4.59055 0.423072 0
M  V30 4011 H 401.237 6.54078 -2.42543 0
M  V30 4012 H 397.134 6.34114 -1.20703 0
M  V30 4013 H 397.902 7.69966 -2.7766 0
M  V30 4014 N 400.565 -0.0233959 1.57583 0
M  V30 4015 C 401.814 -0.712133 1.8871 0
M  V30 4016 C 402.127 -1.76217 0.848944 0
M  V30 4017 O 403.333 -2.50389 1.04964 0
M  V30 4018 C 401.789 -1.3177 3.3491 0
M  V30 4019 C 401.397 -0.303715 4.46969 0
M  V30 4020 C 403.141 -1.98598 3.75179 0
M  V30 4021 C 401.048 -0.917945 5.84233 0
M  V30 4022 H 399.978 -0.269735 0.704101 0
M  V30 4023 H 402.629 0.0333114 1.8347 0
M  V30 4024 H 401.011 -2.11304 3.34913 0
M  V30 4025 H 402.185 0.465325 4.58445 0
M  V30 4026 H 400.5 0.2628 4.1557 0
M  V30 4027 H 403.097 -2.45416 4.75053 0
M  V30 4028 H 403.44 -2.80659 3.07468 0
M  V30 4029 H 403.973 -1.25831 3.77374 0
M  V30 4030 H 400.712 -0.136633 6.55358 0
M  V30 4031 H 400.232 -1.65669 5.76467 0
M  V30 4032 H 401.911 -1.4236 6.31144 0
M  V30 4033 N 402.043 -1.548 -0.295768 0
M  V30 4034 C 403.271 -1.78327 -1.04914 0
M  V30 4035 C 403.686 -0.545316 -1.80753 0
M  V30 4036 O 403.043 0.485013 -1.75937 0
M  V30 4037 C 403.094 -2.99418 -2.02561 0
M  V30 4038 O 402.815 -4.18431 -1.29798 0
M  V30 4039 C 404.316 -3.35375 -2.89895 0
M  V30 4040 H 401.536 -0.594618 -0.310918 0
M  V30 4041 H 404.08 -2.01763 -0.333454 0
M  V30 4042 H 402.235 -2.78175 -2.69624 0
M  V30 4043 H 402.649 -4.86736 -1.95419 0
M  V30 4044 H 404.123 -4.23332 -3.54251 0
M  V30 4045 H 404.6 -2.53761 -3.58472 0
M  V30 4046 H 405.206 -3.58796 -2.28355 0
M  V30 4047 N 403.521 0.559213 -1.47345 0
M  V30 4048 C 404.769 1.31388 -1.53563 0
M  V30 4049 C 405.09 1.93985 -0.198678 0
M  V30 4050 O 404.36 1.79825 0.777167 0
M  V30 4051 H 402.94 0.487901 -0.565652 0
M  V30 4052 H 405.602 0.65315 -1.8363 0
M  V30 4053 H 404.698 2.10844 -2.30111 0
M  V30 4054 N 404.999 1.35443 0.805782 0
M  V30 4055 C 406.227 1.31878 1.59423 0
M  V30 4056 C 406.642 -0.103562 1.88516 0
M  V30 4057 O 405.999 -1.05575 1.48863 0
M  V30 4058 C 406.05 2.12426 2.92502 0
M  V30 4059 O 405.771 3.49115 2.6467 0
M  V30 4060 C 407.272 2.16455 3.86862 0
M  V30 4061 H 404.492 0.453002 0.495005 0
M  V30 4062 H 407.036 1.78309 1.00131 0
M  V30 4063 H 405.191 1.69593 3.48306 0
M  V30 4064 H 405.605 3.90957 3.49647 0
M  V30 4065 H 407.079 2.77204 4.77349 0
M  V30 4066 H 407.556 1.16352 4.23508 0
M  V30 4067 H 408.162 2.59453 3.36993 0
M  V30 4068 N 406.477 -1.02803 1.19454 0
M  V30 4069 C 407.717 -1.77769 1.00883 0
M  V30 4070 C 408.081 -1.86596 -0.45233 0
M  V30 4071 O 409.282 -2.57895 -0.757877 0
M  V30 4072 C 407.553 -3.16486 1.66046 0
M  V30 4073 S 409.112 -4.07632 1.62424 0
M  V30 4074 H 405.93 -0.611949 0.361993 0
M  V30 4075 H 408.532 -1.23175 1.51816 0
M  V30 4076 H 407.236 -3.0768 2.7159 0
M  V30 4077 H 406.767 -3.76156 1.15196 0
M  V30 4078 H 408.782 -4.91937 0.64903 0
M  V30 4079 N 407.956 -0.998596 -1.21925 0
M  V30 4080 C 409.202 -0.678667 -1.91107 0
M  V30 4081 C 409.535 0.78791 -1.77498 0
M  V30 4082 O 408.81 1.57043 -1.1475 0
M  V30 4083 C 409.093 -1.09245 -3.43129 0
M  V30 4084 C 408.946 -2.61801 -3.6576 0
M  V30 4085 C 410.265 -0.649984 -4.35274 0
M  V30 4086 H 407.384 -0.248025 -0.694012 0
M  V30 4087 H 410.026 -1.24314 -1.43688 0
M  V30 4088 H 408.176 -0.612171 -3.83647 0
M  V30 4089 H 409.848 -3.17543 -3.34611 0
M  V30 4090 H 408.091 -3.03609 -3.09845 0
M  V30 4091 H 408.762 -2.85804 -4.7225 0
M  V30 4092 H 411.238 -1.0626 -4.02303 0
M  V30 4093 H 410.114 -0.967743 -5.40302 0
M  V30 4094 H 410.375 0.449139 -4.39813 0
M  V30 4095 N 409.434 1.37368 -0.772513 0
M  V30 4096 C 410.381 2.30262 -0.157488 0
M  V30 4097 C 411.351 1.51137 0.688965 0
M  V30 4098 O 412.536 1.79704 0.641168 0
M  V30 4099 C 409.676 3.37611 0.715045 0
M  V30 4100 C 408.789 4.31746 -0.148098 0
M  V30 4101 C 407.924 5.26171 0.729213 0
M  V30 4102 C 406.963 6.11948 -0.136418 0
M  V30 4103 N 406.1 6.98613 0.698914 0
M  V30 4104 H 410.94 2.82277 -0.955179 0
M  V30 4105 H 408.477 1.38957 -0.482631 0
M  V30 4106 H 410.435 3.98479 1.23575 0
M  V30 4107 H 409.065 2.86959 1.47833 0
M  V30 4108 H 408.117 3.72178 -0.786613 0
M  V30 4109 H 409.429 4.92084 -0.81579 0
M  V30 4110 H 408.583 5.92247 1.31637 0
M  V30 4111 H 407.322 4.66246 1.43059 0
M  V30 4112 H 406.327 5.4485 -0.736102 0
M  V30 4113 H 407.552 6.73945 -0.835134 0
M  V30 4114 H 405.498 6.41215 1.38489 0
M  V30 4115 H 405.415 7.55948 0.0885358 0
M  V30 4116 H 406.683 7.69077 1.27044 0
M  V30 4117 N 410.912 0.523116 1.48665 0
M  V30 4118 C 412.158 -0.0134963 2.02796 0
M  V30 4119 C 412.491 -1.34582 1.40004 0
M  V30 4120 O 411.766 -1.86756 0.543381 0
M  V30 4121 C 412.049 -0.14276 3.59817 0
M  V30 4122 C 411.902 1.21425 4.331 0
M  V30 4123 C 413.221 -0.872856 4.31357 0
M  V30 4124 H 410.34 -0.00343074 0.736992 0
M  V30 4125 H 412.982 0.678816 1.7746 0
M  V30 4126 H 411.132 -0.732401 3.81534 0
M  V30 4127 H 412.804 1.84447 4.2282 0
M  V30 4128 H 411.047 1.79791 3.94788 0
M  V30 4129 H 411.718 1.07687 5.41394 0
M  V30 4130 H 414.194 -0.372555 4.14429 0
M  V30 4131 H 413.07 -0.932185 5.40927 0
M  V30 4132 H 413.331 -1.92161 3.98154 0
M  V30 4133 N 412.39 -1.55475 0.257931 0
M  V30 4134 C 413.667 -1.91155 -0.414629 0
M  V30 4135 C 414.047 -1.18008 -1.75035 0
M  V30 4136 O 413.395 -0.301193 -2.26506 0
M  V30 4137 C 413.605 -3.44283 -0.571859 0
M  V30 4138 C 414.953 -4.15744 -0.862678 0
M  V30 4139 O 415.977 -3.50083 -0.657314 0
M  V30 4140 O 414.836 -5.31909 -1.2544 0
M  V30 4141 H 411.93 -0.796016 -0.22425 0
M  V30 4142 H 414.476 -1.66976 0.302814 0
M  V30 4143 H 413.248 -3.89558 0.368844 0
M  V30 4144 H 412.871 -3.7436 -1.33943 0
M  V30 4145 N 413.868 0.0150385 -1.57593 0
M  V30 4146 C 415.116 0.701613 -1.8953 0
M  V30 4147 C 415.437 1.75139 -0.857396 0
M  V30 4148 O 414.707 1.95607 0.107194 0
M  V30 4149 H 413.287 0.26213 -0.699498 0
M  V30 4150 H 415.949 -0.0223304 -1.94887 0
M  V30 4151 H 415.045 1.18236 -2.88837 0
M  V30 4152 N 415.346 1.54954 0.287554 0
M  V30 4153 C 416.594 1.74528 1.01904 0
M  V30 4154 C 416.915 0.541349 1.87335 0
M  V30 4155 O 416.185 -0.444108 1.908 0
M  V30 4156 H 414.765 0.643576 0.379235 0
M  V30 4157 H 417.427 1.92333 0.315294 0
M  V30 4158 H 416.523 2.64015 1.6644 0
M  V30 4159 N 416.824 -0.551391 1.4764 0
M  V30 4160 C 418.054 -1.33163 1.57959 0
M  V30 4161 C 418.462 -1.87785 0.23094 0
M  V30 4162 O 417.805 -1.65996 -0.786825 0
M  V30 4163 C 417.867 -2.53449 2.54958 0
M  V30 4164 C 417.531 -2.20071 4.00522 0
M  V30 4165 C 418.528 -1.77017 4.88836 0
M  V30 4166 C 416.213 -2.31252 4.45901 0
M  V30 4167 C 418.207 -1.4558 6.20552 0
M  V30 4168 C 415.894 -1.99427 5.77644 0
M  V30 4169 C 416.892 -1.56659 6.64791 0
M  V30 4170 O 416.58 -1.25242 7.94084 0
M  V30 4171 H 416.312 -0.412022 0.535923 0
M  V30 4172 H 418.866 -0.674186 1.9402 0
M  V30 4173 H 417.096 -3.22104 2.13976 0
M  V30 4174 H 418.785 -3.15523 2.55343 0
M  V30 4175 H 419.551 -1.67867 4.55023 0
M  V30 4176 H 415.43 -2.63498 3.78272 0
M  V30 4177 H 418.974 -1.12125 6.8853 0
M  V30 4178 H 414.871 -2.08211 6.10998 0
M  V30 4179 H 415.639 -1.38822 8.06642 0
M  V30 4180 N 418.302 -1.35869 -0.798587 0
M  V30 4181 C 419.527 -1.32883 -1.59238 0
M  V30 4182 C 419.952 0.0894587 -1.87887 0
M  V30 4183 O 419.31 1.05869 -1.47178 0
M  V30 4184 C 419.358 -2.14892 -2.89575 0
M  V30 4185 O 418.462 -1.53512 -3.82763 0
M  V30 4186 H 417.803 -0.455236 -0.48338 0
M  V30 4187 H 420.333 -1.79024 -0.990539 0
M  V30 4188 H 420.343 -2.27139 -3.38928 0
M  V30 4189 H 419.018 -3.17998 -2.68049 0
M  V30 4190 H 417.595 -1.50153 -3.41334 0
M  V30 4191 N 419.78 1.02168 -1.19998 0
M  V30 4192 C 420.71 2.12488 -0.96804 0
M  V30 4193 C 421.691 1.69799 0.101185 0
M  V30 4194 O 422.876 1.94121 -0.0552993 0
M  V30 4195 C 420.006 3.43479 -0.513776 0
M  V30 4196 C 418.96 3.99884 -1.52566 0
M  V30 4197 C 418.286 5.26582 -0.928214 0
M  V30 4198 C 419.586 4.33861 -2.90795 0
M  V30 4199 H 421.28 2.32149 -1.89069 0
M  V30 4200 H 418.826 1.11564 -0.910468 0
M  V30 4201 H 420.779 4.20036 -0.338774 0
M  V30 4202 H 419.503 3.23561 0.444493 0
M  V30 4203 H 418.162 3.25429 -1.68794 0
M  V30 4204 H 417.81 5.02986 0.0378289 0
M  V30 4205 H 417.51 5.65284 -1.60397 0
M  V30 4206 H 419.034 6.05799 -0.764167 0
M  V30 4207 H 420.448 5.01327 -2.78109 0
M  V30 4208 H 418.845 4.83664 -3.55231 0
M  V30 4209 H 419.915 3.42848 -3.42904 0
M  V30 4210 N 421.258 1.00505 1.21394 0
M  V30 4211 C 422.486 0.706609 1.9446 0
M  V30 4212 C 422.901 -0.73081 1.74082 0
M  V30 4213 O 422.258 -1.49446 1.04747 0
M  V30 4214 C 422.309 1.01824 3.46863 0
M  V30 4215 O 422.03 2.39919 3.66566 0
M  V30 4216 C 423.531 0.739216 4.37093 0
M  V30 4217 H 420.751 0.260394 0.618414 0
M  V30 4218 H 423.295 1.34311 1.54211 0
M  V30 4219 H 421.45 0.427343 3.85036 0
M  V30 4220 H 421.864 2.50784 4.6066 0
M  V30 4221 H 423.338 1.00744 5.42729 0
M  V30 4222 H 423.815 -0.326746 4.37983 0
M  V30 4223 H 424.421 1.31173 4.04566 0
M  V30 4224 N 422.737 -1.36956 0.779787 0
M  V30 4225 C 424.153 -1.52817 0.460342 0
M  V30 4226 C 424.353 -1.7361 -1.02283 0
M  V30 4227 O 423.409 -1.76207 -1.80852 0
M  V30 4228 C 424.722 -2.71983 1.28241 0
M  V30 4229 C 426.27 -2.85849 1.27512 0
M  V30 4230 C 426.745 -4.08008 2.08072 0
M  V30 4231 N 428.236 -4.15135 2.05467 0
M  V30 4232 C 428.971 -5.08711 2.64577 0
M  V30 4233 N 428.467 -6.07792 3.32506 0
M  V30 4234 N 430.26 -5.01254 2.54363 0
M  V30 4235 H 422.411 -1.21713 1.74068 0
M  V30 4236 H 424.674 -0.593294 0.739396 0
M  V30 4237 H 424.38 -2.63109 2.33381 0
M  V30 4238 H 424.254 -3.65882 0.917088 0
M  V30 4239 H 426.641 -2.94189 0.231686 0
M  V30 4240 H 426.722 -1.92886 1.68014 0
M  V30 4241 H 426.366 -4.00429 3.12441 0
M  V30 4242 H 426.296 -5.001 1.64947 0
M  V30 4243 H 428.787 -3.44189 1.5602 0
M  V30 4244 H 429.1 -6.75739 3.74963 0
M  V30 4245 H 427.445 -6.08047 3.36606 0
M  V30 4246 H 430.636 -4.22795 2.00902 0
M  V30 4247 H 430.809 -5.73995 3.00722 0
M  V30 4248 N 424.215 -0.530993 -1.48385 0
M  V30 4249 C 425.178 0.220497 -2.28137 0
M  V30 4250 C 426.178 0.866851 -1.35434 0
M  V30 4251 O 427.368 0.726746 -1.58316 0
M  V30 4252 C 424.5 1.31921 -3.1434 0
M  V30 4253 H 425.693 -0.479714 -2.96038 0
M  V30 4254 H 423.246 -0.286968 -1.53643 0
M  V30 4255 H 423.981 2.05264 -2.51072 0
M  V30 4256 H 423.766 0.86085 -3.82533 0
M  V30 4257 H 425.256 1.84776 -3.74497 0
M  V30 4258 O 425.732 1.56259 -0.408071 0
M  V30 4259 H 426.423 1.93245 0.132688 0
M  V30 END ATOM
M  V30 BEGIN BOND
M  V30 END BOND
M  V30 END CTAB
M  END
$$$$
