drugbank_target|Q01770 Hydroxylamine reductase (DB02761; DB03814)
 OpenBabel12092120003D

  0  0  0     0  0            999 V3000
M  V30 BEGIN CTAB
M  V30 COUNTS 8268 8346 0 0 0
M  V30 BEGIN ATOM
M  V30 1 H -0.908 1.98254 -0.117106 0
M  V30 2 N 0 1.576 0 0
M  V30 3 C 0.933 2.03868 1.02534 0
M  V30 4 C 1.911 0.928543 1.3348 0
M  V30 5 O 3.095 1.19667 1.45644 0
M  V30 6 C 0.222 2.43627 2.35294 0
M  V30 7 C -0.732 3.65373 2.2001 0
M  V30 8 S 0.101 5.13292 1.52614 0
M  V30 9 C 1.257 5.56322 2.86805 0
M  V30 10 H 1.49 2.90518 0.631377 0
M  V30 11 H -0.977 1.52953 0.210867 0
M  V30 12 H 0.981 2.67203 3.11629 0
M  V30 13 H -0.358 1.57376 2.7183 0
M  V30 14 H -1.165 3.90944 3.18086 0
M  V30 15 H -1.563 3.418 1.51819 0
M  V30 16 H 0.729 5.58782 3.83104 0
M  V30 17 H 1.672 6.56266 2.65933 0
M  V30 18 H 2.08 4.83886 2.90714 0
M  V30 19 N 1.4781 -0.272755 1.55222 0
M  V30 20 C 2.7031 -1.02683 1.80197 0
M  V30 21 C 3.1281 -1.79142 0.573551 0
M  V30 22 O 2.4861 -1.74917 -0.476849 0
M  V30 23 C 2.5341 -1.9609 3.02624 0
M  V30 24 O 1.6381 -3.04863 2.77727 0
M  V30 25 H 0.9791 -0.293557 0.595584 0
M  V30 26 H 3.5091 -0.30159 2.02365 0
M  V30 27 H 3.5191 -2.38039 3.31363 0
M  V30 28 H 2.1941 -1.39851 3.91682 0
M  V30 29 H 0.7711 -2.67228 2.60084 0
M  V30 30 N 2.9562 -1.48159 -0.537278 0
M  V30 31 C 3.9042 -1.62573 -1.66352 0
M  V30 32 C 4.8982 -0.492366 -1.62087 0
M  V30 33 O 6.1042 -0.670847 -1.67032 0
M  V30 34 H 2.4792 -0.511992 -0.550789 0
M  V30 35 H 4.4502 -2.57176 -1.51337 0
M  V30 36 C 3.1992 -1.67583 -3.04649 0
M  V30 37 H 2.5222 -2.54151 -3.08622 0
M  V30 38 H 3.9622 -1.81713 -3.83088 0
M  V30 39 C 2.4212 -0.413039 -3.34358 0
M  V30 40 O 2.9512 0.477259 -3.98855 0
M  V30 41 N 1.1572 -0.286961 -2.8918 0
M  V30 42 H 0.7042 -1.01241 -2.36871 0
M  V30 43 H 0.6622 0.556963 -3.09427 0
M  V30 44 N 4.4343 0.785586 -1.36625 0
M  V30 45 C 5.3973 1.87999 -1.31107 0
M  V30 46 C 6.3973 1.59316 -0.217959 0
M  V30 47 O 7.5873 1.67656 -0.472977 0
M  V30 48 C 4.7193 3.24861 -1.03334 0
M  V30 49 H 5.9123 1.94307 -2.2844 0
M  V30 50 H 3.4653 0.983813 -1.21453 0
M  V30 51 H 4.2003 3.24235 -0.0647432 0
M  V30 52 H 3.9853 3.4707 -1.82441 0
M  V30 53 H 5.4753 4.04929 -1.02088 0
M  V30 54 N 5.9124 1.20967 1.01018 0
M  V30 55 C 6.8454 0.907578 2.09376 0
M  V30 56 C 7.8234 -0.142868 1.61971 0
M  V30 57 O 9.0074 -0.0150391 1.88494 0
M  V30 58 C 6.1344 0.361791 3.36762 0
M  V30 59 C 5.1804 1.39423 4.03068 0
M  V30 60 S 6.0134 2.96159 4.4615 0
M  V30 61 C 7.1694 2.43173 5.7673 0
M  V30 62 H 7.4024 1.82519 2.34678 0
M  V30 63 H 4.9354 1.03884 1.14225 0
M  V30 64 H 6.8934 0.0534523 4.10465 0
M  V30 65 H 5.5544 -0.53443 3.0952 0
M  V30 66 H 4.7474 0.961853 4.94737 0
M  V30 67 H 4.3494 1.65038 3.35617 0
M  V30 68 H 6.6414 1.83335 6.52223 0
M  V30 69 H 7.5844 3.33264 6.24773 0
M  V30 70 H 7.9924 1.85069 5.33301 0
M  V30 71 N 7.3905 -1.2043 1.01659 0
M  V30 72 C 8.6375 -1.89797 0.705917 0
M  V30 73 C 8.9655 -1.78848 -0.764439 0
M  V30 74 O 8.2205 -1.16694 -1.57102 0
M  V30 75 C 8.5195 -3.40464 1.08714 0
M  V30 76 C 8.1855 -3.71614 2.5537 0
M  V30 77 C 6.8475 -3.79826 2.95441 0
M  V30 78 C 9.1995 -3.85915 3.50313 0
M  V30 79 C 6.5275 -3.99797 4.29394 0
M  V30 80 C 8.8795 -4.07396 4.83954 0
M  V30 81 C 7.5435 -4.13837 5.23732 0
M  V30 82 H 6.8135 -0.694518 0.258313 0
M  V30 83 H 9.4605 -1.42691 1.27717 0
M  V30 84 H 7.7655 -3.89385 0.434309 0
M  V30 85 H 9.4625 -3.92433 0.824461 0
M  V30 86 H 6.0525 -3.65822 2.23321 0
M  V30 87 H 10.2365 -3.78926 3.20513 0
M  V30 88 H 5.4925 -4.03018 4.59768 0
M  V30 89 H 9.6665 -4.17404 5.57447 0
M  V30 90 H 7.2935 -4.29064 6.27541 0
M  V30 91 N 8.8686 -0.792821 -1.36206 0
M  V30 92 C 10.1086 -0.372238 -2.00982 0
M  V30 93 C 10.4726 1.03749 -1.61555 0
M  V30 94 O 11.6736 1.55934 -2.18948 0
M  V30 95 C 9.9446 -0.534566 -3.5338 0
M  V30 96 S 11.5036 -0.202365 -4.38333 0
M  V30 97 H 8.3216 -0.142044 -0.696667 0
M  V30 98 H 10.9236 -1.03206 -1.66039 0
M  V30 99 H 9.6276 -1.5608 -3.79562 0
M  V30 100 H 9.1586 0.141065 -3.93147 0
M  V30 101 H 11.1736 0.994869 -4.86124 0
M  V30 102 N 10.3467 1.47872 -0.545128 0
M  V30 103 C 11.5767 2.06589 -0.0210534 0
M  V30 104 C 11.9847 1.39997 1.27269 0
M  V30 105 O 11.3277 0.486421 1.77143 0
M  V30 106 C 11.3897 3.58574 0.257933 0
M  V30 107 C 11.0537 4.47132 -0.944573 0
M  V30 108 C 12.0507 4.85986 -1.84699 0
M  V30 109 C 9.7357 4.88821 -1.15584 0
M  V30 110 C 11.7297 5.65314 -2.94446 0
M  V30 111 C 9.4167 5.67916 -2.25642 0
M  V30 112 C 10.4147 6.06073 -3.14905 0
M  V30 113 O 10.1027 6.83578 -4.23057 0
M  V30 114 H 9.8347 0.674971 -0.0372899 0
M  V30 115 H 12.3887 1.91037 -0.754599 0
M  V30 116 H 10.6187 3.72295 1.04564 0
M  V30 117 H 12.3077 3.99356 0.72592 0
M  V30 118 H 13.0737 4.54388 -1.69577 0
M  V30 119 H 8.9527 4.58595 -0.470279 0
M  V30 120 H 12.4967 5.95016 -3.64145 0
M  V30 121 H 8.3937 5.98927 -2.40742 0
M  V30 122 H 9.1617 7.01954 -4.20954 0
M  V30 123 N 11.8248 0.280983 1.55075 0
M  V30 124 C 12.7568 -0.637268 2.20163 0
M  V30 125 C 13.7698 -1.11298 1.18813 0
M  V30 126 O 14.9588 -1.03388 1.4551 0
M  V30 127 C 12.0588 -1.88199 2.81841 0
M  V30 128 C 11.2318 -1.55211 4.08936 0
M  V30 129 C 10.2908 -2.64991 4.54606 0
M  V30 130 O 9.3168 -2.30929 5.2025 0
M  V30 131 N 10.5188 -3.95161 4.25238 0
M  V30 132 H 13.2838 -0.0801694 2.99593 0
M  V30 133 H 10.8448 0.102329 1.61576 0
M  V30 134 H 12.8368 -2.60948 3.09335 0
M  V30 135 H 11.4068 -2.34799 2.06369 0
M  V30 136 H 10.6268 -0.658185 3.88666 0
M  V30 137 H 11.9148 -1.30681 4.91732 0
M  V30 138 H 11.3128 -4.25653 3.72607 0
M  V30 139 H 9.8698 -4.6427 4.5749 0
M  V30 140 N 13.3029 -1.57598 0.00835791 0
M  V30 141 C 14.5429 -1.92788 -0.679136 0
M  V30 142 C 14.9069 -0.883378 -1.70471 0
M  V30 143 O 16.1079 -1.12079 -2.44319 0
M  V30 144 C 14.3789 -3.32994 -1.29807 0
M  V30 145 S 15.9379 -3.90082 -2.00952 0
M  V30 146 H 12.7559 -0.67475 -0.224127 0
M  V30 147 H 15.3579 -1.95385 0.0670497 0
M  V30 148 H 14.0619 -4.06846 -0.538922 0
M  V30 149 H 13.5929 -3.33791 -2.082 0
M  V30 150 H 15.6079 -3.71834 -3.28563 0
M  V30 151 N 14.781 0.264519 -1.55364 0
M  V30 152 C 15.713 1.34965 -1.85248 0
M  V30 153 C 16.726 1.45136 -0.737525 0
M  V30 154 O 17.915 1.46801 -1.01547 0
M  V30 155 C 15.015 2.73008 -2.00797 0
M  V30 156 C 14.188 2.85324 -3.31525 0
M  V30 157 C 13.247 4.04097 -3.37034 0
M  V30 158 O 12.273 3.94455 -4.10358 0
M  V30 159 N 13.475 5.16458 -2.65049 0
M  V30 160 H 16.24 1.09672 -2.78913 0
M  V30 161 H 13.801 0.454635 -1.55386 0
M  V30 162 H 15.793 3.50772 -2.01844 0
M  V30 163 H 14.363 2.91087 -1.1396 0
M  V30 164 H 13.583 1.94377 -3.42945 0
M  V30 165 H 14.871 2.9049 -4.17724 0
M  V30 166 H 14.269 5.27181 -2.05175 0
M  V30 167 H 12.826 5.92422 -2.71809 0
M  V30 168 N 16.2591 1.48442 0.529413 0
M  V30 169 C 17.1691 1.6569 1.66084 0
M  V30 170 C 18.1851 0.539432 1.65427 0
M  V30 171 O 19.3611 0.810572 1.84368 0
M  V30 172 C 16.4261 1.69315 3.02545 0
M  V30 173 C 15.4871 2.92694 3.14052 0
M  V30 174 C 14.7201 2.96137 4.44003 0
M  V30 175 O 14.9431 2.07973 5.31134 0
M  V30 176 O 13.8771 3.88312 4.59888 0
M  V30 177 H 17.7031 2.61483 1.54469 0
M  V30 178 H 15.2881 1.3185 0.702567 0
M  V30 179 H 17.1701 1.74217 3.83701 0
M  V30 180 H 15.8451 0.766966 3.14483 0
M  V30 181 H 14.7521 2.93324 2.32189 0
M  V30 182 H 16.0851 3.84699 3.0703 0
M  V30 183 N 17.7372 -0.778329 1.37039 0
M  V30 184 C 18.9652 -1.56734 1.35063 0
M  V30 185 C 19.3802 -1.88686 -0.0655597 0
M  V30 186 O 18.7372 -1.5096 -1.02554 0
M  V30 187 C 18.7882 -2.88163 2.18276 0
M  V30 188 O 18.5092 -2.57583 3.54376 0
M  V30 189 C 20.0102 -3.82422 2.24206 0
M  V30 190 H 17.2302 -0.485778 0.462883 0
M  V30 191 H 19.7742 -0.965185 1.8029 0
M  V30 192 H 17.9292 -3.44818 1.76576 0
M  V30 193 H 18.3432 -3.41699 3.97922 0
M  V30 194 H 19.8172 -4.71667 2.86765 0
M  V30 195 H 20.2942 -4.21078 1.24861 0
M  V30 196 H 20.9002 -3.31697 2.6619 0
M  V30 197 N 19.2153 -1.21501 -1.00376 0
M  V30 198 C 20.4613 -1.03452 -1.74429 0
M  V30 199 C 20.7943 0.430764 -1.89362 0
M  V30 200 O 20.0693 1.31962 -1.42886 0
M  V30 201 C 20.3523 -1.73375 -3.15615 0
M  V30 202 C 20.2053 -3.27431 -3.08397 0
M  V30 203 C 21.5243 -1.47732 -4.14564 0
M  V30 204 H 18.6433 -0.377226 -0.633143 0
M  V30 205 H 21.2853 -1.49693 -1.17013 0
M  V30 206 H 19.4353 -1.34064 -3.64636 0
M  V30 207 H 21.1073 -3.76119 -2.67081 0
M  V30 208 H 19.3503 -3.5767 -2.45468 0
M  V30 209 H 20.0213 -3.71524 -4.08258 0
M  V30 210 H 22.4973 -1.8186 -3.74254 0
M  V30 211 H 21.3733 -1.99169 -5.11491 0
M  V30 212 H 21.6343 -0.407589 -4.40217 0
M  V30 213 N 20.6934 1.19889 -1.02296 0
M  V30 214 C 21.9414 1.89046 -0.714558 0
M  V30 215 C 22.2624 1.79636 0.758681 0
M  V30 216 O 21.5324 1.20292 1.54618 0
M  V30 217 H 20.1124 0.699802 -0.261317 0
M  V30 218 H 22.7744 1.45574 -1.29592 0
M  V30 219 H 21.8704 2.95524 -1.0036 0
M  V30 220 N 22.1715 0.800033 1.35784 0
M  V30 221 C 23.1195 0.193851 2.31791 0
M  V30 222 C 24.1135 -0.652744 1.56319 0
M  V30 223 O 25.3195 -0.546641 1.71499 0
M  V30 224 H 21.6945 0.04392 0.750716 0
M  V30 225 H 23.6655 1.01883 2.80468 0
M  V30 226 C 22.4145 -0.648338 3.41602 0
M  V30 227 H 21.7375 -0.00624665 3.998 0
M  V30 228 H 23.1775 -1.03898 4.11073 0
M  V30 229 C 21.6365 -1.8111 2.84079 0
M  V30 230 O 22.1665 -2.90825 2.77099 0
M  V30 231 N 20.3725 -1.62056 2.41218 0
M  V30 232 H 19.9195 -0.728123 2.47095 0
M  V30 233 H 19.8775 -2.40013 2.03079 0
M  V30 234 N 23.6496 -1.47581 0.552962 0
M  V30 235 C 24.5966 -2.29957 -0.197108 0
M  V30 236 C 25.5666 -1.38799 -0.912359 0
M  V30 237 O 26.7516 -1.67761 -0.908888 0
M  V30 238 C 23.8916 -3.22672 -1.22379 0
M  V30 239 C 23.0046 -4.28919 -0.515038 0
M  V30 240 C 22.1396 -5.0879 -1.52664 0
M  V30 241 C 21.1786 -6.06815 -0.802631 0
M  V30 242 N 20.3156 -6.7966 -1.76086 0
M  V30 243 H 25.1556 -2.93578 0.511486 0
M  V30 244 H 22.6926 -1.4471 0.264067 0
M  V30 245 H 24.6506 -3.74845 -1.83159 0
M  V30 246 H 23.2806 -2.60925 -1.90047 0
M  V30 247 H 22.3326 -3.79835 0.207192 0
M  V30 248 H 23.6446 -4.98773 0.0523425 0
M  V30 249 H 22.7986 -5.65091 -2.20809 0
M  V30 250 H 21.5376 -4.38828 -2.12794 0
M  V30 251 H 20.5426 -5.49695 -0.107238 0
M  V30 252 H 21.7676 -6.78784 -0.207135 0
M  V30 253 H 19.7136 -6.12432 -2.35081 0
M  V30 254 H 19.6306 -7.45669 -1.24552 0
M  V30 255 H 20.8986 -7.40538 -2.43359 0
M  V30 256 N 25.1277 -0.289203 -1.54924 0
M  V30 257 C 26.3757 0.322879 -1.99504 0
M  V30 258 C 26.6967 1.55313 -1.1791 0
M  V30 259 O 25.9667 1.94001 -0.272097 0
M  V30 260 H 24.5467 0.122291 -0.736922 0
M  V30 261 H 27.2087 -0.397802 -1.90797 0
M  V30 262 H 26.3047 0.603061 -3.06218 0
M  V30 263 N 26.6058 1.57591 -0.0167156 0
M  V30 264 C 27.8458 1.93145 0.668902 0
M  V30 265 C 28.2098 0.892406 1.7 0
M  V30 266 O 29.4108 1.13373 2.43721 0
M  V30 267 C 27.6818 3.33678 1.28039 0
M  V30 268 S 29.2408 3.91142 1.9888 0
M  V30 269 H 26.0588 0.67593 0.220545 0
M  V30 270 H 28.6608 1.95347 -0.0774105 0
M  V30 271 H 27.3648 4.07126 0.517339 0
M  V30 272 H 26.8958 3.3489 2.06427 0
M  V30 273 H 28.9108 3.73571 3.26587 0
M  V30 274 N 28.0839 -0.256276 1.55502 0
M  V30 275 C 29.3119 -1.00342 1.8094 0
M  V30 276 C 29.7269 -1.79307 0.59114 0
M  V30 277 O 29.0839 -1.77114 -0.440081 0
M  V30 278 C 29.1349 -1.94875 3.04476 0
M  V30 279 O 28.8559 -1.19107 4.21598 0
M  V30 280 C 30.3569 -2.81266 3.42644 0
M  V30 281 H 27.5769 -0.295685 0.602338 0
M  V30 282 H 30.1209 -0.281998 2.02546 0
M  V30 283 H 28.2759 -2.62457 2.84947 0
M  V30 284 H 28.6899 -1.82969 4.91551 0
M  V30 285 H 30.1639 -3.43362 4.32211 0
M  V30 286 H 30.6409 -3.51897 2.62802 0
M  V30 287 H 31.2469 -2.1915 3.64491 0
M  V30 288 N 29.562 -1.4872 -0.521534 0
M  V30 289 C 30.494 -1.59968 -1.64143 0
M  V30 290 C 31.507 -0.483463 -1.55456 0
M  V30 291 O 32.696 -0.75467 -1.61762 0
M  V30 292 C 29.796 -1.52127 -3.02838 0
M  V30 293 C 28.969 -2.78932 -3.36921 0
M  V30 294 C 28.028 -2.64428 -4.54933 0
M  V30 295 O 27.054 -3.38331 -4.57735 0
M  V30 296 N 28.256 -1.74606 -5.53618 0
M  V30 297 H 31.021 -2.56548 -1.54929 0
M  V30 298 H 28.582 -1.45551 -0.708988 0
M  V30 299 H 30.574 -1.40106 -3.79674 0
M  V30 300 H 29.144 -0.634868 -3.06085 0
M  V30 301 H 28.364 -3.05455 -2.4918 0
M  V30 302 H 29.652 -3.63041 -3.56481 0
M  V30 303 H 29.05 -1.13782 -5.54139 0
M  V30 304 H 27.607 -1.6852 -6.29638 0
M  V30 305 N 31.0401 0.771051 -1.3745 0
M  V30 306 C 32.2861 1.5319 -1.32894 0
M  V30 307 C 32.6191 1.94008 0.0862511 0
M  V30 308 O 31.8941 1.64124 1.04373 0
M  V30 309 C 32.1771 2.79648 -2.26868 0
M  V30 310 C 32.0301 2.45079 -3.77169 0
M  V30 311 C 33.3491 3.81583 -2.19277 0
M  V30 312 H 30.4681 0.555744 -0.484064 0
M  V30 313 H 33.1101 0.884492 -1.68157 0
M  V30 314 H 31.2601 3.34891 -1.96926 0
M  V30 315 H 32.9321 1.95745 -4.1771 0
M  V30 316 H 31.1751 1.77767 -3.95704 0
M  V30 317 H 31.8461 3.35478 -4.38359 0
M  V30 318 H 34.3221 3.35835 -2.45671 0
M  V30 319 H 33.1981 4.67787 -2.87171 0
M  V30 320 H 33.4591 4.25897 -1.18592 0
M  V30 321 N 32.5182 1.22032 0.997298 0
M  V30 322 C 33.7662 1.04016 1.73278 0
M  V30 323 C 34.0872 -0.426255 1.90284 0
M  V30 324 O 33.3572 -1.30694 1.45931 0
M  V30 325 H 31.9372 0.381897 0.642 0
M  V30 326 H 34.5992 1.5347 1.20137 0
M  V30 327 H 33.6952 1.51441 2.72896 0
M  V30 328 N 33.9963 -1.19345 1.0293 0
M  V30 329 C 35.2423 -1.89318 0.727083 0
M  V30 330 C 35.5753 -1.79446 -0.742483 0
M  V30 331 O 34.8503 -1.1871 -1.54072 0
M  V30 332 C 35.1333 -3.40238 1.17942 0
M  V30 333 C 34.9863 -3.58979 2.71024 0
M  V30 334 C 36.3053 -4.33479 0.760548 0
M  V30 335 H 33.4243 -0.687475 0.265606 0
M  V30 336 H 36.0663 -1.40477 1.2793 0
M  V30 337 H 34.2163 -3.81964 0.709608 0
M  V30 338 H 35.8883 -3.26421 3.25955 0
M  V30 339 H 34.1313 -3.02018 3.11396 0
M  V30 340 H 34.8023 -4.64823 2.9773 0
M  V30 341 H 37.2783 -3.99469 1.16464 0
M  V30 342 H 36.1543 -5.37664 1.10493 0
M  V30 343 H 36.4153 -4.40813 -0.337063 0
M  V30 344 N 35.4744 -0.807222 -1.35358 0
M  V30 345 C 36.7144 -0.393534 -2.00576 0
M  V30 346 C 37.0784 1.0203 -1.62647 0
M  V30 347 O 38.2794 1.53603 -2.20589 0
M  V30 348 C 36.5504 -0.572017 -3.52793 0
M  V30 349 S 38.1094 -0.248845 -4.38094 0
M  V30 350 H 34.9274 -0.149425 -0.695121 0
M  V30 351 H 37.5294 -1.04961 -1.64935 0
M  V30 352 H 36.2334 -1.60097 -3.77885 0
M  V30 353 H 35.7644 0.099359 -3.93275 0
M  V30 354 H 37.7794 0.943253 -4.87152 0
M  V30 355 N 36.9525 1.47285 -0.560781 0
M  V30 356 C 38.2005 2.02064 -0.0379868 0
M  V30 357 C 38.5215 1.43711 1.31803 0
M  V30 358 O 37.7915 0.61362 1.86042 0
M  V30 359 H 36.3715 0.746918 -0.0110531 0
M  V30 360 H 39.0335 1.80648 -0.731598 0
M  V30 361 H 38.1295 3.12064 0.0474463 0
M  V30 362 N 38.4306 0.297415 1.54768 0
M  V30 363 C 39.3776 -0.580276 2.23386 0
M  V30 364 C 40.3476 -1.13238 1.21517 0
M  V30 365 O 41.5326 -1.17757 1.50126 0
M  V30 366 C 38.6726 -1.74801 2.97555 0
M  V30 367 C 37.7856 -1.22764 4.1419 0
M  V30 368 C 36.9206 -2.35895 4.75949 0
M  V30 369 C 35.9596 -1.80974 5.84735 0
M  V30 370 N 35.0966 -2.87664 6.40464 0
M  V30 371 H 39.9366 0.0114833 2.97998 0
M  V30 372 H 37.4736 0.0174361 1.4709 0
M  V30 373 H 39.4316 -2.43475 3.38786 0
M  V30 374 H 38.0616 -2.31145 2.25326 0
M  V30 375 H 37.1136 -0.433271 3.77924 0
M  V30 376 H 38.4256 -0.785551 4.92575 0
M  V30 377 H 37.5796 -3.12523 5.20014 0
M  V30 378 H 36.3186 -2.83429 3.96887 0
M  V30 379 H 35.3236 -1.02834 5.40097 0
M  V30 380 H 36.5486 -1.34348 6.65678 0
M  V30 381 H 34.4946 -3.34538 5.64287 0
M  V30 382 H 34.4116 -2.4794 7.14186 0
M  V30 383 H 35.6796 -3.642 6.89187 0
M  V30 384 N 39.9087 -1.5758 0.0250728 0
M  V30 385 C 40.8557 -2.09973 -0.958129 0
M  V30 386 C 41.8257 -1.00085 -1.3256 0
M  V30 387 O 43.0107 -1.27481 -1.41962 0
M  V30 388 C 40.1507 -2.62812 -2.2366 0
M  V30 389 C 39.2637 -3.86693 -1.92594 0
M  V30 390 C 38.3987 -4.27941 -3.14707 0
M  V30 391 C 37.4377 -5.44591 -2.79442 0
M  V30 392 N 36.5747 -5.81014 -3.94167 0
M  V30 393 H 41.4147 -2.937 -0.504428 0
M  V30 394 H 38.9517 -1.45172 -0.237392 0
M  V30 395 H 40.9097 -2.91536 -2.98434 0
M  V30 396 H 39.5397 -1.81922 -2.66654 0
M  V30 397 H 38.5917 -3.64723 -1.0808 0
M  V30 398 H 39.9037 -4.71547 -1.62619 0
M  V30 399 H 39.0577 -4.58079 -3.97804 0
M  V30 400 H 37.7967 -3.41845 -3.4784 0
M  V30 401 H 36.8017 -5.1415 -1.94755 0
M  V30 402 H 38.0267 -6.32382 -2.47528 0
M  V30 403 H 35.9727 -4.97874 -4.2715 0
M  V30 404 H 35.8897 -6.60498 -3.67801 0
M  V30 405 H 37.1577 -6.15756 -4.7798 0
M  V30 406 N 41.3868 0.248026 -1.55636 0
M  V30 407 C 42.7978 0.817177 -1.67866 0
M  V30 408 C 43.1488 1.86069 -0.622322 0
M  V30 409 O 42.2738 2.15157 0.231618 0
M  V30 410 C 42.8688 1.489 -3.04326 0
M  V30 411 C 41.4278 2.00587 -3.185 0
M  V30 412 C 40.5748 0.856573 -2.63739 0
M  V30 413 H 43.5258 0.0238579 -1.58682 0
M  V30 414 H 43.5468 2.35698 -2.98708 0
M  V30 415 H 43.0588 0.729279 -3.81186 0
M  V30 416 H 41.1598 2.79443 -2.4646 0
M  V30 417 H 41.2728 2.20402 -4.25393 0
M  V30 418 H 39.6368 1.25678 -2.21534 0
M  V30 419 H 40.4198 0.109953 -3.43124 0
M  V30 420 N 42.8649 1.48995 0.513639 0
M  V30 421 C 43.7749 1.67443 1.64317 0
M  V30 422 C 44.7909 0.556947 1.64846 0
M  V30 423 O 45.9669 0.830082 1.83498 0
M  V30 424 C 43.0319 1.72515 3.00732 0
M  V30 425 C 42.0929 2.96009 3.1093 0
M  V30 426 C 41.3259 3.00829 4.40837 0
M  V30 427 O 41.5489 2.13594 5.28898 0
M  V30 428 O 40.4829 3.93168 4.55744 0
M  V30 429 H 44.3089 2.63106 1.51687 0
M  V30 430 H 41.8939 1.32588 0.688543 0
M  V30 431 H 43.7759 1.78277 3.81831 0
M  V30 432 H 42.4509 0.800278 3.13651 0
M  V30 433 H 41.3579 2.9577 2.29065 0
M  V30 434 H 42.6909 3.87934 3.02933 0
M  V30 435 N 44.343 -0.763751 1.37857 0
M  V30 436 C 45.571 -1.55293 1.36718 0
M  V30 437 C 45.986 -1.88745 -0.0455434 0
M  V30 438 O 45.343 -1.52039 -1.00947 0
M  V30 439 C 45.394 -2.85831 2.2132 0
M  V30 440 O 45.115 -2.5381 3.57089 0
M  V30 441 C 46.616 -3.80023 2.28249 0
M  V30 442 H 43.836 -0.480841 0.468009 0
M  V30 443 H 46.38 -0.946009 1.81303 0
M  V30 444 H 44.535 -3.42926 1.80223 0
M  V30 445 H 44.949 -3.37459 4.01524 0
M  V30 446 H 46.423 -4.68599 2.91752 0
M  V30 447 H 46.9 -4.1973 1.2932 0
M  V30 448 H 47.506 -3.28855 2.69693 0
M  V30 449 N 45.8211 -1.22559 -0.990812 0
M  V30 450 C 46.7841 -0.998863 -2.0629 0
M  V30 451 C 47.7841 0.0354834 -1.60761 0
M  V30 452 O 48.9741 -0.203231 -1.7301 0
M  V30 453 C 46.1061 -0.509203 -3.37076 0
M  V30 454 H 47.2991 -1.95014 -2.27837 0
M  V30 455 H 44.8521 -1.04456 -1.16269 0
M  V30 456 H 45.5871 0.446335 -3.21214 0
M  V30 457 H 45.3721 -1.25547 -3.71457 0
M  V30 458 H 46.8621 -0.370888 -4.1595 0
M  V30 459 N 47.2992 1.18797 -1.03562 0
M  V30 460 C 48.2622 2.20464 -0.626769 0
M  V30 461 C 49.2622 1.57721 0.313173 0
M  V30 462 O 50.4522 1.73917 0.0992615 0
M  V30 463 C 47.5842 3.40802 0.0818498 0
M  V30 464 H 48.7772 2.58149 -1.5264 0
M  V30 465 H 46.3302 1.32593 -0.827578 0
M  V30 466 H 47.0652 3.08642 0.995518 0
M  V30 467 H 46.8502 3.8758 -0.593652 0
M  V30 468 H 48.3402 4.16092 0.354584 0
M  V30 469 N 48.7773 0.814389 1.34928 0
M  V30 470 C 49.7073 0.244827 2.32213 0
M  V30 471 C 50.6883 -0.634024 1.57842 0
M  V30 472 O 51.8733 -0.562676 1.8587 0
M  V30 473 C 49.0033 -0.601106 3.42058 0
M  V30 474 C 47.9573 0.179896 4.27622 0
M  V30 475 C 47.2833 -0.788237 5.28858 0
M  V30 476 C 48.5833 1.38329 5.03649 0
M  V30 477 H 50.2773 1.05763 2.80097 0
M  V30 478 H 47.8233 0.510029 1.34665 0
M  V30 479 H 49.7763 -1.00968 4.09125 0
M  V30 480 H 48.5003 -1.44688 2.92802 0
M  V30 481 H 47.1593 0.569739 3.62146 0
M  V30 482 H 46.8073 -1.62973 4.75866 0
M  V30 483 H 46.5073 -0.269942 5.8698 0
M  V30 484 H 48.0313 -1.19485 5.98795 0
M  V30 485 H 49.4453 1.04918 5.63618 0
M  V30 486 H 47.8423 1.83662 5.71304 0
M  V30 487 H 48.9123 2.16592 4.33839 0
M  V30 488 N 50.2554 -1.46986 0.568584 0
M  V30 489 C 51.1874 -2.28233 -0.210337 0
M  V30 490 C 52.2004 -1.37682 -0.868767 0
M  V30 491 O 53.3894 -1.62406 -0.740705 0
M  V30 492 C 50.4894 -3.12293 -1.3163 0
M  V30 493 C 49.6624 -4.30878 -0.7525 0
M  V30 494 C 48.7214 -4.96445 -1.74439 0
M  V30 495 O 47.7474 -5.54482 -1.286 0
M  V30 496 N 48.9494 -4.92171 -3.07812 0
M  V30 497 H 51.7144 -2.95723 0.486648 0
M  V30 498 H 49.2754 -1.56742 0.405409 0
M  V30 499 H 51.2674 -3.53022 -1.97883 0
M  V30 500 H 49.8374 -2.46971 -1.91636 0
M  V30 501 H 49.0574 -3.94104 0.0871128 0
M  V30 502 H 50.3454 -5.07558 -0.35536 0
M  V30 503 H 49.7434 -4.46239 -3.47688 0
M  V30 504 H 48.3004 -5.36884 -3.69592 0
M  V30 505 N 51.7335 -0.305618 -1.54608 0
M  V30 506 C 53.0105 0.355652 -1.92339 0
M  V30 507 C 53.3905 1.71324 -1.23335 0
M  V30 508 O 52.7385 2.25473 -0.370702 0
M  V30 509 C 52.9485 0.46572 -3.45879 0
M  V30 510 C 54.2965 0.734426 -4.182 0
M  V30 511 O 55.3205 0.54935 -3.51938 0
M  V30 512 O 54.1795 1.09024 -5.35515 0
M  V30 513 H 51.2735 0.199666 -0.802535 0
M  V30 514 H 53.8195 -0.354017 -1.65966 0
M  V30 515 H 52.5915 -0.488461 -3.88239 0
M  V30 516 H 52.2145 1.22367 -3.78301 0
M  V30 517 N 53.2116 1.57565 -0.0334293 0
M  V30 518 C 54.1746 2.09393 0.932048 0
M  V30 519 C 55.1746 1.00986 1.25134 0
M  V30 520 O 56.3646 1.27129 1.19096 0
M  V30 521 C 53.4966 2.56338 2.2473 0
M  V30 522 H 54.6896 2.95984 0.483085 0
M  V30 523 H 52.2426 1.54819 0.21468 0
M  V30 524 H 52.9776 1.7309 2.74245 0
M  V30 525 H 52.7626 3.35542 2.02865 0
M  V30 526 H 54.2526 2.96646 2.93923 0
M  V30 527 N 54.6897 -0.239769 1.55765 0
M  V30 528 C 55.6197 -1.30052 1.9393 0
M  V30 529 C 56.6007 -1.49839 0.805132 0
M  V30 530 O 57.7857 -1.62328 1.06599 0
M  V30 531 C 54.9157 -2.65391 2.2402 0
M  V30 532 C 53.8697 -2.60289 3.39755 0
M  V30 533 C 53.1957 -3.99489 3.55405 0
M  V30 534 C 54.4957 -2.16654 4.75246 0
M  V30 535 H 56.1897 -0.983573 2.82783 0
M  V30 536 H 53.7357 -0.471701 1.36055 0
M  V30 537 H 55.6887 -3.3974 2.49308 0
M  V30 538 H 54.4127 -2.98736 1.32 0
M  V30 539 H 53.0717 -1.88398 3.14487 0
M  V30 540 H 52.7197 -4.30112 2.60793 0
M  V30 541 H 52.4197 -3.96962 4.33238 0
M  V30 542 H 53.9437 -4.75528 3.83022 0
M  V30 543 H 55.3577 -2.80737 4.99859 0
M  V30 544 H 53.7547 -2.25223 5.56232 0
M  V30 545 H 54.8247 -1.11835 4.71827 0
M  V30 546 N 56.1678 -1.49265 -0.50573 0
M  V30 547 C 57.4168 -1.57761 -1.25675 0
M  V30 548 C 57.7298 -0.267371 -1.93764 0
M  V30 549 O 58.9358 -0.230827 -2.70517 0
M  V30 550 C 57.3918 -2.78332 -2.28165 0
M  V30 551 C 56.9998 -4.16096 -1.66037 0
M  V30 552 C 58.7438 -2.96155 -3.04125 0
M  V30 553 C 56.6508 -5.27895 -2.6661 0
M  V30 554 H 55.5808 -0.587391 -0.472745 0
M  V30 555 H 58.2318 -1.75644 -0.53118 0
M  V30 556 H 56.6138 -2.53934 -3.03865 0
M  V30 557 H 57.7878 -4.50612 -0.963622 0
M  V30 558 H 56.1028 -4.03591 -1.02484 0
M  V30 559 H 58.6998 -3.76849 -3.79327 0
M  V30 560 H 59.0428 -2.06534 -3.61455 0
M  V30 561 H 59.5758 -3.2057 -2.35541 0
M  V30 562 H 56.3148 -6.1956 -2.14068 0
M  V30 563 H 55.8348 -4.97839 -3.34539 0
M  V30 564 H 57.5138 -5.57031 -3.29129 0
M  V30 565 N 57.6459 0.756429 -1.3826 0
M  V30 566 C 58.8759 1.54341 -1.3734 0
M  V30 567 C 59.2839 1.89159 0.0393917 0
M  V30 568 O 58.6269 1.5307 1.01565 0
M  V30 569 C 58.6889 2.87238 -2.16182 0
M  V30 570 C 58.3529 2.74973 -3.65019 0
M  V30 571 C 59.3499 2.44962 -4.58574 0
M  V30 572 C 57.0349 2.92515 -4.08338 0
M  V30 573 C 59.0289 2.32642 -5.93428 0
M  V30 574 C 56.7159 2.79815 -5.43274 0
M  V30 575 C 57.7139 2.49921 -6.35632 0
M  V30 576 O 57.4019 2.37275 -7.68086 0
M  V30 577 H 57.1339 0.484281 -0.471643 0
M  V30 578 H 59.6879 0.944152 -1.82414 0
M  V30 579 H 57.9179 3.49342 -1.65822 0
M  V30 580 H 59.6069 3.48731 -2.07705 0
M  V30 581 H 60.3729 2.31081 -4.26412 0
M  V30 582 H 56.2519 3.14781 -3.368 0
M  V30 583 H 59.7959 2.0923 -6.65484 0
M  V30 584 H 55.6929 2.93269 -5.75034 0
M  V30 585 H 56.4609 2.52509 -7.78577 0
M  V30 586 N 59.124 1.23083 0.984299 0
M  V30 587 C 60.37 1.06214 1.72761 0
M  V30 588 C 60.703 -0.400584 1.90024 0
M  V30 589 O 59.978 -1.29672 1.44967 0
M  V30 590 C 60.261 1.78375 3.12817 0
M  V30 591 C 60.114 3.32296 3.03149 0
M  V30 592 C 61.433 1.54309 4.12161 0
M  V30 593 H 58.552 0.387251 0.627061 0
M  V30 594 H 61.194 1.51536 1.14616 0
M  V30 595 H 59.344 1.39848 3.62457 0
M  V30 596 H 61.016 3.8032 2.61064 0
M  V30 597 H 59.259 3.6153 2.39747 0
M  V30 598 H 59.93 3.77972 4.02295 0
M  V30 599 H 62.406 1.87791 3.71314 0
M  V30 600 H 61.282 2.07281 5.08258 0
M  V30 601 H 61.543 0.477572 4.39513 0
M  V30 602 N 60.6021 -1.18246 1.0419 0
M  V30 603 C 61.8301 -1.92195 0.766072 0
M  V30 604 C 62.2451 -1.76247 -0.676933 0
M  V30 605 O 61.6021 -1.09293 -1.46155 0
M  V30 606 C 61.6531 -3.43568 1.12442 0
M  V30 607 O 61.3741 -3.59015 2.51078 0
M  V30 608 C 62.8751 -4.34613 0.873275 0
M  V30 609 H 60.0951 -0.610114 0.279288 0
M  V30 610 H 62.6391 -1.50007 1.38989 0
M  V30 611 H 60.7941 -3.8354 0.545542 0
M  V30 612 H 61.2081 -4.5273 2.64831 0
M  V30 613 H 62.6821 -5.39374 1.17385 0
M  V30 614 H 63.1591 -4.38781 -0.191909 0
M  V30 615 H 63.7651 -4.00341 1.43551 0
M  V30 616 N 62.0802 -0.821533 -1.34494 0
M  V30 617 C 63.0272 -0.240397 -2.29545 0
M  V30 618 C 63.9972 0.634031 -1.53523 0
M  V30 619 O 65.1822 0.575966 -1.81899 0
M  V30 620 C 62.3222 0.592869 -3.39969 0
M  V30 621 C 61.4352 -0.30365 -4.30932 0
M  V30 622 C 60.5702 0.539049 -5.28458 0
M  V30 623 C 59.6092 -0.356942 -6.11058 0
M  V30 624 N 58.7462 0.446603 -7.00678 0
M  V30 625 H 63.5862 -1.05632 -2.7865 0
M  V30 626 H 61.1232 -0.532413 -1.37127 0
M  V30 627 H 63.0812 1.09129 -4.02675 0
M  V30 628 H 61.7112 1.37392 -2.92102 0
M  V30 629 H 60.7632 -0.920276 -3.691 0
M  V30 630 H 62.0752 -0.992661 -4.88823 0
M  V30 631 H 61.2292 1.102 -5.96608 0
M  V30 632 H 59.9682 1.26157 -4.71101 0
M  V30 633 H 58.9732 -0.932047 -5.41842 0
M  V30 634 H 60.1982 -1.07755 -6.70497 0
M  V30 635 H 58.1442 1.15282 -6.45791 0
M  V30 636 H 58.0612 -0.184048 -7.55776 0
M  V30 637 H 59.3292 0.992352 -7.73158 0
M  V30 638 N 63.5583 1.46682 -0.576371 0
M  V30 639 C 64.8063 2.02013 -0.0594163 0
M  V30 640 C 65.1273 1.45101 1.30271 0
M  V30 641 O 64.3973 0.633317 1.8538 0
M  V30 642 H 62.9773 0.746759 -0.0189745 0
M  V30 643 H 65.6393 1.79862 -0.750717 0
M  V30 644 H 64.7353 3.12097 0.014345 0
M  V30 645 N 65.0364 0.313813 1.54444 0
M  V30 646 C 65.9664 -0.549454 2.26943 0
M  V30 647 C 66.9474 -1.12741 1.27372 0
M  V30 648 O 68.1324 -1.15436 1.56167 0
M  V30 649 C 65.2624 -1.71523 3.01989 0
M  V30 650 C 64.2164 -1.26703 4.08816 0
M  V30 651 C 63.5424 -2.51898 4.71647 0
M  V30 652 C 64.8424 -0.388962 5.2085 0
M  V30 653 H 66.5364 0.0552661 2.99349 0
M  V30 654 H 64.0824 0.0280207 1.43973 0
M  V30 655 H 66.0354 -2.32535 3.51433 0
M  V30 656 H 64.7594 -2.34639 2.27183 0
M  V30 657 H 63.4184 -0.679896 3.6024 0
M  V30 658 H 63.0664 -3.13356 3.93468 0
M  V30 659 H 62.7664 -2.22605 5.43802 0
M  V30 660 H 64.2904 -3.1369 5.23861 0
M  V30 661 H 65.7044 -0.905107 5.6611 0
M  V30 662 H 64.1014 -0.18924 5.99802 0
M  V30 663 H 65.1714 0.582699 4.81386 0
M  V30 664 N 66.5145 -1.57545 0.0417849 0
M  V30 665 C 67.7625 -1.91937 -0.632829 0
M  V30 666 C 68.0835 -0.919978 -1.71934 0
M  V30 667 O 67.3535 0.0366064 -1.95866 0
M  V30 668 H 65.9335 -0.708493 -0.236742 0
M  V30 669 H 68.5955 -1.9468 0.0925745 0
M  V30 670 H 67.6915 -2.92912 -1.07746 0
M  V30 671 N 67.9926 0.231505 -1.5589 0
M  V30 672 C 68.9246 1.31006 -1.8807 0
M  V30 673 C 69.9376 1.43539 -0.768145 0
M  V30 674 O 71.1266 1.44614 -1.04638 0
M  V30 675 C 68.2266 2.68688 -2.06543 0
M  V30 676 C 67.3996 2.78228 -3.37502 0
M  V30 677 C 66.4586 3.96857 -3.4553 0
M  V30 678 O 65.4846 3.85662 -4.18633 0
M  V30 679 N 66.6866 5.1072 -2.75944 0
M  V30 680 H 69.4516 1.03731 -2.81176 0
M  V30 681 H 67.0126 0.421573 -1.56315 0
M  V30 682 H 69.0046 3.46412 -2.09239 0
M  V30 683 H 67.5746 2.88605 -1.20109 0
M  V30 684 H 66.7946 1.87059 -3.46991 0
M  V30 685 H 68.0826 2.81564 -4.23791 0
M  V30 686 H 67.4806 5.2271 -2.16311 0
M  V30 687 H 66.0376 5.86523 -2.84314 0
M  V30 688 N 69.4707 1.49531 0.497807 0
M  V30 689 C 70.7197 1.58426 1.24837 0
M  V30 690 C 71.0327 0.277643 1.93619 0
M  V30 691 O 72.2387 0.24517 2.70391 0
M  V30 692 C 70.6947 2.79538 2.26686 0
M  V30 693 C 70.3027 4.16971 1.63828 0
M  V30 694 C 72.0467 2.97764 3.0255 0
M  V30 695 C 69.9537 5.29301 2.63807 0
M  V30 696 H 68.8837 0.58989 0.469623 0
M  V30 697 H 71.5347 1.75923 0.521857 0
M  V30 698 H 69.9167 2.55542 3.02514 0
M  V30 699 H 71.0907 4.51116 0.939711 0
M  V30 700 H 69.4057 4.04129 1.00342 0
M  V30 701 H 72.0027 3.78856 3.77323 0
M  V30 702 H 72.3457 2.08448 3.60354 0
M  V30 703 H 72.8787 3.21815 2.33838 0
M  V30 704 H 69.6177 6.20687 2.10779 0
M  V30 705 H 69.1377 4.99606 3.31894 0
M  V30 706 H 70.8167 5.58768 3.2617 0
M  V30 707 N 70.9488 -0.749086 1.3866 0
M  V30 708 C 71.9118 -1.84457 1.36045 0
M  V30 709 C 72.9118 -1.58682 0.260122 0
M  V30 710 O 74.1018 -1.66343 0.517261 0
M  V30 711 C 71.2338 -3.22008 1.11911 0
M  V30 712 H 72.4268 -1.88182 2.33512 0
M  V30 713 H 69.9798 -0.951266 1.24019 0
M  V30 714 H 70.7148 -3.2395 0.150686 0
M  V30 715 H 70.4998 -3.42111 1.91579 0
M  V30 716 H 71.9898 -4.0208 1.12788 0
M  V30 717 N 72.4269 -1.23603 -0.977757 0
M  V30 718 C 73.6549 -1.09646 -1.75458 0
M  V30 719 C 74.0699 0.351859 -1.85492 0
M  V30 720 O 73.4269 1.24327 -1.336 0
M  V30 721 C 73.4779 -1.71895 -3.18016 0
M  V30 722 O 73.1989 -3.11063 -3.08498 0
M  V30 723 C 74.6999 -1.63415 -4.12081 0
M  V30 724 H 71.9199 -0.38359 -0.550545 0
M  V30 725 H 74.4639 -1.63507 -1.22824 0
M  V30 726 H 72.6189 -1.22061 -3.67668 0
M  V30 727 H 73.0329 -3.41305 -3.9826 0
M  V30 728 H 74.5069 -2.11669 -5.09804 0
M  V30 729 H 74.9839 -0.593462 -4.35172 0
M  V30 730 H 75.5899 -2.12628 -3.68334 0
M  V30 731 N 73.905 1.17692 -1.04816 0
M  V30 732 C 75.321 1.39863 -0.768794 0
M  V30 733 C 75.521 1.91118 0.638451 0
M  V30 734 O 74.577 2.10036 1.40146 0
M  V30 735 C 75.89 2.39274 -1.82122 0
M  V30 736 C 77.438 2.52987 -1.843 0
M  V30 737 C 77.913 3.55669 -2.88555 0
M  V30 738 N 79.404 3.63183 -2.87493 0
M  V30 739 C 80.139 4.42381 -3.64811 0
M  V30 740 N 79.635 5.25125 -4.51903 0
M  V30 741 N 81.428 4.37217 -3.53267 0
M  V30 742 H 73.579 0.82752 -1.95617 0
M  V30 743 H 75.842 0.426123 -0.846831 0
M  V30 744 H 75.548 2.08678 -2.83102 0
M  V30 745 H 75.422 3.38725 -1.65967 0
M  V30 746 H 77.809 2.82896 -0.839869 0
M  V30 747 H 77.89 1.53623 -2.04532 0
M  V30 748 H 77.534 3.26499 -3.89051 0
M  V30 749 H 77.464 4.54728 -2.65575 0
M  V30 750 H 79.955 3.04103 -2.24343 0
M  V30 751 H 80.268 5.82728 -5.07591 0
M  V30 752 H 78.613 5.24519 -4.55966 0
M  V30 753 H 81.804 3.71626 -2.84625 0
M  V30 754 H 81.977 4.98696 -4.13771 0
M  V30 755 N 75.3831 0.828654 1.34056 0
M  V30 756 C 76.3131 0.269443 2.3194 0
M  V30 757 C 77.2941 -0.617247 1.58506 0
M  V30 758 O 78.4791 -0.542931 1.86456 0
M  V30 759 C 75.6091 -0.564793 3.42677 0
M  V30 760 C 74.5631 0.225241 4.27407 0
M  V30 761 C 73.8891 -0.7321 5.29664 0
M  V30 762 C 75.1891 1.43663 5.02154 0
M  V30 763 H 76.8831 1.08728 2.7896 0
M  V30 764 H 74.4291 0.524283 1.34117 0
M  V30 765 H 76.3821 -0.966233 4.10173 0
M  V30 766 H 75.1061 -1.41574 2.9432 0
M  V30 767 H 73.7651 0.608117 3.61521 0
M  V30 768 H 73.4131 -1.57916 4.77568 0
M  V30 769 H 73.1131 -0.20767 5.87233 0
M  V30 770 H 74.6371 -1.13128 6.00029 0
M  V30 771 H 76.0511 1.1089 5.62473 0
M  V30 772 H 74.4481 1.89711 5.69324 0
M  V30 773 H 75.5181 2.21181 4.31517 0
M  V30 774 N 76.8612 -1.46375 0.584142 0
M  V30 775 C 78.2772 -1.57694 0.245929 0
M  V30 776 C 78.4772 -1.57903 -1.25175 0
M  V30 777 O 77.5332 -1.49676 -2.03355 0
M  V30 778 C 78.8462 -2.87028 0.896402 0
M  V30 779 C 80.3942 -3.00662 0.870127 0
M  V30 780 C 80.8692 -4.32734 1.50017 0
M  V30 781 N 82.3602 -4.39436 1.46458 0
M  V30 782 C 83.0952 -5.40248 1.92144 0
M  V30 783 N 82.5912 -6.47726 2.4581 0
M  V30 784 N 84.3842 -5.31459 1.83052 0
M  V30 785 H 76.5352 -1.44483 1.55687 0
M  V30 786 H 78.7982 -0.689291 0.650831 0
M  V30 787 H 78.5042 -2.9269 1.95002 0
M  V30 788 H 78.3782 -3.75014 0.405486 0
M  V30 789 H 80.7652 -2.94581 -0.174871 0
M  V30 790 H 80.8462 -2.14148 1.39908 0
M  V30 791 H 80.4902 -4.39573 2.54437 0
M  V30 792 H 80.4202 -5.18025 0.946432 0
M  V30 793 H 82.9112 -3.62367 1.07231 0
M  V30 794 H 83.2242 -7.20863 2.78525 0
M  V30 795 H 81.5692 -6.48542 2.49836 0
M  V30 796 H 84.7602 -4.46396 1.40883 0
M  V30 797 H 84.9332 -6.09881 2.18973 0
M  V30 798 N 78.3393 -0.321999 -1.54275 0
M  V30 799 C 79.3023 0.531975 -2.22941 0
M  V30 800 C 80.3023 1.04478 -1.22234 0
M  V30 801 O 81.4923 0.937452 -1.46825 0
M  V30 802 C 78.6243 1.73874 -2.93224 0
M  V30 803 H 79.8173 -0.0682612 -2.99822 0
M  V30 804 H 77.3703 -0.0730644 -1.56129 0
M  V30 805 H 78.1053 2.37825 -2.20476 0
M  V30 806 H 77.8903 1.37847 -3.6707 0
M  V30 807 H 79.3803 2.34496 -3.45545 0
M  V30 808 N 79.8174 1.5752 -0.0501392 0
M  V30 809 C 80.7274 2.14952 0.939827 0
M  V30 810 C 81.7434 1.10706 1.34239 0
M  V30 811 O 82.9194 1.42869 1.41952 0
M  V30 812 C 79.9844 2.68232 2.19665 0
M  V30 813 C 79.0454 3.87272 1.85253 0
M  V30 814 C 78.2784 4.38002 3.04943 0
M  V30 815 O 78.5014 3.87811 4.18281 0
M  V30 816 O 77.4354 5.29602 2.86017 0
M  V30 817 H 81.2614 2.9986 0.481392 0
M  V30 818 H 78.8464 1.4841 0.171699 0
M  V30 819 H 80.7284 3.02475 2.93406 0
M  V30 820 H 79.4034 1.86395 2.64648 0
M  V30 821 H 78.3104 3.5792 1.0883 0
M  V30 822 H 79.6434 4.70336 1.4507 0
M  V30 823 N 81.2955 -0.223234 1.56011 0
M  V30 824 C 82.5435 -0.946003 1.78592 0
M  V30 825 C 82.8645 -1.84936 0.618349 0
M  V30 826 O 82.1345 -1.92473 -0.364833 0
M  V30 827 H 80.7145 -0.352298 0.658707 0
M  V30 828 H 83.3765 -0.235494 1.93472 0
M  V30 829 H 82.4725 -1.55381 2.70672 0
M  V30 830 N 82.7736 -1.49793 -0.48987 0
M  V30 831 C 83.7206 -1.67281 -1.59014 0
M  V30 832 C 84.6906 -0.514177 -1.57941 0
M  V30 833 O 85.8756 -0.742533 -1.75759 0
M  V30 834 C 83.0156 -1.75569 -2.97102 0
M  V30 835 C 82.1286 -3.0281 -3.08107 0
M  V30 836 C 81.2636 -3.02008 -4.36995 0
M  V30 837 C 80.3026 -4.23782 -4.41673 0
M  V30 838 N 79.4396 -4.20826 -5.62005 0
M  V30 839 H 84.2796 -2.61224 -1.43409 0
M  V30 840 H 81.8166 -1.29508 -0.697565 0
M  V30 841 H 83.7746 -1.78354 -3.77155 0
M  V30 842 H 82.4046 -0.850827 -3.11385 0
M  V30 843 H 81.4566 -3.09584 -2.21047 0
M  V30 844 H 82.7686 -3.92801 -3.07423 0
M  V30 845 H 81.9226 -3.03418 -5.25378 0
M  V30 846 H 80.6616 -2.09815 -4.4026 0
M  V30 847 H 79.6666 -4.22604 -3.5169 0
M  V30 848 H 80.8916 -5.17181 -4.40115 0
M  V30 849 H 78.8376 -3.31476 -5.66091 0
M  V30 850 H 78.7546 -5.04564 -5.62984 0
M  V30 851 H 80.0226 -4.26355 -6.52565 0
M  V30 852 N 84.2517 0.741722 -1.39055 0
M  V30 853 C 85.2147 1.83733 -1.37021 0
M  V30 854 C 86.2147 1.58542 -0.268534 0
M  V30 855 O 87.4047 1.66067 -0.526076 0
M  V30 856 C 84.5367 3.2141 -1.13617 0
M  V30 857 H 85.7297 1.86941 -2.34506 0
M  V30 858 H 83.2827 0.944676 -1.24521 0
M  V30 859 H 84.0177 3.23865 -0.167863 0
M  V30 860 H 83.8027 3.4109 -1.93391 0
M  V30 861 H 85.2927 4.01477 -1.14918 0
M  V30 862 N 85.7298 1.2412 0.971189 0
M  V30 863 C 86.9758 1.08041 1.71625 0
M  V30 864 C 87.3088 -0.380407 1.90438 0
M  V30 865 O 86.5838 -1.28127 1.46334 0
M  V30 866 C 86.8668 1.81682 3.10908 0
M  V30 867 C 86.7198 3.35493 2.99608 0
M  V30 868 C 88.0388 1.58671 4.10501 0
M  V30 869 H 85.1578 0.39388 0.622919 0
M  V30 870 H 87.7998 1.52743 1.13003 0
M  V30 871 H 85.9498 1.43684 3.60953 0
M  V30 872 H 87.6218 3.83068 2.57015 0
M  V30 873 H 85.8648 3.64052 2.35899 0
M  V30 874 H 86.5358 3.82217 3.98264 0
M  V30 875 H 89.0118 1.91719 3.69301 0
M  V30 876 H 87.8878 2.1266 5.06031 0
M  V30 877 H 88.1488 0.524161 4.38982 0
M  V30 878 N 87.2079 -1.17134 1.05439 0
M  V30 879 C 88.4849 -1.83411 0.679699 0
M  V30 880 C 88.8649 -1.9368 -0.839726 0
M  V30 881 O 88.2129 -1.47325 -1.74664 0
M  V30 882 C 88.4229 -3.20918 1.37159 0
M  V30 883 C 89.7709 -3.96796 1.51123 0
M  V30 884 O 90.7949 -3.30406 1.3308 0
M  V30 885 O 89.6539 -5.15778 1.80651 0
M  V30 886 H 86.7479 -0.79154 0.239569 0
M  V30 887 H 89.2939 -1.24411 1.15413 0
M  V30 888 H 88.0659 -3.08428 2.40807 0
M  V30 889 H 87.6889 -3.87587 0.886674 0
M  V30 890 N 88.686 -0.835752 -1.33615 0
M  V30 891 C 89.636 -0.238856 -2.26745 0
M  V30 892 C 90.62 0.604343 -1.49119 0
M  V30 893 O 91.812 0.456822 -1.71003 0
M  V30 894 C 88.941 0.587725 -3.38232 0
M  V30 895 C 88.027 -0.266811 -4.2326 0
M  V30 896 N 88.418 -1.34403 -4.87616 0
M  V30 897 C 86.716 -0.0533131 -4.45968 0
M  V30 898 C 87.417 -1.86819 -5.50884 0
M  V30 899 N 86.393 -1.17013 -5.30857 0
M  V30 900 H 90.195 -1.06266 -2.74016 0
M  V30 901 H 87.709 -0.679881 -1.47483 0
M  V30 902 H 89.706 1.03161 -4.03935 0
M  V30 903 H 88.366 1.40954 -2.9251 0
M  V30 904 H 89.377 -1.7269 -4.88261 0
M  V30 905 H 86.054 0.735312 -4.10974 0
M  V30 906 H 87.444 -2.7701 -6.1214 0
M  V30 907 N 90.1641 1.46063 -0.591896 0
M  V30 908 C 91.5801 1.57561 -0.254288 0
M  V30 909 C 91.7801 1.58565 1.24336 0
M  V30 910 O 90.8361 1.50753 2.02558 0
M  V30 911 C 92.1491 2.86549 -0.911611 0
M  V30 912 C 93.6971 3.00197 -0.886059 0
M  V30 913 C 94.1721 4.31933 -1.5231 0
M  V30 914 N 95.6631 4.38654 -1.48786 0
M  V30 915 C 96.3981 5.39222 -1.95006 0
M  V30 916 N 95.8941 6.46414 -2.49241 0
M  V30 917 N 97.6871 5.3048 -1.85868 0
M  V30 918 H 89.8381 1.43655 -1.56451 0
M  V30 919 H 92.1011 0.68583 -0.654478 0
M  V30 920 H 91.8071 2.91651 -1.96551 0
M  V30 921 H 91.6811 3.74794 -0.425368 0
M  V30 922 H 94.0681 2.9467 0.159246 0
M  V30 923 H 94.1491 2.13403 -1.41041 0
M  V30 924 H 93.7931 4.38217 -2.56765 0
M  V30 925 H 93.7231 5.17516 -0.973891 0
M  V30 926 H 96.2141 3.61793 -1.09151 0
M  V30 927 H 96.5271 7.19376 -2.82344 0
M  V30 928 H 94.8721 6.47208 -2.53272 0
M  V30 929 H 98.0631 4.45643 -1.43248 0
M  V30 930 H 98.2361 6.08711 -2.22204 0
M  V30 931 N 91.6422 0.330177 1.54103 0
M  V30 932 C 92.8912 -0.271336 1.99867 0
M  V30 933 C 93.2042 -1.52723 1.22209 0
M  V30 934 O 94.4102 -2.20515 1.58383 0
M  V30 935 C 92.8662 -0.534032 3.55916 0
M  V30 936 C 92.4742 0.705193 4.42415 0
M  V30 937 C 94.2182 -1.09514 4.1013 0
M  V30 938 C 92.1252 0.414035 5.89949 0
M  V30 939 H 91.0552 -0.105166 0.74663 0
M  V30 940 H 93.7062 0.443429 1.78062 0
M  V30 941 H 92.0882 -1.30915 3.73734 0
M  V30 942 H 93.2622 1.4804 4.36372 0
M  V30 943 H 91.5772 1.18698 3.99124 0
M  V30 944 H 94.1742 -1.3277 5.17954 0
M  V30 945 H 94.5172 -2.04656 3.62521 0
M  V30 946 H 95.0502 -0.381038 3.95971 0
M  V30 947 H 91.7892 1.33481 6.41766 0
M  V30 948 H 91.3092 -0.323336 5.98928 0
M  V30 949 H 92.9882 0.0263105 6.46995 0
M  V30 950 N 93.1203 -1.57491 0.0584922 0
M  V30 951 C 94.3973 -1.84346 -0.653918 0
M  V30 952 C 94.7773 -0.948355 -1.88599 0
M  V30 953 O 94.1253 -0.0112403 -2.28497 0
M  V30 954 C 94.3353 -3.34239 -1.00425 0
M  V30 955 C 95.6833 -4.01431 -1.38342 0
M  V30 956 O 96.7073 -3.38907 -1.09637 0
M  V30 957 O 95.5663 -5.11683 -1.91943 0
M  V30 958 H 92.6603 -0.761112 -0.323478 0
M  V30 959 H 95.2063 -1.6947 0.0884125 0
M  V30 960 H 93.9783 -3.91089 -0.128625 0
M  V30 961 H 93.6013 -3.54329 -1.80378 0
M  V30 962 N 94.5984 0.214957 -1.56127 0
M  V30 963 C 96.0144 0.564948 -1.49267 0
M  V30 964 C 96.2144 1.86827 -0.754838 0
M  V30 965 O 95.2704 2.50745 -0.297198 0
M  V30 966 C 96.5834 0.638071 -2.93852 0
M  V30 967 C 98.1314 0.728253 -3.0441 0
M  V30 968 C 98.6064 0.832663 -4.50367 0
M  V30 969 N 100.097 0.896712 -4.54437 0
M  V30 970 C 100.832 0.997324 -5.6466 0
M  V30 971 N 100.328 1.06147 -6.8462 0
M  V30 972 N 102.121 1.03297 -5.52527 0
M  V30 973 H 94.2724 -0.640211 -2.02522 0
M  V30 974 H 96.5354 -0.225507 -0.920788 0
M  V30 975 H 96.2414 -0.250126 -3.50809 0
M  V30 976 H 96.1154 1.49947 -3.46115 0
M  V30 977 H 98.5024 1.60689 -2.47514 0
M  V30 978 H 98.5834 -0.158952 -2.55306 0
M  V30 979 H 98.2274 -0.0415417 -5.07883 0
M  V30 980 H 98.1574 1.73538 -4.97184 0
M  V30 981 H 100.648 0.857188 -3.6805 0
M  V30 982 H 100.961 1.1382 -7.64372 0
M  V30 983 H 99.3064 1.03049 -6.87318 0
M  V30 984 H 102.497 0.979558 -4.57736 0
M  V30 985 H 102.67 1.10793 -6.38458 0
M  V30 986 N 96.0765 1.50051 0.48192 0
M  V30 987 C 97.0065 1.71046 1.58951 0
M  V30 988 C 97.9875 0.559288 1.60642 0
M  V30 989 O 99.1725 0.797243 1.77081 0
M  V30 990 C 96.3025 1.79462 2.97339 0
M  V30 991 C 95.2565 2.94558 3.10515 0
M  V30 992 C 94.5825 2.88105 4.50444 0
M  V30 993 C 95.8825 4.35227 2.88747 0
M  V30 994 H 97.5765 2.6378 1.41635 0
M  V30 995 H 95.1225 1.26936 0.679942 0
M  V30 996 H 97.0755 1.92734 3.74742 0
M  V30 997 H 95.7995 0.833412 3.15788 0
M  V30 998 H 94.4585 2.80918 2.35543 0
M  V30 999 H 94.1065 1.89853 4.65795 0
M  V30 1000 H 93.8065 3.65366 4.60197 0
M  V30 1001 H 95.3305 3.03412 5.29881 0
M  V30 1002 H 96.7445 4.49449 3.55905 0
M  V30 1003 H 95.1415 5.13856 3.09955 0
M  V30 1004 H 96.2115 4.48347 1.84696 0
M  V30 1005 N 97.5546 -0.734337 1.39446 0
M  V30 1006 C 98.8006 -1.49613 1.36908 0
M  V30 1007 C 99.1336 -1.94169 -0.0347829 0
M  V30 1008 O 98.4086 -1.66833 -0.999847 0
M  V30 1009 C 98.6916 -2.73534 2.34203 0
M  V30 1010 C 98.5446 -2.34993 3.83534 0
M  V30 1011 C 99.8636 -3.75635 2.29317 0
M  V30 1012 H 96.9826 -0.542714 0.498629 0
M  V30 1013 H 99.6246 -0.839597 1.70443 0
M  V30 1014 H 97.7746 -3.29553 2.05736 0
M  V30 1015 H 99.4466 -1.84601 4.22753 0
M  V30 1016 H 97.6896 -1.67213 4.00278 0
M  V30 1017 H 98.3606 -3.23738 4.47099 0
M  V30 1018 H 100.837 -3.29203 2.54489 0
M  V30 1019 H 99.7126 -4.60008 2.99472 0
M  V30 1020 H 99.9736 -4.22603 1.29842 0
M  V30 1021 N 99.0327 -1.24633 -0.964593 0
M  V30 1022 C 100.261 -1.11501 -1.74285 0
M  V30 1023 C 100.676 0.332165 -1.85855 0
M  V30 1024 O 100.033 1.22903 -1.34911 0
M  V30 1025 C 100.084 -1.75258 -3.16175 0
M  V30 1026 O 99.8047 -3.14318 -3.05182 0
M  V30 1027 C 101.306 -1.67776 -4.10324 0
M  V30 1028 H 98.5257 -0.389407 -0.546446 0
M  V30 1029 H 101.07 -1.64801 -1.21083 0
M  V30 1030 H 99.2247 -1.25954 -3.66353 0
M  V30 1031 H 99.6387 -3.4551 -3.94618 0
M  V30 1032 H 101.113 -2.17064 -5.0753 0
M  V30 1033 H 101.59 -0.639584 -4.34518 0
M  V30 1034 H 102.196 -2.16522 -3.66058 0
M  V30 1035 N 100.511 1.16574 -1.06058 0
M  V30 1036 C 101.759 1.86677 -0.77434 0
M  V30 1037 C 102.08 1.81959 0.701147 0
M  V30 1038 O 101.35 1.2515 1.50713 0
M  V30 1039 H 99.9298 0.691134 -0.283449 0
M  V30 1040 H 102.592 1.41378 -1.34158 0
M  V30 1041 H 101.688 2.92181 -1.09711 0
M  V30 1042 N 101.989 0.842826 1.3317 0
M  V30 1043 C 102.937 0.267495 2.31057 0
M  V30 1044 C 103.931 -0.602682 1.58316 0
M  V30 1045 O 105.137 -0.491803 1.73151 0
M  V30 1046 H 101.512 0.0677813 0.748939 0
M  V30 1047 H 103.483 1.10754 2.77085 0
M  V30 1048 C 102.232 -0.539331 3.43492 0
M  V30 1049 H 101.555 0.12095 3.99617 0
M  V30 1050 H 102.995 -0.90767 4.14171 0
M  V30 1051 C 101.454 -1.71981 2.89697 0
M  V30 1052 O 101.984 -2.81862 2.86211 0
M  V30 1053 N 100.19 -1.54299 2.46252 0
M  V30 1054 H 99.7369 -0.649143 2.49287 0
M  V30 1055 H 99.6949 -2.33431 2.10612 0
M  V30 1056 N 103.467 -1.45747 0.599634 0
M  V30 1057 C 104.397 -2.33235 -0.111306 0
M  V30 1058 C 105.378 -1.46359 -0.866781 0
M  V30 1059 O 106.563 -1.75146 -0.838904 0
M  V30 1060 C 103.693 -3.28932 -1.11451 0
M  V30 1061 C 102.647 -4.25381 -0.472772 0
M  V30 1062 C 101.973 -5.1071 -1.58365 0
M  V30 1063 C 103.273 -5.18831 0.600948 0
M  V30 1064 H 104.967 -2.92927 0.61919 0
M  V30 1065 H 102.513 -1.40857 0.299215 0
M  V30 1066 H 104.466 -3.89002 -1.62036 0
M  V30 1067 H 103.19 -2.67381 -1.8755 0
M  V30 1068 H 101.849 -3.66598 0.0121472 0
M  V30 1069 H 101.497 -4.45533 -2.33473 0
M  V30 1070 H 101.197 -5.7604 -1.15982 0
M  V30 1071 H 102.721 -5.73647 -2.09194 0
M  V30 1072 H 104.135 -5.73019 0.179491 0
M  V30 1073 H 102.532 -5.92595 0.946076 0
M  V30 1074 H 103.602 -4.6174 1.48068 0
M  V30 1075 N 104.945 -0.338344 -1.53925 0
M  V30 1076 C 106.192 0.259758 -2.00827 0
M  V30 1077 C 106.52 1.50973 -1.22628 0
M  V30 1078 O 105.775 1.93379 -0.300509 0
M  V30 1079 C 106.074 0.62448 -3.51902 0
M  V30 1080 C 105.74 -0.528006 -4.47798 0
M  V30 1081 C 104.402 -0.844298 -4.73735 0
M  V30 1082 C 106.754 -1.30143 -5.0469 0
M  V30 1083 C 104.082 -1.93648 -5.53821 0
M  V30 1084 C 106.434 -2.38382 -5.85967 0
M  V30 1085 C 105.098 -2.70576 -6.10201 0
M  V30 1086 H 104.368 0.0950523 -0.734878 0
M  V30 1087 H 107.015 -0.465182 -1.85764 0
M  V30 1088 H 105.32 1.43006 -3.64769 0
M  V30 1089 H 107.017 1.09905 -3.85645 0
M  V30 1090 H 103.607 -0.271421 -4.2774 0
M  V30 1091 H 107.791 -1.07033 -4.84621 0
M  V30 1092 H 103.047 -2.19021 -5.70824 0
M  V30 1093 H 107.221 -2.98746 -6.29066 0
M  V30 1094 H 104.848 -3.55333 -6.72044 0
M  V30 1095 N 106.423 1.57458 -0.0668435 0
M  V30 1096 C 107.386 2.11323 0.887422 0
M  V30 1097 C 108.386 1.03618 1.22964 0
M  V30 1098 O 109.576 1.29626 1.16373 0
M  V30 1099 C 106.708 2.61048 2.19242 0
M  V30 1100 H 107.901 2.96942 0.420194 0
M  V30 1101 H 105.454 1.55239 0.181793 0
M  V30 1102 H 106.189 1.78868 2.70512 0
M  V30 1103 H 105.974 3.39769 1.95702 0
M  V30 1104 H 107.464 3.02814 2.87565 0
M  V30 1105 N 107.901 -0.206675 1.56239 0
M  V30 1106 C 109.129 -0.945345 1.8404 0
M  V30 1107 C 109.544 -1.77336 0.647885 0
M  V30 1108 O 108.901 -1.78425 -0.383511 0
M  V30 1109 C 108.952 -1.8509 3.10522 0
M  V30 1110 O 108.673 -1.05634 4.25174 0
M  V30 1111 C 110.174 -2.70222 3.51418 0
M  V30 1112 H 107.394 -0.276372 0.61144 0
M  V30 1113 H 109.938 -0.217417 2.03341 0
M  V30 1114 H 108.093 -2.53259 2.93153 0
M  V30 1115 H 108.507 -1.67238 4.97124 0
M  V30 1116 H 109.981 -3.29438 4.42916 0
M  V30 1117 H 110.458 -3.43358 2.73864 0
M  V30 1118 H 111.064 -2.07443 3.71278 0
M  V30 1119 N 109.379 -1.50304 -0.473955 0
M  V30 1120 C 110.628 -1.60392 -1.22301 0
M  V30 1121 C 110.941 -0.308411 -1.93153 0
M  V30 1122 O 112.147 -0.288156 -2.69966 0
M  V30 1123 C 110.603 -2.83109 -2.2221 0
M  V30 1124 C 110.211 -4.19524 -1.57173 0
M  V30 1125 C 111.955 -3.0254 -2.97775 0
M  V30 1126 C 109.862 -5.33431 -2.55353 0
M  V30 1127 H 108.792 -0.597286 -0.460179 0
M  V30 1128 H 111.443 -1.76731 -0.493803 0
M  V30 1129 H 109.825 -2.60322 -2.9841 0
M  V30 1130 H 110.999 -4.52554 -0.867824 0
M  V30 1131 H 109.314 -4.05674 -0.939002 0
M  V30 1132 H 111.911 -3.84811 -3.71248 0
M  V30 1133 H 112.254 -2.14154 -3.56992 0
M  V30 1134 H 112.787 -3.25494 -2.28688 0
M  V30 1135 H 109.526 -6.23962 -2.00878 0
M  V30 1136 H 109.046 -5.04823 -3.23904 0
M  V30 1137 H 110.725 -5.63887 -3.17239 0
M  V30 1138 N 110.857 0.726932 -1.39834 0
M  V30 1139 C 112.085 1.51613 -1.40787 0
M  V30 1140 C 112.5 1.88799 -0.00451505 0
M  V30 1141 O 111.857 1.54662 0.968809 0
M  V30 1142 C 111.908 2.79863 -2.28821 0
M  V30 1143 O 111.629 2.44253 -3.63692 0
M  V30 1144 C 113.13 3.73837 -2.38245 0
M  V30 1145 H 110.35 0.468264 -0.480593 0
M  V30 1146 H 112.894 0.897607 -1.83748 0
M  V30 1147 H 111.049 3.38027 -1.89252 0
M  V30 1148 H 111.463 3.26695 -4.1033 0
M  V30 1149 H 112.937 4.60699 -3.04073 0
M  V30 1150 H 113.414 4.16153 -1.40403 0
M  V30 1151 H 114.02 3.21589 -2.78317 0
M  V30 1152 N 112.336 1.25143 0.95797 0
M  V30 1153 C 113.284 1.05019 2.07542 0
M  V30 1154 C 114.278 -0.0178751 1.69391 0
M  V30 1155 O 115.484 0.137472 1.79474 0
M  V30 1156 H 111.859 0.32265 0.679265 0
M  V30 1157 H 113.83 1.99759 2.21673 0
M  V30 1158 C 112.579 0.682074 3.40944 0
M  V30 1159 H 111.902 1.49573 3.70767 0
M  V30 1160 H 113.342 0.580945 4.20001 0
M  V30 1161 C 111.801 -0.611608 3.31302 0
M  V30 1162 O 112.331 -1.65465 3.66038 0
M  V30 1163 N 110.537 -0.595982 2.84423 0
M  V30 1164 H 110.084 0.253192 2.56353 0
M  V30 1165 H 110.042 -1.46173 2.78354 0
M  V30 1166 N 113.814 -1.1601 1.06675 0
M  V30 1167 C 114.777 -2.18724 0.685001 0
M  V30 1168 C 115.777 -1.58496 -0.271246 0
M  V30 1169 O 116.967 -1.74119 -0.0531156 0
M  V30 1170 C 114.099 -3.40899 0.00853648 0
M  V30 1171 H 115.292 -2.54011 1.59431 0
M  V30 1172 H 112.845 -1.30352 0.862441 0
M  V30 1173 H 113.58 -3.11173 -0.913337 0
M  V30 1174 H 113.365 -3.8587 0.696204 0
M  V30 1175 H 114.855 -4.16886 -0.24414 0
M  V30 1176 N 115.292 -0.849877 -1.32721 0
M  V30 1177 C 116.24 -0.279745 -2.30912 0
M  V30 1178 C 117.234 0.594278 -1.58634 0
M  V30 1179 O 118.44 0.482613 -1.73409 0
M  V30 1180 H 114.815 -0.0717521 -0.748569 0
M  V30 1181 H 116.786 -1.12222 -2.76494 0
M  V30 1182 C 115.535 0.521108 -3.43773 0
M  V30 1183 H 114.858 -0.142141 -3.99547 0
M  V30 1184 H 116.298 0.885693 -4.14646 0
M  V30 1185 C 114.757 1.70442 -2.90605 0
M  V30 1186 O 115.287 2.8034 -2.87702 0
M  V30 1187 N 113.493 1.52991 -2.47067 0
M  V30 1188 H 113.04 0.635914 -2.49628 0
M  V30 1189 H 112.998 2.32311 -2.11847 0
M  V30 1190 N 116.77 1.45427 -0.607355 0
M  V30 1191 C 118.017 2.02241 -0.102455 0
M  V30 1192 C 118.345 1.4758 1.26691 0
M  V30 1193 O 117.6 0.640468 1.84923 0
M  V30 1194 C 117.899 3.57398 -0.0129263 0
M  V30 1195 C 117.565 4.3121 -1.31792 0
M  V30 1196 C 116.227 4.51092 -1.67539 0
M  V30 1197 C 118.579 4.73401 -2.18039 0
M  V30 1198 C 115.907 5.10422 -2.89285 0
M  V30 1199 C 118.259 5.34078 -3.39034 0
M  V30 1200 C 116.923 5.52184 -3.75033 0
M  V30 1201 H 116.193 0.740051 -0.037491 0
M  V30 1202 H 118.84 1.74494 -0.788926 0
M  V30 1203 H 117.145 3.84421 0.756806 0
M  V30 1204 H 118.842 3.99061 0.393881 0
M  V30 1205 H 115.432 4.16047 -1.02968 0
M  V30 1206 H 119.616 4.57774 -1.91721 0
M  V30 1207 H 114.872 5.22629 -3.17283 0
M  V30 1208 H 119.046 5.65724 -4.06115 0
M  V30 1209 H 116.673 5.97925 -4.69457 0
M  V30 1210 N 118.248 0.346503 1.53744 0
M  V30 1211 C 119.525 -0.304532 1.93215 0
M  V30 1212 C 119.905 -1.67993 1.27834 0
M  V30 1213 O 119.253 -2.24411 0.430352 0
M  V30 1214 C 119.463 -0.373852 3.46992 0
M  V30 1215 C 120.811 -0.62329 4.2 0
M  V30 1216 O 121.835 -0.455847 3.53271 0
M  V30 1217 O 120.694 -0.947879 5.38217 0
M  V30 1218 H 117.788 -0.178318 0.807547 0
M  V30 1219 H 120.334 0.397895 1.64969 0
M  V30 1220 H 119.106 0.591224 3.86808 0
M  V30 1221 H 118.729 -1.12294 3.81413 0
M  V30 1222 N 119.726 -1.57421 0.075193 0
M  V30 1223 C 121.003 -1.85029 -0.634329 0
M  V30 1224 C 121.383 -0.968305 -1.87582 0
M  V30 1225 O 120.731 -0.0354749 -2.28472 0
M  V30 1226 C 120.941 -3.35286 -0.968742 0
M  V30 1227 C 122.289 -4.02875 -1.34077 0
M  V30 1228 O 123.313 -3.40051 -1.06037 0
M  V30 1229 O 122.172 -5.13691 -1.86506 0
M  V30 1230 H 119.266 -0.7645 -0.315387 0
M  V30 1231 H 121.812 -1.69366 0.106382 0
M  V30 1232 H 120.584 -3.91203 -0.0871376 0
M  V30 1233 H 120.207 -3.56223 -1.7661 0
M  V30 1234 N 121.204 0.198386 -1.56346 0
M  V30 1235 C 122.481 0.944982 -1.71258 0
M  V30 1236 C 122.861 2.0151 -0.629048 0
M  V30 1237 O 122.209 2.25639 0.360473 0
M  V30 1238 C 122.419 1.5344 -3.1346 0
M  V30 1239 C 123.767 2.01778 -3.73591 0
M  V30 1240 O 124.791 1.63288 -3.16568 0
M  V30 1241 O 123.65 2.72594 -4.73661 0
M  V30 1242 H 120.744 0.442939 -0.69838 0
M  V30 1243 H 123.29 0.188342 -1.68652 0
M  V30 1244 H 122.062 0.762869 -3.83792 0
M  V30 1245 H 121.685 2.35596 -3.20282 0
M  V30 1246 N 122.682 1.50554 0.465978 0
M  V30 1247 C 123.931 1.61038 1.21448 0
M  V30 1248 C 124.244 0.31865 1.92987 0
M  V30 1249 O 125.45 0.302469 2.6981 0
M  V30 1250 C 123.906 2.84283 2.20706 0
M  V30 1251 C 123.514 4.20352 1.54946 0
M  V30 1252 C 125.258 3.04115 2.96166 0
M  V30 1253 C 123.165 5.34778 2.5252 0
M  V30 1254 H 122.095 0.599718 0.457005 0
M  V30 1255 H 124.746 1.7699 0.484424 0
M  V30 1256 H 123.128 2.61901 2.97025 0
M  V30 1257 H 124.302 4.53008 0.843811 0
M  V30 1258 H 122.617 4.06167 0.917475 0
M  V30 1259 H 125.214 3.86774 3.69202 0
M  V30 1260 H 125.557 2.16045 3.55852 0
M  V30 1261 H 126.09 3.26702 2.26959 0
M  V30 1262 H 122.829 6.25018 1.97566 0
M  V30 1263 H 122.349 5.06534 3.21222 0
M  V30 1264 H 124.028 5.65561 3.14245 0
M  V30 1265 N 124.16 -0.719506 1.40217 0
M  V30 1266 C 125.09 -1.8465 1.42922 0
M  V30 1267 C 126.071 -1.67599 0.29062 0
M  V30 1268 O 127.256 -1.87688 0.498677 0
M  V30 1269 C 124.386 -3.22565 1.28722 0
M  V30 1270 C 123.34 -3.54281 2.40144 0
M  V30 1271 C 122.666 -4.91298 2.11023 0
M  V30 1272 C 123.966 -3.55676 3.82481 0
M  V30 1273 H 125.66 -1.82644 2.37237 0
M  V30 1274 H 123.206 -0.877305 1.1419 0
M  V30 1275 H 125.159 -4.01095 1.29232 0
M  V30 1276 H 123.883 -3.25137 0.308811 0
M  V30 1277 H 122.542 -2.78088 2.38877 0
M  V30 1278 H 122.19 -4.90468 1.11582 0
M  V30 1279 H 121.89 -5.13485 2.8567 0
M  V30 1280 H 123.414 -5.72166 2.13209 0
M  V30 1281 H 124.828 -4.24254 3.85592 0
M  V30 1282 H 123.225 -3.89388 4.56614 0
M  V30 1283 H 124.295 -2.55144 4.12346 0
M  V30 1284 N 125.638 -1.25649 -0.95132 0
M  V30 1285 C 126.601 -1.06399 -2.03007 0
M  V30 1286 C 127.601 -0.0156794 -1.60792 0
M  V30 1287 O 128.791 -0.25817 -1.72276 0
M  V30 1288 C 125.923 -0.616184 -3.35285 0
M  V30 1289 H 127.116 -2.02164 -2.21517 0
M  V30 1290 H 124.669 -1.08103 -1.12887 0
M  V30 1291 H 125.404 0.343917 -3.22471 0
M  V30 1292 H 125.189 -1.37301 -3.67275 0
M  V30 1293 H 126.679 -0.503032 -4.14559 0
M  V30 1294 N 127.117 1.15442 -1.07289 0
M  V30 1295 C 128.027 2.23786 -0.704057 0
M  V30 1296 C 129.043 1.7166 0.284413 0
M  V30 1297 O 130.219 2.00972 0.131205 0
M  V30 1298 C 127.284 3.46535 -0.106792 0
M  V30 1299 C 126.345 4.13654 -1.14842 0
M  V30 1300 C 125.578 5.30544 -0.57956 0
M  V30 1301 O 125.801 5.67187 0.604585 0
M  V30 1302 O 124.735 5.87154 -1.32414 0
M  V30 1303 H 128.561 2.57664 -1.60757 0
M  V30 1304 H 126.146 1.23152 -0.845803 0
M  V30 1305 H 128.028 4.20804 0.224048 0
M  V30 1306 H 126.703 3.14407 0.770049 0
M  V30 1307 H 125.61 3.4131 -1.5316 0
M  V30 1308 H 126.943 4.49861 -1.99714 0
M  V30 1309 N 128.595 0.856903 1.32268 0
M  V30 1310 C 130.011 0.547061 1.49931 0
M  V30 1311 C 130.211 -0.921781 1.7918 0
M  V30 1312 O 129.267 -1.70469 1.8627 0
M  V30 1313 C 130.58 1.43599 2.64196 0
M  V30 1314 C 132.128 1.43665 2.78081 0
M  V30 1315 C 132.603 2.31085 3.95428 0
M  V30 1316 N 134.094 2.28893 4.02694 0
M  V30 1317 C 134.829 2.93262 4.92732 0
M  V30 1318 N 134.325 3.66751 5.87763 0
M  V30 1319 N 136.118 2.82638 4.85873 0
M  V30 1320 H 128.269 1.8075 1.11549 0
M  V30 1321 H 130.532 0.772144 0.549997 0
M  V30 1322 H 130.238 2.48058 2.49319 0
M  V30 1323 H 130.112 1.12502 3.60032 0
M  V30 1324 H 132.499 0.399701 2.92381 0
M  V30 1325 H 132.58 1.7878 1.82952 0
M  V30 1326 H 132.224 3.34849 3.81888 0
M  V30 1327 H 132.154 1.93302 4.89839 0
M  V30 1328 H 134.645 1.75466 3.34694 0
M  V30 1329 H 134.958 4.13027 6.53168 0
M  V30 1330 H 133.303 3.70859 5.87783 0
M  V30 1331 H 136.494 2.24774 4.10602 0
M  V30 1332 H 136.667 3.33084 5.55841 0
M  V30 1333 N 130.073 -1.45103 0.615059 0
M  V30 1334 C 131.319 -2.02483 0.113347 0
M  V30 1335 C 131.652 -1.48146 -1.25564 0
M  V30 1336 O 130.927 -0.659104 -1.82992 0
M  V30 1337 C 131.21 -3.60005 0.0825278 0
M  V30 1338 C 131.063 -4.2466 1.48271 0
M  V30 1339 C 132.382 -4.35972 -0.601401 0
M  V30 1340 H 129.501 -0.735764 0.0426632 0
M  V30 1341 H 132.143 -1.72868 0.788461 0
M  V30 1342 H 130.293 -3.85367 -0.492378 0
M  V30 1343 H 131.965 -4.10458 2.10527 0
M  V30 1344 H 130.208 -3.82772 2.04127 0
M  V30 1345 H 130.879 -5.336 1.41332 0
M  V30 1346 H 133.355 -4.15947 -0.112666 0
M  V30 1347 H 132.231 -5.45697 -0.592097 0
M  V30 1348 H 132.492 -4.09391 -1.66887 0
M  V30 1349 N 131.551 -0.354651 -1.53558 0
M  V30 1350 C 132.967 -0.00315426 -1.596 0
M  V30 1351 C 133.167 1.47741 -1.37021 0
M  V30 1352 O 132.223 2.23759 -1.16996 0
M  V30 1353 C 133.536 -0.44929 -2.97325 0
M  V30 1354 C 135.084 -0.402578 -3.104 0
M  V30 1355 C 135.559 -0.824355 -4.5052 0
M  V30 1356 N 137.05 -0.778979 -4.56603 0
M  V30 1357 C 137.785 -1.07715 -5.63192 0
M  V30 1358 N 137.281 -1.44405 -6.77583 0
M  V30 1359 N 139.074 -1.00066 -5.53121 0
M  V30 1360 H 131.225 -1.31893 -1.66487 0
M  V30 1361 H 133.488 -0.538388 -0.780284 0
M  V30 1362 H 133.194 -1.48202 -3.1895 0
M  V30 1363 H 133.068 0.169772 -3.76818 0
M  V30 1364 H 135.455 0.621004 -2.88492 0
M  V30 1365 H 135.536 -1.05699 -2.32941 0
M  V30 1366 H 135.18 -1.846 -4.73165 0
M  V30 1367 H 135.11 -0.147304 -5.26394 0
M  V30 1368 H 137.601 -0.508528 -3.74463 0
M  V30 1369 H 137.914 -1.65612 -7.54846 0
M  V30 1370 H 136.259 -1.4826 -6.79002 0
M  V30 1371 H 139.45 -0.713293 -4.62633 0
M  V30 1372 H 139.623 -1.23638 -6.36096 0
M  V30 1373 N 133.029 1.57378 -0.0835403 0
M  V30 1374 C 133.962 2.09016 0.915833 0
M  V30 1375 C 134.94 0.997993 1.2837 0
M  V30 1376 O 136.124 1.27219 1.39096 0
M  V30 1377 C 133.251 2.55757 2.22049 0
M  V30 1378 C 132.297 3.76522 2.00333 0
M  V30 1379 S 133.13 5.20661 1.25191 0
M  V30 1380 C 134.286 5.70743 2.56912 0
M  V30 1381 H 134.519 2.93457 0.476492 0
M  V30 1382 H 132.052 1.53856 0.129493 0
M  V30 1383 H 134.01 2.83346 2.97027 0
M  V30 1384 H 132.671 1.71564 2.63106 0
M  V30 1385 H 131.864 4.07256 2.96916 0
M  V30 1386 H 131.466 3.49367 1.33488 0
M  V30 1387 H 133.758 5.78304 3.52946 0
M  V30 1388 H 134.701 6.6944 2.30772 0
M  V30 1389 H 135.109 4.98616 2.64655 0
M  V30 1390 N 134.507 -0.190092 1.56449 0
M  V30 1391 C 135.735 -0.925772 1.85033 0
M  V30 1392 C 136.15 -1.76638 0.666658 0
M  V30 1393 O 135.507 -1.78822 -0.364565 0
M  V30 1394 C 135.558 -1.81786 3.12468 0
M  V30 1395 O 135.279 -1.01118 4.26271 0
M  V30 1396 C 136.78 -2.6648 3.54265 0
M  V30 1397 H 134 -0.269872 0.614337 0
M  V30 1398 H 136.544 -0.195837 2.0356 0
M  V30 1399 H 134.699 -2.50136 2.95822 0
M  V30 1400 H 135.113 -1.61956 4.98869 0
M  V30 1401 H 136.587 -3.24722 4.46385 0
M  V30 1402 H 137.064 -3.40434 2.77491 0
M  V30 1403 H 137.67 -2.03493 3.73458 0
M  V30 1404 N 135.985 -1.50799 -0.457987 0
M  V30 1405 C 137.225 -1.64088 -1.21879 0
M  V30 1406 C 137.589 -0.339848 -1.88968 0
M  V30 1407 O 138.79 -0.348301 -2.66534 0
M  V30 1408 C 137.061 -2.79726 -2.2246 0
M  V30 1409 S 138.62 -3.13225 -3.07303 0
M  V30 1410 H 135.438 -0.578314 -0.41361 0
M  V30 1411 H 138.04 -1.88632 -0.513645 0
M  V30 1412 H 136.744 -3.72722 -1.71775 0
M  V30 1413 H 136.275 -2.57308 -2.97584 0
M  V30 1414 H 138.29 -2.58062 -4.23814 0
M  V30 1415 N 137.463 0.71206 -1.40597 0
M  V30 1416 C 138.426 1.80785 -1.40888 0
M  V30 1417 C 139.426 1.57937 -0.302103 0
M  V30 1418 O 140.616 1.64913 -0.561182 0
M  V30 1419 C 137.748 3.18927 -1.20409 0
M  V30 1420 H 138.941 1.81924 -2.38419 0
M  V30 1421 H 136.494 0.91805 -1.26497 0
M  V30 1422 H 137.229 3.23436 -0.236522 0
M  V30 1423 H 137.014 3.36911 -2.00582 0
M  V30 1424 H 138.504 3.98949 -1.23408 0
M  V30 1425 N 138.941 1.26152 0.944643 0
M  V30 1426 C 139.904 1.07474 2.0244 0
M  V30 1427 C 140.904 0.0242064 1.60782 0
M  V30 1428 O 142.094 0.267302 1.72137 0
M  V30 1429 C 139.226 0.633956 3.34953 0
M  V30 1430 H 140.419 2.03336 2.20442 0
M  V30 1431 H 137.972 1.087 1.12312 0
M  V30 1432 H 138.707 -0.326811 3.22649 0
M  V30 1433 H 138.492 1.39247 3.66542 0
M  V30 1434 H 139.982 0.52501 4.14287 0
M  V30 1435 N 140.419 -1.14872 1.07899 0
M  V30 1436 C 141.366 -2.19791 0.704319 0
M  V30 1437 C 142.336 -1.63238 -0.306987 0
M  V30 1438 O 143.521 -1.8983 -0.192171 0
M  V30 1439 C 140.661 -3.44911 0.114244 0
M  V30 1440 C 139.774 -4.15637 1.1777 0
M  V30 1441 C 138.909 -5.28324 0.552037 0
M  V30 1442 C 137.948 -5.90875 1.59789 0
M  V30 1443 N 137.085 -6.95022 0.994404 0
M  V30 1444 H 141.925 -2.5119 1.60336 0
M  V30 1445 H 139.462 -1.23356 0.801352 0
M  V30 1446 H 141.42 -4.16477 -0.245544 0
M  V30 1447 H 140.05 -3.14011 -0.74813 0
M  V30 1448 H 139.102 -3.42512 1.65499 0
M  V30 1449 H 140.414 -4.5823 1.97046 0
M  V30 1450 H 139.568 -6.06538 0.1402 0
M  V30 1451 H 138.307 -4.86939 -0.272431 0
M  V30 1452 H 137.312 -5.11369 2.01945 0
M  V30 1453 H 138.537 -6.34337 2.42474 0
M  V30 1454 H 136.483 -6.55722 0.190939 0
M  V30 1455 H 136.4 -7.36073 1.72432 0
M  V30 1456 H 137.668 -7.77123 0.608253 0
M  V30 1457 N 141.898 -0.863906 -1.31812 0
M  V30 1458 C 142.845 -0.313303 -2.28664 0
M  V30 1459 C 143.815 0.584868 -1.55462 0
M  V30 1460 O 145 0.517805 -1.83639 0
M  V30 1461 C 142.14 0.48441 -3.41683 0
M  V30 1462 C 141.253 -0.440594 -4.29747 0
M  V30 1463 C 140.388 0.370652 -5.29905 0
M  V30 1464 C 139.427 -0.551164 -6.09613 0
M  V30 1465 N 138.564 0.223462 -7.01744 0
M  V30 1466 H 143.404 -1.14444 -2.75148 0
M  V30 1467 H 140.941 -0.575769 -1.35364 0
M  V30 1468 H 142.899 0.962627 -4.05943 0
M  V30 1469 H 141.529 1.28029 -2.96325 0
M  V30 1470 H 140.581 -1.03724 -3.65986 0
M  V30 1471 H 141.893 -1.14767 -4.85417 0
M  V30 1472 H 141.047 0.911638 -5.99812 0
M  V30 1473 H 139.786 1.11105 -4.74876 0
M  V30 1474 H 138.791 -1.10396 -5.38603 0
M  V30 1475 H 140.016 -1.29032 -6.66729 0
M  V30 1476 H 137.962 0.946787 -6.49132 0
M  V30 1477 H 137.879 -0.424399 -7.54808 0
M  V30 1478 H 139.147 0.745876 -7.75923 0
M  V30 1479 N 143.376 1.44774 -0.622745 0
M  V30 1480 C 144.286 2.34433 0.0886031 0
M  V30 1481 C 145.302 1.52131 0.844529 0
M  V30 1482 O 146.478 1.84886 0.798691 0
M  V30 1483 C 143.543 3.29986 1.0635 0
M  V30 1484 C 142.604 4.28195 0.307873 0
M  V30 1485 C 141.837 5.19183 1.23633 0
M  V30 1486 O 142.06 5.13918 2.47476 0
M  V30 1487 O 140.994 5.97515 0.725189 0
M  V30 1488 H 144.82 2.96693 -0.648599 0
M  V30 1489 H 142.405 1.44408 -0.382957 0
M  V30 1490 H 144.287 3.88825 1.6246 0
M  V30 1491 H 142.962 2.70269 1.78146 0
M  V30 1492 H 141.869 3.72927 -0.296064 0
M  V30 1493 H 143.202 4.90808 -0.3699 0
M  V30 1494 N 144.854 0.36279 1.53368 0
M  V30 1495 C 145.784 -0.476976 2.28576 0
M  V30 1496 C 146.765 -1.08631 1.30894 0
M  V30 1497 O 147.95 -1.10409 1.59761 0
M  V30 1498 C 145.08 -1.61828 3.07293 0
M  V30 1499 C 144.034 -1.13633 4.1264 0
M  V30 1500 C 143.36 -2.36766 4.79423 0
M  V30 1501 C 144.66 -0.223061 5.21823 0
M  V30 1502 H 146.354 0.150474 2.99022 0
M  V30 1503 H 143.9 0.0738103 1.43811 0
M  V30 1504 H 145.853 -2.21237 3.58653 0
M  V30 1505 H 144.577 -2.27292 2.34533 0
M  V30 1506 H 143.236 -0.564945 3.62221 0
M  V30 1507 H 142.884 -3.0068 4.03238 0
M  V30 1508 H 142.584 -2.05192 5.50609 0
M  V30 1509 H 144.108 -2.96865 5.33576 0
M  V30 1510 H 145.522 -0.724545 5.68703 0
M  V30 1511 H 143.919 0.001678 6.001 0
M  V30 1512 H 144.989 0.735553 4.79289 0
M  V30 1513 N 146.332 -1.57332 0.0918853 0
M  V30 1514 C 147.295 -2.12708 -0.85369 0
M  V30 1515 C 148.295 -1.05561 -1.213 0
M  V30 1516 O 149.485 -1.31461 -1.14296 0
M  V30 1517 C 146.617 -2.64503 -2.15061 0
M  V30 1518 H 147.81 -2.97573 -0.3729 0
M  V30 1519 H 145.363 -1.55509 -0.157072 0
M  V30 1520 H 146.098 -1.83149 -2.67632 0
M  V30 1521 H 145.883 -3.4284 -1.90272 0
M  V30 1522 H 147.373 -3.07351 -2.82711 0
M  V30 1523 N 147.81 0.181792 -1.56548 0
M  V30 1524 C 148.773 1.20894 -1.94724 0
M  V30 1525 C 149.773 1.37738 -0.829747 0
M  V30 1526 O 150.963 1.35323 -1.09697 0
M  V30 1527 C 148.095 2.57593 -2.23291 0
M  V30 1528 H 149.288 0.882275 -2.86629 0
M  V30 1529 H 146.841 0.423838 -1.50444 0
M  V30 1530 H 147.576 2.95291 -1.34067 0
M  V30 1531 H 147.361 2.46735 -3.04736 0
M  V30 1532 H 148.851 3.31637 -2.53785 0
M  V30 1533 N 149.288 1.51039 0.449983 0
M  V30 1534 C 150.513 1.6715 1.22783 0
M  V30 1535 C 150.938 0.363081 1.84563 0
M  V30 1536 O 150.296 -0.675433 1.68249 0
M  V30 1537 C 150.344 2.77985 2.29689 0
M  V30 1538 O 149.448 2.40707 3.34864 0
M  V30 1539 H 148.789 0.557746 0.360299 0
M  V30 1540 H 151.319 1.97535 0.533005 0
M  V30 1541 H 151.329 3.01693 2.74673 0
M  V30 1542 H 150.004 3.72935 1.84098 0
M  V30 1543 H 148.581 2.27523 2.95445 0
M  V30 1544 N 150.766 -0.704594 1.40972 0
M  V30 1545 C 151.696 -1.83124 1.44872 0
M  V30 1546 C 152.677 -1.67281 0.30838 0
M  V30 1547 O 153.862 -1.87149 0.518556 0
M  V30 1548 C 150.992 -3.21181 1.32136 0
M  V30 1549 C 149.946 -3.51714 2.43888 0
M  V30 1550 C 149.272 -4.89032 2.16222 0
M  V30 1551 C 150.572 -3.516 3.86232 0
M  V30 1552 H 152.266 -1.80117 2.39161 0
M  V30 1553 H 149.812 -0.865145 1.15114 0
M  V30 1554 H 151.765 -3.99702 1.33479 0
M  V30 1555 H 150.489 -3.24791 0.343279 0
M  V30 1556 H 149.148 -2.75539 2.41813 0
M  V30 1557 H 148.796 -4.89256 1.16778 0
M  V30 1558 H 148.496 -5.10426 2.911 0
M  V30 1559 H 150.02 -5.69873 2.19265 0
M  V30 1560 H 151.434 -4.2014 3.9007 0
M  V30 1561 H 149.831 -3.84523 4.60719 0
M  V30 1562 H 150.901 -2.50757 4.15029 0
M  V30 1563 N 152.244 -1.26651 -0.937939 0
M  V30 1564 C 153.472 -1.15173 -1.7188 0
M  V30 1565 C 153.887 0.292668 -1.86518 0
M  V30 1566 O 153.244 1.20014 -1.37488 0
M  V30 1567 C 153.295 -1.81925 -3.12387 0
M  V30 1568 O 153.016 -3.2072 -2.98446 0
M  V30 1569 C 154.517 -1.76442 -4.06673 0
M  V30 1570 H 151.737 -0.400911 -0.538063 0
M  V30 1571 H 154.281 -1.67332 -1.1756 0
M  V30 1572 H 152.436 -1.33696 -3.63599 0
M  V30 1573 H 152.85 -3.53802 -3.872 0
M  V30 1574 H 154.324 -2.27781 -5.02812 0
M  V30 1575 H 154.801 -0.731608 -4.33064 0
M  V30 1576 H 155.407 -2.24238 -3.61382 0
M  V30 1577 N 153.722 1.14298 -1.08507 0
M  V30 1578 C 154.999 1.81544 -0.728088 0
M  V30 1579 C 155.379 1.95838 0.78808 0
M  V30 1580 O 154.727 1.51904 1.70697 0
M  V30 1581 C 154.937 3.17169 -1.45619 0
M  V30 1582 C 156.285 3.9265 -1.61591 0
M  V30 1583 O 157.309 3.26762 -1.41793 0
M  V30 1584 O 156.168 5.10807 -1.94263 0
M  V30 1585 H 153.262 0.78491 -0.260471 0
M  V30 1586 H 155.808 1.21307 -1.18671 0
M  V30 1587 H 154.58 3.01934 -2.489 0
M  V30 1588 H 154.203 3.851 -0.989124 0
M  V30 1589 N 155.201 0.870884 1.31352 0
M  V30 1590 C 156.148 0.325425 2.28494 0
M  V30 1591 C 157.118 -0.576615 1.5577 0
M  V30 1592 O 158.303 -0.508059 1.83911 0
M  V30 1593 C 155.443 -0.466283 3.41935 0
M  V30 1594 C 154.556 0.463378 4.29508 0
M  V30 1595 C 153.691 -0.342544 5.30094 0
M  V30 1596 C 152.73 0.583486 6.09313 0
M  V30 1597 N 151.867 -0.186244 7.01853 0
M  V30 1598 H 156.707 1.15901 2.74538 0
M  V30 1599 H 154.244 0.58294 1.35056 0
M  V30 1600 H 156.202 -0.941085 4.06447 0
M  V30 1601 H 154.832 -1.26456 2.97 0
M  V30 1602 H 153.884 1.05663 3.65431 0
M  V30 1603 H 155.196 1.1734 4.84802 0
M  V30 1604 H 154.35 -0.879816 6.00287 0
M  V30 1605 H 153.089 -1.08585 4.75458 0
M  V30 1606 H 152.094 1.13251 5.3801 0
M  V30 1607 H 153.319 1.32566 6.66035 0
M  V30 1608 H 151.265 -0.912348 6.49625 0
M  V30 1609 H 151.182 0.464422 7.54572 0
M  V30 1610 H 152.45 -0.704716 7.76308 0
M  V30 1611 N 156.679 -1.44442 0.630414 0
M  V30 1612 C 157.904 -2.06927 0.139944 0
M  V30 1613 C 158.329 -1.46795 -1.17613 0
M  V30 1614 O 157.687 -0.569144 -1.72135 0
M  V30 1615 C 157.735 -3.6058 0.0379581 0
M  V30 1616 O 156.839 -3.99937 -1.0062 0
M  V30 1617 H 156.18 -0.658608 0.0844483 0
M  V30 1618 H 158.71 -1.85327 0.866891 0
M  V30 1619 H 158.72 -4.07714 -0.152856 0
M  V30 1620 H 157.395 -4.03728 0.998809 0
M  V30 1621 H 155.972 -3.64436 -0.79001 0
M  V30 1622 N 158.157 -0.370918 -1.53173 0
M  V30 1623 C 159.405 0.216673 -2.00935 0
M  V30 1624 C 159.726 1.48845 -1.25977 0
M  V30 1625 O 158.996 1.92286 -0.374551 0
M  V30 1626 H 157.576 0.0830565 -0.742368 0
M  V30 1627 H 160.238 -0.49838 -1.8842 0
M  V30 1628 H 159.334 0.439893 -3.08984 0
M  V30 1629 N 159.635 1.57281 -0.100228 0
M  V30 1630 C 160.565 2.17328 0.853857 0
M  V30 1631 C 161.546 1.10804 1.2906 0
M  V30 1632 O 162.731 1.38963 1.35657 0
M  V30 1633 C 159.861 2.75772 2.11109 0
M  V30 1634 C 158.815 3.87713 1.81279 0
M  V30 1635 C 158.141 4.32882 3.13874 0
M  V30 1636 C 159.441 5.10677 1.09574 0
M  V30 1637 H 161.135 2.97305 0.353545 0
M  V30 1638 H 158.681 1.43009 0.168612 0
M  V30 1639 H 160.634 3.16433 2.78296 0
M  V30 1640 H 159.358 1.93057 2.63432 0
M  V30 1641 H 158.017 3.476 1.16489 0
M  V30 1642 H 157.665 3.47051 3.64095 0
M  V30 1643 H 157.365 5.08358 2.94696 0
M  V30 1644 H 158.889 4.7618 3.82211 0
M  V30 1645 H 160.303 5.48474 1.66879 0
M  V30 1646 H 158.7 5.91615 1.00557 0
M  V30 1647 H 159.77 4.84835 0.0793299 0
M  V30 1648 N 161.113 -0.173488 1.56642 0
M  V30 1649 C 162.338 -0.910149 1.86363 0
M  V30 1650 C 162.763 -1.75132 0.686318 0
M  V30 1651 O 162.121 -1.77595 -0.364643 0
M  V30 1652 C 162.169 -1.76447 3.14482 0
M  V30 1653 O 161.273 -2.86584 2.96553 0
M  V30 1654 H 160.614 -0.255086 0.613047 0
M  V30 1655 H 163.144 -0.172283 2.03873 0
M  V30 1656 H 163.154 -2.16483 3.45831 0
M  V30 1657 H 161.829 -1.14658 3.99783 0
M  V30 1658 H 160.406 -2.50146 2.76553 0
M  V30 1659 N 162.591 -1.51276 -0.441967 0
M  V30 1660 C 163.868 -1.54252 -1.20273 0
M  V30 1661 C 164.248 -0.30408 -2.08898 0
M  V30 1662 O 163.596 0.711084 -2.17154 0
M  V30 1663 C 163.806 -2.85406 -2.00859 0
M  V30 1664 C 165.154 -3.37181 -2.58059 0
M  V30 1665 O 166.178 -2.86925 -2.11074 0
M  V30 1666 O 165.037 -4.24858 -3.43741 0
M  V30 1667 H 162.131 -0.619969 -0.547328 0
M  V30 1668 H 164.677 -1.63586 -0.451413 0
M  V30 1669 H 163.449 -3.67003 -1.35736 0
M  V30 1670 H 163.072 -2.79213 -2.83065 0
M  V30 1671 N 164.069 0.697108 -1.41344 0
M  V30 1672 C 165.032 1.79281 -1.42797 0
M  V30 1673 C 166.032 1.57607 -0.318837 0
M  V30 1674 O 167.222 1.64309 -0.578642 0
M  V30 1675 C 164.354 3.17632 -1.23785 0
M  V30 1676 H 165.547 1.79385 -2.40335 0
M  V30 1677 H 163.1 0.904582 -1.27464 0
M  V30 1678 H 163.835 3.23167 -0.270814 0
M  V30 1679 H 163.62 3.34765 -2.04144 0
M  V30 1680 H 165.11 3.97617 -1.27633 0
M  V30 1681 N 165.547 1.27147 0.931209 0
M  V30 1682 C 166.51 1.09615 2.01289 0
M  V30 1683 C 167.51 0.0412581 1.60747 0
M  V30 1684 O 168.7 0.285545 1.71844 0
M  V30 1685 C 165.832 0.669447 3.34262 0
M  V30 1686 H 167.025 2.05662 2.18273 0
M  V30 1687 H 164.578 1.09885 1.11153 0
M  V30 1688 H 165.313 -0.292572 3.22978 0
M  V30 1689 H 165.098 1.43127 3.65044 0
M  V30 1690 H 166.588 0.568921 4.13706 0
M  V30 1691 N 167.025 -1.13721 1.09112 0
M  V30 1692 C 167.955 -2.21148 0.749385 0
M  V30 1693 C 168.936 -1.6792 -0.271475 0
M  V30 1694 O 170.121 -1.93693 -0.140251 0
M  V30 1695 C 167.251 -3.46905 0.165659 0
M  V30 1696 C 166.205 -4.13203 1.11567 0
M  V30 1697 C 165.531 -5.33248 0.393809 0
M  V30 1698 C 166.831 -4.60912 2.45678 0
M  V30 1699 H 168.525 -2.4999 1.64758 0
M  V30 1700 H 166.071 -1.20156 0.793626 0
M  V30 1701 H 168.024 -4.21313 -0.085466 0
M  V30 1702 H 166.748 -3.17449 -0.767714 0
M  V30 1703 H 165.407 -3.40758 1.35202 0
M  V30 1704 H 165.055 -5.00054 -0.543599 0
M  V30 1705 H 164.755 -5.78552 1.02721 0
M  V30 1706 H 166.279 -6.10413 0.150908 0
M  V30 1707 H 167.693 -5.26759 2.26269 0
M  V30 1708 H 166.09 -5.16944 3.04776 0
M  V30 1709 H 167.16 -3.75603 3.06677 0
M  V30 1710 N 168.503 -0.877838 -1.30888 0
M  V30 1711 C 169.749 -0.502773 -1.97088 0
M  V30 1712 C 170.104 0.936274 -1.68082 0
M  V30 1713 O 169.397 1.65162 -0.971196 0
M  V30 1714 C 169.591 -0.705748 -3.50363 0
M  V30 1715 C 169.42 -2.16297 -3.94266 0
M  V30 1716 C 168.19 -2.80614 -4.20219 0
M  V30 1717 C 170.388 -3.13606 -4.07622 0
M  V30 1718 N 168.37 -4.17007 -4.50532 0
M  V30 1719 C 169.741 -4.35051 -4.41736 0
M  V30 1720 C 171.796 -3.09491 -3.90026 0
M  V30 1721 C 170.499 -5.52911 -4.60089 0
M  V30 1722 C 172.525 -4.26616 -4.09576 0
M  V30 1723 C 171.887 -5.46825 -4.44029 0
M  V30 1724 H 167.986 -0.233168 -0.746429 0
M  V30 1725 H 170.57 -1.13408 -1.58261 0
M  V30 1726 H 168.741 -0.103976 -3.88261 0
M  V30 1727 H 170.473 -0.298291 -4.03599 0
M  V30 1728 H 167.228 -2.3152 -4.13153 0
M  V30 1729 H 167.652 -4.87426 -4.69834 0
M  V30 1730 H 172.294 -2.17657 -3.62471 0
M  V30 1731 H 170.012 -6.45255 -4.86489 0
M  V30 1732 H 173.598 -4.24894 -3.97438 0
M  V30 1733 H 172.478 -6.35947 -4.58848 0
M  V30 1734 N 169.982 1.44106 -0.638065 0
M  V30 1735 C 170.892 2.34513 0.0637334 0
M  V30 1736 C 171.908 1.53018 0.828346 0
M  V30 1737 O 173.084 1.85723 0.779036 0
M  V30 1738 C 170.149 3.31095 1.02844 0
M  V30 1739 C 169.21 4.28497 0.26244 0
M  V30 1740 C 168.443 5.20465 1.1812 0
M  V30 1741 O 168.666 5.16514 2.42011 0
M  V30 1742 O 167.6 5.98251 0.661774 0
M  V30 1743 H 171.426 2.95989 -0.68003 0
M  V30 1744 H 169.011 1.43994 -0.398252 0
M  V30 1745 H 170.893 3.90526 1.58327 0
M  V30 1746 H 169.568 2.72144 1.7527 0
M  V30 1747 H 168.475 3.72592 -0.335602 0
M  V30 1748 H 169.808 4.90388 -0.421936 0
M  V30 1749 N 171.46 0.379036 1.52974 0
M  V30 1750 C 172.423 -0.448865 2.24762 0
M  V30 1751 C 173.423 -0.998689 1.26027 0
M  V30 1752 O 174.613 -0.882313 1.50203 0
M  V30 1753 C 171.745 -1.62872 2.99476 0
M  V30 1754 H 172.938 0.179491 2.99362 0
M  V30 1755 H 170.491 0.13096 1.5575 0
M  V30 1756 H 171.226 -2.29479 2.29151 0
M  V30 1757 H 171.011 -1.24128 3.71934 0
M  V30 1758 H 172.501 -2.2151 3.5401 0
M  V30 1759 N 172.938 -1.57226 0.108567 0
M  V30 1760 C 174.163 -1.99604 -0.563303 0
M  V30 1761 C 174.588 -0.987563 -1.6009 0
M  V30 1762 O 173.946 0.0421687 -1.81251 0
M  V30 1763 C 173.994 -3.40902 -1.17552 0
M  V30 1764 O 173.098 -3.42896 -2.2912 0
M  V30 1765 H 172.439 -0.648704 -0.1417 0
M  V30 1766 H 174.969 -2.03679 0.193961 0
M  V30 1767 H 174.979 -3.78886 -1.51357 0
M  V30 1768 H 173.654 -4.1382 -0.415445 0
M  V30 1769 H 172.231 -3.1672 -1.96832 0
M  V30 1770 N 174.416 0.165178 -1.56732 0
M  V30 1771 C 175.326 1.22423 -2.00125 0
M  V30 1772 C 176.342 1.48084 -0.913619 0
M  V30 1773 O 177.518 1.60112 -1.22172 0
M  V30 1774 C 174.583 2.54197 -2.35764 0
M  V30 1775 C 173.644 2.36343 -3.58386 0
M  V30 1776 C 172.877 3.61834 -3.92316 0
M  V30 1777 O 173.1 4.67267 -3.27135 0
M  V30 1778 O 172.034 3.55579 -4.85641 0
M  V30 1779 H 175.86 0.885886 -2.90492 0
M  V30 1780 H 173.445 0.372518 -1.44681 0
M  V30 1781 H 175.327 3.3192 -2.59629 0
M  V30 1782 H 174.002 2.87598 -1.48557 0
M  V30 1783 H 172.909 1.56632 -3.39731 0
M  V30 1784 H 174.242 2.07865 -4.46154 0
M  V30 1785 N 175.894 1.51508 0.433938 0
M  V30 1786 C 176.841 1.73068 1.52696 0
M  V30 1787 C 177.811 0.572441 1.55924 0
M  V30 1788 O 178.996 0.807253 1.72882 0
M  V30 1789 C 176.136 1.86474 2.90381 0
M  V30 1790 C 175.249 3.14037 2.96656 0
M  V30 1791 C 174.384 3.18019 4.25485 0
M  V30 1792 C 173.423 4.39882 4.2564 0
M  V30 1793 N 172.56 4.41394 5.45999 0
M  V30 1794 H 177.4 2.66366 1.33615 0
M  V30 1795 H 174.937 1.32008 0.649018 0
M  V30 1796 H 176.895 1.92229 3.70275 0
M  V30 1797 H 175.525 0.965809 3.08013 0
M  V30 1798 H 174.577 3.17575 2.09404 0
M  V30 1799 H 175.889 4.0394 2.92633 0
M  V30 1800 H 175.043 3.22708 5.13755 0
M  V30 1801 H 173.782 2.2601 4.3217 0
M  V30 1802 H 172.787 4.35366 3.35763 0
M  V30 1803 H 174.012 5.33159 4.20617 0
M  V30 1804 H 171.958 3.52258 5.53399 0
M  V30 1805 H 171.875 5.25111 5.4387 0
M  V30 1806 H 173.143 4.50281 6.36292 0
M  V30 1807 N 177.372 -0.689602 1.41712 0
M  V30 1808 C 178.597 -1.48329 1.44959 0
M  V30 1809 C 179.022 -1.8801 0.0581283 0
M  V30 1810 O 178.38 -1.55026 -0.940035 0
M  V30 1811 C 178.428 -2.71835 2.36935 0
M  V30 1812 O 177.532 -3.69549 1.8305 0
M  V30 1813 H 176.873 -0.446199 0.491734 0
M  V30 1814 H 179.403 -0.847127 1.86239 0
M  V30 1815 H 179.413 -3.20076 2.53013 0
M  V30 1816 H 178.088 -2.42291 3.38035 0
M  V30 1817 H 176.665 -3.2851 1.76452 0
M  V30 1818 N 178.85 -1.27639 -0.924453 0
M  V30 1819 C 179.813 -1.10681 -2.00705 0
M  V30 1820 C 180.813 -0.0497823 -1.60723 0
M  V30 1821 O 182.003 -0.294654 -1.7169 0
M  V30 1822 C 179.135 -0.687164 -3.33902 0
M  V30 1823 H 180.328 -2.06817 -2.17179 0
M  V30 1824 H 177.881 -1.10473 -1.10569 0
M  V30 1825 H 178.616 0.275439 -3.23128 0
M  V30 1826 H 178.401 -1.45061 -3.6428 0
M  V30 1827 H 179.891 -0.590853 -4.13399 0
M  V30 1828 N 180.328 1.1314 -1.09713 0
M  V30 1829 C 181.261 2.17735 -0.683137 0
M  V30 1830 C 182.239 1.59582 0.311841 0
M  V30 1831 O 183.423 1.87298 0.212514 0
M  V30 1832 C 180.55 3.38699 -0.00684324 0
M  V30 1833 C 179.596 4.1546 -0.964102 0
M  V30 1834 S 180.429 4.74733 -2.47767 0
M  V30 1835 C 181.585 5.9904 -1.81387 0
M  V30 1836 H 181.818 2.52515 -1.56918 0
M  V30 1837 H 179.351 1.24484 -0.913404 0
M  V30 1838 H 181.309 4.08765 0.377044 0
M  V30 1839 H 179.97 3.02214 0.85589 0
M  V30 1840 H 179.163 5.02093 -0.43803 0
M  V30 1841 H 178.765 3.51066 -1.28953 0
M  V30 1842 H 181.057 6.67846 -1.13967 0
M  V30 1843 H 182 6.56261 -2.65947 0
M  V30 1844 H 182.408 5.4976 -1.28155 0
M  V30 1845 N 181.806 0.884767 1.30421 0
M  V30 1846 C 182.736 0.367574 2.30589 0
M  V30 1847 C 183.717 -0.549464 1.60981 0
M  V30 1848 O 184.902 -0.46336 1.88591 0
M  V30 1849 C 182.032 -0.418944 3.44764 0
M  V30 1850 C 180.986 0.406316 4.26067 0
M  V30 1851 C 180.312 -0.506793 5.32293 0
M  V30 1852 C 181.612 1.64832 4.95608 0
M  V30 1853 H 183.306 1.20462 2.74097 0
M  V30 1854 H 180.852 0.580695 1.31772 0
M  V30 1855 H 182.805 -0.791395 4.13902 0
M  V30 1856 H 181.529 -1.28964 3.0006 0
M  V30 1857 H 180.188 0.760903 3.58617 0
M  V30 1858 H 179.836 -1.37519 4.83836 0
M  V30 1859 H 179.536 0.0415828 5.87585 0
M  V30 1860 H 181.06 -0.875764 6.04287 0
M  V30 1861 H 182.474 1.34646 5.57264 0
M  V30 1862 H 180.871 2.13688 5.60765 0
M  V30 1863 H 181.941 2.39284 4.21748 0
M  V30 1864 N 183.284 -1.43765 0.645699 0
M  V30 1865 C 184.247 -2.29163 -0.0409488 0
M  V30 1866 C 185.247 -1.41813 -0.757996 0
M  V30 1867 O 186.437 -1.63527 -0.600382 0
M  V30 1868 C 183.569 -3.23716 -1.06869 0
M  V30 1869 H 184.762 -2.91366 0.710345 0
M  V30 1870 H 182.315 -1.5092 0.406547 0
M  V30 1871 H 183.05 -2.66393 -1.84947 0
M  V30 1872 H 182.835 -3.88105 -0.558277 0
M  V30 1873 H 184.325 -3.87831 -1.54845 0
M  V30 1874 N 184.763 -0.387143 -1.52771 0
M  V30 1875 C 185.71 0.449048 -2.26389 0
M  V30 1876 C 186.68 1.05961 -1.27912 0
M  V30 1877 O 187.865 1.08804 -1.56737 0
M  V30 1878 C 185.005 1.57155 -3.0724 0
M  V30 1879 C 184.118 0.984066 -4.20643 0
M  V30 1880 C 183.253 2.07745 -4.88892 0
M  V30 1881 C 182.292 1.46574 -5.94292 0
M  V30 1882 N 181.429 2.49834 -6.56146 0
M  V30 1883 H 186.269 -0.185205 -2.97424 0
M  V30 1884 H 183.806 -0.103164 -1.46738 0
M  V30 1885 H 185.764 2.23309 -3.52405 0
M  V30 1886 H 184.394 2.17615 -2.38419 0
M  V30 1887 H 183.446 0.212193 -3.79808 0
M  V30 1888 H 184.758 0.497029 -4.96318 0
M  V30 1889 H 183.912 2.81673 -5.3735 0
M  V30 1890 H 182.651 2.59807 -4.12737 0
M  V30 1891 H 181.656 0.711696 -5.45174 0
M  V30 1892 H 182.881 0.953088 -6.72379 0
M  V30 1893 H 180.827 3.0107 -5.82832 0
M  V30 1894 H 180.744 2.05879 -7.27427 0
M  V30 1895 H 182.012 3.23399 -7.09249 0
M  V30 1896 N 186.241 1.57166 -0.116904 0
M  V30 1897 C 187.204 2.14039 0.819742 0
M  V30 1898 C 188.204 1.07477 1.19605 0
M  V30 1899 O 189.394 1.33263 1.1219 0
M  V30 1900 C 186.526 2.67891 2.10826 0
M  V30 1901 H 187.719 2.98128 0.325511 0
M  V30 1902 H 185.272 1.55739 0.132312 0
M  V30 1903 H 186.007 1.87384 2.64685 0
M  V30 1904 H 185.792 3.45823 1.84793 0
M  V30 1905 H 187.282 3.11809 2.77785 0
M  V30 1906 N 187.719 -0.156864 1.56817 0
M  V30 1907 C 188.967 -0.869404 1.82444 0
M  V30 1908 C 189.288 -1.82147 0.69623 0
M  V30 1909 O 188.558 -1.93847 -0.28287 0
M  V30 1910 H 187.138 -0.324043 0.673056 0
M  V30 1911 H 189.8 -0.153224 1.94297 0
M  V30 1912 H 188.896 -1.43761 2.77019 0
M  V30 1913 N 189.197 -1.51736 -0.425897 0
M  V30 1914 C 190.425 -1.68794 -1.1965 0
M  V30 1915 C 190.84 -0.390164 -1.84725 0
M  V30 1916 O 190.197 0.632376 -1.71194 0
M  V30 1917 C 190.248 -2.81174 -2.27208 0
M  V30 1918 O 189.969 -4.05925 -1.64793 0
M  V30 1919 C 191.47 -3.09599 -3.17275 0
M  V30 1920 H 188.69 -0.566128 -0.360194 0
M  V30 1921 H 191.234 -1.98211 -0.503249 0
M  V30 1922 H 189.389 -2.54324 -2.9223 0
M  V30 1923 H 189.803 -4.68423 -2.35967 0
M  V30 1924 H 191.277 -3.91786 -3.88854 0
M  V30 1925 H 191.754 -2.22468 -3.78688 0
M  V30 1926 H 192.36 -3.38151 -2.57941 0
M  V30 1927 N 190.675 0.682077 -1.42076 0
M  V30 1928 C 191.921 1.44428 -1.42367 0
M  V30 1929 C 192.254 1.94164 -0.0373056 0
M  V30 1930 O 191.529 1.70429 0.937239 0
M  V30 1931 C 191.812 2.64654 -2.44194 0
M  V30 1932 C 191.665 2.20596 -3.91991 0
M  V30 1933 C 192.984 3.66865 -2.431 0
M  V30 1934 H 190.103 0.523834 -0.518428 0
M  V30 1935 H 192.745 0.77576 -1.73442 0
M  V30 1936 H 190.895 3.2169 -2.17826 0
M  V30 1937 H 192.567 1.68783 -4.29313 0
M  V30 1938 H 190.81 1.52242 -4.06208 0
M  V30 1939 H 191.481 3.06921 -4.58807 0
M  V30 1940 H 193.957 3.19531 -2.66532 0
M  V30 1941 H 192.833 4.48577 -3.16339 0
M  V30 1942 H 193.094 4.17493 -1.45437 0
M  V30 1943 N 192.153 1.28127 0.917671 0
M  V30 1944 C 193.401 1.14825 1.66312 0
M  V30 1945 C 193.722 -0.304379 1.9261 0
M  V30 1946 O 192.992 -1.21149 1.53947 0
M  V30 1947 H 191.572 0.421953 0.616413 0
M  V30 1948 H 194.234 1.608 1.10134 0
M  V30 1949 H 193.33 1.68489 2.62712 0
M  V30 1950 N 193.631 -1.12557 1.10312 0
M  V30 1951 C 194.877 -1.84311 0.846011 0
M  V30 1952 C 195.21 -1.83805 -0.626859 0
M  V30 1953 O 194.485 -1.28268 -1.46211 0
M  V30 1954 C 194.768 -3.32048 1.39341 0
M  V30 1955 C 194.621 -3.41016 2.93305 0
M  V30 1956 C 195.94 -4.27764 1.03468 0
M  V30 1957 H 193.059 -0.669192 0.30879 0
M  V30 1958 H 195.701 -1.32057 1.36605 0
M  V30 1959 H 193.851 -3.76678 0.951087 0
M  V30 1960 H 195.523 -3.05031 3.46055 0
M  V30 1961 H 193.766 -2.81603 3.29973 0
M  V30 1962 H 194.437 -4.44948 3.26689 0
M  V30 1963 H 196.913 -3.91253 1.41633 0
M  V30 1964 H 195.789 -5.29549 1.44463 0
M  V30 1965 H 196.05 -4.42064 -0.0560404 0
M  V30 1966 N 195.109 -0.891671 -1.2995 0
M  V30 1967 C 196.042 -0.307994 -2.26112 0
M  V30 1968 C 197.02 0.575262 -1.52084 0
M  V30 1969 O 198.204 0.523864 -1.81074 0
M  V30 1970 C 195.331 0.561734 -3.34009 0
M  V30 1971 C 194.377 -0.253107 -4.25748 0
M  V30 1972 S 195.21 -1.64572 -5.09584 0
M  V30 1973 C 196.366 -0.782699 -6.20987 0
M  V30 1974 H 196.599 -1.12309 -2.75271 0
M  V30 1975 H 194.132 -0.691509 -1.38049 0
M  V30 1976 H 196.09 1.05777 -3.96638 0
M  V30 1977 H 194.751 1.35099 -2.83561 0
M  V30 1978 H 193.944 0.410908 -5.02322 0
M  V30 1979 H 193.546 -0.682004 -3.67729 0
M  V30 1980 H 195.838 -0.00257476 -6.775 0
M  V30 1981 H 196.781 -1.52026 -6.91588 0
M  V30 1982 H 197.189 -0.340638 -5.63471 0
M  V30 1983 N 196.587 1.43421 -0.653314 0
M  V30 1984 C 197.55 2.29182 0.0287951 0
M  V30 1985 C 198.55 1.42213 0.750465 0
M  V30 1986 O 199.74 1.63843 0.591701 0
M  V30 1987 C 196.872 3.24278 1.05151 0
M  V30 1988 H 198.065 2.90985 -0.725786 0
M  V30 1989 H 195.618 1.50702 -0.414545 0
M  V30 1990 H 196.353 2.6737 1.83532 0
M  V30 1991 H 196.138 3.88396 0.537687 0
M  V30 1992 H 197.628 3.88647 1.52786 0
M  V30 1993 N 198.065 0.39524 1.52563 0
M  V30 1994 C 199.293 -0.184943 2.06072 0
M  V30 1995 C 199.708 -1.40021 1.26647 0
M  V30 1996 O 199.065 -1.79767 0.314672 0
M  V30 1997 C 199.116 -0.549179 3.57304 0
M  V30 1998 O 198.837 0.617813 4.33722 0
M  V30 1999 C 200.338 -1.18459 4.2718 0
M  V30 2000 H 197.558 -0.0265025 0.670476 0
M  V30 2001 H 200.102 0.562184 1.96621 0
M  V30 2002 H 198.257 -1.2462 3.66809 0
M  V30 2003 H 198.671 0.317091 5.23541 0
M  V30 2004 H 200.145 -1.38976 5.34219 0
M  V30 2005 H 200.622 -2.15368 3.82771 0
M  V30 2006 H 201.228 -0.528163 4.22008 0
M  V30 2007 N 199.544 -1.57102 0.125237 0
M  V30 2008 C 200.772 -1.99761 -0.538797 0
M  V30 2009 C 201.187 -1.00503 -1.59827 0
M  V30 2010 O 200.544 0.00119474 -1.825 0
M  V30 2011 C 200.595 -3.42408 -1.15927 0
M  V30 2012 O 200.316 -4.37869 -0.142143 0
M  V30 2013 C 201.817 -4.00232 -1.90602 0
M  V30 2014 H 199.037 -0.655772 -0.14214 0
M  V30 2015 H 201.581 -2.03383 0.213413 0
M  V30 2016 H 199.736 -3.39706 -1.86223 0
M  V30 2017 H 200.15 -5.21128 -0.593775 0
M  V30 2018 H 201.624 -5.02105 -2.29335 0
M  V30 2019 H 202.101 -3.39721 -2.78363 0
M  V30 2020 H 202.707 -4.06499 -1.25055 0
M  V30 2021 N 201.022 0.148545 -1.56898 0
M  V30 2022 C 202.299 0.890019 -1.74178 0
M  V30 2023 C 202.679 1.99407 -0.692839 0
M  V30 2024 O 202.027 2.26671 0.288505 0
M  V30 2025 C 202.237 1.43389 -3.18183 0
M  V30 2026 C 203.585 1.89791 -3.79822 0
M  V30 2027 O 204.609 1.53134 -3.21603 0
M  V30 2028 O 203.468 2.57387 -4.82093 0
M  V30 2029 H 200.562 0.420496 -0.712118 0
M  V30 2030 H 203.108 0.134591 -1.69165 0
M  V30 2031 H 201.88 0.640383 -3.86024 0
M  V30 2032 H 201.503 2.25287 -3.27615 0
M  V30 2033 N 202.5 1.5196 0.417844 0
M  V30 2034 C 203.777 1.56146 1.17803 0
M  V30 2035 C 204.157 0.337275 2.08388 0
M  V30 2036 O 203.505 -0.676447 2.18258 0
M  V30 2037 C 203.715 2.88566 1.96293 0
M  V30 2038 C 205.063 3.41244 2.52662 0
M  V30 2039 O 206.087 2.90247 2.06483 0
M  V30 2040 O 204.946 4.30273 3.36938 0
M  V30 2041 H 202.04 0.628598 0.537395 0
M  V30 2042 H 204.586 1.64283 0.425331 0
M  V30 2043 H 203.358 3.69116 1.2988 0
M  V30 2044 H 202.981 2.83681 2.78587 0
M  V30 2045 N 203.978 -0.674533 1.42435 0
M  V30 2046 C 205.255 -1.4305 1.33402 0
M  V30 2047 C 205.635 -2.11081 -0.0284674 0
M  V30 2048 O 204.983 -2.03257 -1.04397 0
M  V30 2049 C 205.193 -2.43272 2.50239 0
M  V30 2050 C 206.541 -3.07907 2.92367 0
M  V30 2051 O 207.565 -2.53599 2.50132 0
M  V30 2052 O 206.424 -4.0632 3.65467 0
M  V30 2053 H 203.518 -0.638076 0.526106 0
M  V30 2054 H 206.064 -0.703235 1.54443 0
M  V30 2055 H 204.836 -1.91803 3.41068 0
M  V30 2056 H 204.459 -3.23479 2.31186 0
M  V30 2057 N 205.456 -1.28612 -0.910864 0
M  V30 2058 C 206.702 -1.16106 -1.66274 0
M  V30 2059 C 207.035 0.289113 -1.92036 0
M  V30 2060 O 206.31 1.21 -1.52281 0
M  V30 2061 C 206.593 -1.96309 -3.01885 0
M  V30 2062 C 206.446 -3.49405 -2.8326 0
M  V30 2063 C 207.765 -1.78076 -4.02463 0
M  V30 2064 H 204.884 -0.423152 -0.603417 0
M  V30 2065 H 207.526 -1.57961 -1.05586 0
M  V30 2066 H 205.676 -1.60742 -3.53687 0
M  V30 2067 H 207.348 -3.94894 -2.38446 0
M  V30 2068 H 205.591 -3.74893 -2.18261 0
M  V30 2069 H 206.262 -4.00784 -3.79574 0
M  V30 2070 H 208.738 -2.0912 -3.59733 0
M  V30 2071 H 207.614 -2.36561 -4.95308 0
M  V30 2072 H 207.875 -0.733008 -4.35981 0
M  V30 2073 N 206.934 1.1197 -1.10907 0
M  V30 2074 C 208.35 1.35591 -0.841852 0
M  V30 2075 C 208.55 1.94233 0.536246 0
M  V30 2076 O 207.606 2.1717 1.28816 0
M  V30 2077 C 208.919 2.29284 -1.94549 0
M  V30 2078 C 210.467 2.42862 -1.97451 0
M  V30 2079 C 210.942 3.39873 -3.07002 0
M  V30 2080 N 212.433 3.47433 -3.06341 0
M  V30 2081 C 213.168 4.22421 -3.87748 0
M  V30 2082 N 212.664 5.00432 -4.79103 0
M  V30 2083 N 214.457 4.17876 -3.75946 0
M  V30 2084 H 206.608 0.722664 -1.99728 0
M  V30 2085 H 208.871 0.380635 -0.868229 0
M  V30 2086 H 208.577 1.93378 -2.93765 0
M  V30 2087 H 208.451 3.29452 -1.83688 0
M  V30 2088 H 210.838 2.78046 -0.988645 0
M  V30 2089 H 210.919 1.42566 -2.12388 0
M  V30 2090 H 210.563 3.05417 -4.05811 0
M  V30 2091 H 210.493 4.40011 -2.89306 0
M  V30 2092 H 212.984 2.91784 -2.40147 0
M  V30 2093 H 213.297 5.55002 -5.37766 0
M  V30 2094 H 211.642 4.99612 -4.83128 0
M  V30 2095 H 214.833 3.56016 -3.03924 0
M  V30 2096 H 215.006 4.76061 -4.39624 0
M  V30 2097 N 208.412 0.89855 1.29475 0
M  V30 2098 C 209.637 0.538561 2.00285 0
M  V30 2099 C 210.062 -0.869135 1.66816 0
M  V30 2100 O 209.42 -1.57831 0.892145 0
M  V30 2101 C 209.468 0.736475 3.52999 0
M  V30 2102 O 208.572 -0.211537 4.11857 0
M  V30 2103 H 207.913 0.210563 0.62973 0
M  V30 2104 H 210.443 1.20982 1.64998 0
M  V30 2105 H 210.453 0.640685 4.02938 0
M  V30 2106 H 209.128 1.76276 3.76696 0
M  V30 2107 H 207.705 -0.0682991 3.72837 0
M  V30 2108 N 209.89 -1.43072 0.660911 0
M  V30 2109 C 210.82 -2.33497 -0.0122829 0
M  V30 2110 C 211.801 -1.49903 -0.803925 0
M  V30 2111 O 212.986 -1.78546 -0.763864 0
M  V30 2112 C 210.116 -3.33363 -0.973994 0
M  V30 2113 C 209.07 -4.27003 -0.291928 0
M  V30 2114 C 208.396 -5.16967 -1.36562 0
M  V30 2115 C 209.696 -5.15816 0.820462 0
M  V30 2116 H 211.39 -2.90038 0.742873 0
M  V30 2117 H 208.936 -1.39461 0.358688 0
M  V30 2118 H 210.889 -3.95524 -1.45392 0
M  V30 2119 H 209.613 -2.75095 -1.7604 0
M  V30 2120 H 208.272 -3.66217 0.167623 0
M  V30 2121 H 207.92 -4.55034 -2.14366 0
M  V30 2122 H 207.62 -5.80441 -0.914454 0
M  V30 2123 H 209.144 -5.82003 -1.84675 0
M  V30 2124 H 210.558 -5.71742 0.422366 0
M  V30 2125 H 208.955 -5.8805 1.19656 0
M  V30 2126 H 210.025 -4.55045 1.67518 0
M  V30 2127 N 211.368 -0.403325 -1.52352 0
M  V30 2128 C 212.784 -0.0539281 -1.59509 0
M  V30 2129 C 212.984 1.43307 -1.41652 0
M  V30 2130 O 212.04 2.19924 -1.24056 0
M  V30 2131 C 213.353 -0.543654 -2.95745 0
M  V30 2132 C 214.901 -0.501125 -3.08962 0
M  V30 2133 C 215.376 -0.967267 -4.47669 0
M  V30 2134 N 216.867 -0.923849 -4.53893 0
M  V30 2135 C 217.602 -1.25578 -5.5948 0
M  V30 2136 N 217.098 -1.65889 -6.72646 0
M  V30 2137 N 218.891 -1.17613 -5.49658 0
M  V30 2138 H 211.042 -1.37123 -1.62206 0
M  V30 2139 H 213.305 -0.56294 -0.76276 0
M  V30 2140 H 213.011 -1.58275 -3.14073 0
M  V30 2141 H 212.885 0.0498042 -3.77167 0
M  V30 2142 H 215.272 0.528909 -2.90321 0
M  V30 2143 H 215.353 -1.13056 -2.2946 0
M  V30 2144 H 214.997 -1.9956 -4.67053 0
M  V30 2145 H 214.927 -0.314698 -5.25659 0
M  V30 2146 H 217.418 -0.627403 -3.72655 0
M  V30 2147 H 217.731 -1.89543 -7.49195 0
M  V30 2148 H 216.076 -1.69787 -6.73942 0
M  V30 2149 H 219.267 -0.860115 -4.6013 0
M  V30 2150 H 219.44 -1.43812 -6.3184 0
M  V30 2151 N 212.846 1.57033 -0.133567 0
M  V30 2152 C 214.092 1.96764 0.515326 0
M  V30 2153 C 214.447 1.01653 1.63353 0
M  V30 2154 O 213.74 0.0491374 1.91537 0
M  V30 2155 C 213.934 3.40674 1.08057 0
M  V30 2156 C 213.763 4.49696 0.0186522 0
M  V30 2157 C 212.533 5.03567 -0.418174 0
M  V30 2158 C 214.731 5.08536 -0.767809 0
M  V30 2159 N 212.713 5.9618 -1.46434 0
M  V30 2160 C 214.084 5.97231 -1.6648 0
M  V30 2161 C 216.139 4.9115 -0.817087 0
M  V30 2162 C 214.842 6.70401 -2.60681 0
M  V30 2163 C 216.868 5.65012 -1.74687 0
M  V30 2164 C 216.23 6.53403 -2.63141 0
M  V30 2165 H 212.329 0.765919 0.157771 0
M  V30 2166 H 214.913 1.93395 -0.22506 0
M  V30 2167 H 213.084 3.44662 1.79061 0
M  V30 2168 H 214.816 3.67495 1.69497 0
M  V30 2169 H 211.571 4.73594 -0.0229803 0
M  V30 2170 H 211.995 6.47191 -1.98678 0
M  V30 2171 H 216.637 4.22543 -0.147326 0
M  V30 2172 H 214.355 7.38245 -3.28664 0
M  V30 2173 H 217.941 5.53559 -1.79063 0
M  V30 2174 H 216.821 7.09556 -3.33917 0
M  V30 2175 N 214.325 -0.140222 1.56975 0
M  V30 2176 C 215.255 -1.17456 2.01808 0
M  V30 2177 C 216.236 -1.44415 0.898794 0
M  V30 2178 O 217.421 -1.5522 1.16707 0
M  V30 2179 C 214.551 -2.50607 2.40444 0
M  V30 2180 C 213.505 -2.38155 3.55621 0
M  V30 2181 C 212.831 -3.76078 3.80091 0
M  V30 2182 C 214.131 -1.85991 4.88062 0
M  V30 2183 H 215.825 -0.801743 2.88466 0
M  V30 2184 H 213.371 -0.38422 1.38779 0
M  V30 2185 H 215.324 -3.23197 2.7041 0
M  V30 2186 H 214.048 -2.89737 1.50732 0
M  V30 2187 H 212.707 -1.68016 3.25832 0
M  V30 2188 H 212.355 -4.12656 2.87618 0
M  V30 2189 H 212.055 -3.68606 4.57606 0
M  V30 2190 H 213.579 -4.50206 4.12488 0
M  V30 2191 H 214.993 -2.4838 5.16701 0
M  V30 2192 H 213.39 -1.89393 5.6943 0
M  V30 2193 H 214.46 -0.816023 4.77984 0
M  V30 2194 N 215.803 -1.52179 -0.40978 0
M  V30 2195 C 217.052 -1.65434 -1.15388 0
M  V30 2196 C 217.365 -0.390056 -1.91671 0
M  V30 2197 O 218.571 -0.402399 -2.68501 0
M  V30 2198 C 217.027 -2.92279 -2.10003 0
M  V30 2199 C 216.635 -4.25813 -1.39239 0
M  V30 2200 C 218.379 -3.14897 -2.84675 0
M  V30 2201 C 216.286 -5.43782 -2.32498 0
M  V30 2202 H 215.216 -0.616267 -0.434432 0
M  V30 2203 H 217.867 -1.78666 -0.418401 0
M  V30 2204 H 216.249 -2.72744 -2.871 0
M  V30 2205 H 217.423 -4.55828 -0.675099 0
M  V30 2206 H 215.738 -4.09292 -0.766097 0
M  V30 2207 H 218.335 -4.0021 -3.54593 0
M  V30 2208 H 218.678 -2.29103 -3.47588 0
M  V30 2209 H 219.211 -3.34901 -2.14677 0
M  V30 2210 H 215.95 -6.3192 -1.74233 0
M  V30 2211 H 215.47 -5.18106 -3.02201 0
M  V30 2212 H 217.149 -5.76834 -2.93038 0
M  V30 2213 N 217.281 0.66697 -1.42791 0
M  V30 2214 C 218.509 1.45505 -1.47091 0
M  V30 2215 C 218.924 1.8861 -0.0845873 0
M  V30 2216 O 218.281 1.58632 0.90234 0
M  V30 2217 C 218.332 2.69906 -2.40485 0
M  V30 2218 O 218.053 2.28608 -3.73725 0
M  V30 2219 C 219.554 3.63396 -2.53886 0
M  V30 2220 H 216.774 0.447459 -0.500022 0
M  V30 2221 H 219.318 0.818866 -1.8739 0
M  V30 2222 H 217.473 3.29696 -2.03419 0
M  V30 2223 H 217.887 3.08997 -4.23817 0
M  V30 2224 H 219.361 4.47387 -3.2334 0
M  V30 2225 H 219.838 4.09824 -1.57927 0
M  V30 2226 H 220.444 3.09495 -2.91706 0
M  V30 2227 N 218.759 1.29093 0.90403 0
M  V30 2228 C 220.006 1.16813 1.65411 0
M  V30 2229 C 220.334 -0.28128 1.92455 0
M  V30 2230 O 219.589 -1.22006 1.53013 0
M  V30 2231 C 219.888 1.92224 3.01305 0
M  V30 2232 C 219.554 3.41968 2.93885 0
M  V30 2233 C 218.216 3.82807 2.91569 0
M  V30 2234 C 220.568 4.37409 2.83413 0
M  V30 2235 C 217.896 5.1741 2.76594 0
M  V30 2236 C 220.248 5.72097 2.69977 0
M  V30 2237 C 218.912 6.12199 2.66024 0
M  V30 2238 H 218.182 0.42745 0.605283 0
M  V30 2239 H 220.829 1.59981 1.05254 0
M  V30 2240 H 219.134 1.41635 3.65304 0
M  V30 2241 H 220.831 1.80131 3.58265 0
M  V30 2242 H 217.421 3.09504 2.96488 0
M  V30 2243 H 221.605 4.06813 2.84283 0
M  V30 2244 H 216.861 5.47596 2.71935 0
M  V30 2245 H 221.035 6.45704 2.60844 0
M  V30 2246 H 218.662 7.16448 2.54178 0
M  V30 2247 N 220.237 -1.11381 1.11499 0
M  V30 2248 C 221.485 -1.8277 0.862524 0
M  V30 2249 C 221.806 -1.85097 -0.613534 0
M  V30 2250 O 221.076 -1.32198 -1.4457 0
M  V30 2251 H 219.656 -0.676823 0.316101 0
M  V30 2252 H 222.318 -1.34816 1.4075 0
M  V30 2253 H 221.414 -2.86614 1.23527 0
M  V30 2254 N 221.715 -0.905404 -1.28997 0
M  V30 2255 C 222.645 -0.404212 -2.29975 0
M  V30 2256 C 223.626 0.523784 -1.61835 0
M  V30 2257 O 224.811 0.433298 -1.89304 0
M  V30 2258 C 221.941 0.364042 -3.45387 0
M  V30 2259 C 220.895 -0.474048 -4.25367 0
M  V30 2260 C 220.221 0.422045 -5.33032 0
M  V30 2261 C 221.521 -1.72696 -4.92923 0
M  V30 2262 H 223.215 -1.24807 -2.72146 0
M  V30 2263 H 220.761 -0.601585 -1.30832 0
M  V30 2264 H 222.714 0.725447 -4.15109 0
M  V30 2265 H 221.438 1.24174 -3.02074 0
M  V30 2266 H 220.097 -0.81786 -3.57361 0
M  V30 2267 H 219.745 1.29804 -4.85963 0
M  V30 2268 H 219.445 -0.135057 -5.87445 0
M  V30 2269 H 220.969 0.779517 -6.05604 0
M  V30 2270 H 222.383 -1.43495 -5.55051 0
M  V30 2271 H 220.78 -2.22582 -5.57295 0
M  V30 2272 H 221.85 -2.45964 -4.17887 0
M  V30 2273 N 223.193 1.4272 -0.668489 0
M  V30 2274 C 224.14 2.30796 0.0137489 0
M  V30 2275 C 225.11 1.4561 0.799177 0
M  V30 2276 O 226.295 1.74453 0.772702 0
M  V30 2277 C 223.435 3.31377 0.963507 0
M  V30 2278 C 222.548 4.31655 0.172569 0
M  V30 2279 C 221.683 5.19312 1.1175 0
M  V30 2280 C 220.722 6.11274 0.317886 0
M  V30 2281 N 219.859 6.91504 1.2152 0
M  V30 2282 H 224.699 2.88585 -0.743161 0
M  V30 2283 H 222.236 1.42154 -0.378226 0
M  V30 2284 H 224.194 3.88214 1.52792 0
M  V30 2285 H 222.824 2.75202 1.68712 0
M  V30 2286 H 221.876 3.76988 -0.508374 0
M  V30 2287 H 223.188 4.96779 -0.448527 0
M  V30 2288 H 222.342 5.80851 1.75206 0
M  V30 2289 H 221.081 4.5435 1.77249 0
M  V30 2290 H 220.086 5.48809 -0.329918 0
M  V30 2291 H 221.311 6.78283 -0.332917 0
M  V30 2292 H 219.257 6.29176 1.85671 0
M  V30 2293 H 219.174 7.53209 0.649036 0
M  V30 2294 H 220.442 7.57535 1.83742 0
M  V30 2295 N 224.671 0.411399 1.52136 0
M  V30 2296 C 225.919 -0.163322 2.01439 0
M  V30 2297 C 226.24 -1.45453 1.29879 0
M  V30 2298 O 225.51 -1.91225 0.4254 0
M  V30 2299 H 224.09 -0.0633447 0.744309 0
M  V30 2300 H 226.752 0.548161 1.87033 0
M  V30 2301 H 225.848 -0.357817 3.10042 0
M  V30 2302 N 226.149 -1.5696 0.141893 0
M  V30 2303 C 227.082 -2.12271 -0.837627 0
M  V30 2304 C 228.06 -1.04495 -1.24578 0
M  V30 2305 O 229.244 -1.32293 -1.34278 0
M  V30 2306 C 226.371 -2.63822 -2.12404 0
M  V30 2307 C 225.417 -3.83698 -1.86221 0
M  V30 2308 S 226.25 -5.24948 -1.05781 0
M  V30 2309 C 227.406 -5.79884 -2.35552 0
M  V30 2310 H 227.639 -2.95023 -0.367249 0
M  V30 2311 H 225.172 -1.54231 -0.0723014 0
M  V30 2312 H 227.13 -2.94175 -2.86307 0
M  V30 2313 H 225.791 -1.8121 -2.56557 0
M  V30 2314 H 224.984 -4.17995 -2.81596 0
M  V30 2315 H 224.586 -3.5408 -1.20429 0
M  V30 2316 H 226.878 -5.91005 -3.31239 0
M  V30 2317 H 227.821 -6.77544 -2.05767 0
M  V30 2318 H 228.229 -5.08095 -2.45967 0
M  V30 2319 N 227.627 0.131896 -1.57047 0
M  V30 2320 C 228.59 1.14638 -1.98471 0
M  V30 2321 C 229.59 1.35029 -0.873148 0
M  V30 2322 O 230.78 1.31764 -1.13946 0
M  V30 2323 C 227.912 2.50358 -2.31373 0
M  V30 2324 H 229.105 0.79064 -2.8929 0
M  V30 2325 H 226.658 0.375761 -1.51716 0
M  V30 2326 H 227.393 2.90876 -1.43393 0
M  V30 2327 H 227.178 2.36915 -3.12432 0
M  V30 2328 H 228.668 3.23395 -2.64207 0
M  V30 2329 N 229.106 1.52395 0.401703 0
M  V30 2330 C 230.069 1.75636 1.47257 0
M  V30 2331 C 231.069 0.62628 1.48103 0
M  V30 2332 O 232.259 0.894227 1.49497 0
M  V30 2333 C 229.391 1.84553 2.86624 0
M  V30 2334 H 230.584 2.71241 1.27938 0
M  V30 2335 H 228.137 1.42923 0.632662 0
M  V30 2336 H 228.872 0.908882 3.11303 0
M  V30 2337 H 228.657 2.66715 2.87412 0
M  V30 2338 H 230.147 2.04251 3.64241 0
M  V30 2339 N 230.584 -0.659388 1.43143 0
M  V30 2340 C 231.814 -1.44513 1.47646 0
M  V30 2341 C 232.222 -1.88981 0.0910095 0
M  V30 2342 O 231.565 -1.59702 -0.907789 0
M  V30 2343 C 231.627 -2.71663 2.35456 0
M  V30 2344 C 231.291 -2.49175 3.83094 0
M  V30 2345 C 232.288 -2.1279 4.74359 0
M  V30 2346 C 229.973 -2.63691 4.27519 0
M  V30 2347 C 231.967 -1.9121 6.08044 0
M  V30 2348 C 229.654 -2.41726 5.61259 0
M  V30 2349 C 230.652 -2.0554 6.51339 0
M  V30 2350 O 230.34 -1.838 7.82606 0
M  V30 2351 H 230.072 -0.45064 0.503884 0
M  V30 2352 H 232.626 -0.816248 1.88485 0
M  V30 2353 H 230.856 -3.37089 1.89493 0
M  V30 2354 H 232.545 -3.33595 2.31235 0
M  V30 2355 H 233.311 -2.01157 4.41317 0
M  V30 2356 H 229.19 -2.90832 3.57684 0
M  V30 2357 H 232.734 -1.62889 6.78316 0
M  V30 2358 H 228.631 -2.52959 5.9387 0
M  V30 2359 H 229.399 -1.98275 7.94122 0
M  V30 2360 N 232.062 -1.29571 -0.897171 0
M  V30 2361 C 233.025 -1.14913 -1.98312 0
M  V30 2362 C 234.025 -0.0838629 -1.60581 0
M  V30 2363 O 235.215 -0.331006 -1.71026 0
M  V30 2364 C 232.347 -0.757835 -3.3237 0
M  V30 2365 H 233.54 -2.11377 -2.12743 0
M  V30 2366 H 231.093 -1.12793 -1.08201 0
M  V30 2367 H 231.828 0.206837 -3.2364 0
M  V30 2368 H 231.613 -1.52755 -3.61121 0
M  V30 2369 H 233.103 -0.678408 -4.12053 0
M  V30 2370 N 233.54 1.10788 -1.12088 0
M  V30 2371 C 234.487 2.17025 -0.785407 0
M  V30 2372 C 235.457 1.64265 0.246191 0
M  V30 2373 O 236.642 1.90412 0.121584 0
M  V30 2374 C 233.782 3.44249 -0.242177 0
M  V30 2375 C 232.895 4.1098 -1.33115 0
M  V30 2376 C 232.03 5.25911 -0.747741 0
M  V30 2377 C 231.069 5.84538 -1.81609 0
M  V30 2378 N 230.206 6.90853 -1.25167 0
M  V30 2379 H 235.046 2.45066 -1.69548 0
M  V30 2380 H 232.583 1.20297 -0.846582 0
M  V30 2381 H 234.541 4.17101 0.0908026 0
M  V30 2382 H 233.171 3.16571 0.631072 0
M  V30 2383 H 232.223 3.36133 -1.78097 0
M  V30 2384 H 233.535 4.50601 -2.13917 0
M  V30 2385 H 232.689 6.056 -0.365216 0
M  V30 2386 H 231.428 4.87614 0.0915188 0
M  V30 2387 H 230.433 5.03522 -2.20785 0
M  V30 2388 H 231.658 6.249 -2.6585 0
M  V30 2389 H 229.604 6.54562 -0.434174 0
M  V30 2390 H 229.521 7.29166 -1.99633 0
M  V30 2391 H 230.789 7.7433 -0.896259 0
M  V30 2392 N 235.018 0.912232 1.28515 0
M  V30 2393 C 235.968 0.370649 2.24967 0
M  V30 2394 C 236.952 -0.516375 1.52389 0
M  V30 2395 O 238.144 -0.356345 1.73376 0
M  V30 2396 C 235.273 -0.389526 3.41083 0
M  V30 2397 C 234.359 0.51313 4.20984 0
M  V30 2398 N 234.75 1.62604 4.78951 0
M  V30 2399 C 233.048 0.313235 4.44899 0
M  V30 2400 C 233.749 2.18619 5.39055 0
M  V30 2401 N 232.725 1.47765 5.23132 0
M  V30 2402 H 236.527 1.22061 2.67354 0
M  V30 2403 H 234.041 0.764712 1.43269 0
M  V30 2404 H 236.038 -0.794353 4.09262 0
M  V30 2405 H 234.698 -1.2366 3.0023 0
M  V30 2406 H 235.709 2.00864 4.77362 0
M  V30 2407 H 232.386 -0.494452 4.14562 0
M  V30 2408 H 233.776 3.12228 5.94948 0
M  V30 2409 N 236.496 -1.42363 0.676048 0
M  V30 2410 C 237.459 -2.29199 0.00766941 0
M  V30 2411 C 238.459 -1.43389 -0.727745 0
M  V30 2412 O 239.649 -1.64764 -0.56556 0
M  V30 2413 C 236.781 -3.2591 -0.999785 0
M  V30 2414 H 237.974 -2.89794 0.771988 0
M  V30 2415 H 235.527 -1.50024 0.438468 0
M  V30 2416 H 236.262 -2.70256 -1.79255 0
M  V30 2417 H 236.047 -3.89202 -0.475829 0
M  V30 2418 H 237.537 -3.91028 -1.46583 0
M  V30 2419 N 237.974 -0.419461 -1.51915 0
M  V30 2420 C 239.251 0.211999 -1.94448 0
M  V30 2421 C 239.631 1.61703 -1.35703 0
M  V30 2422 O 238.979 2.22102 -0.536931 0
M  V30 2423 C 239.189 0.207872 -3.4838 0
M  V30 2424 C 240.537 0.422192 -4.22496 0
M  V30 2425 O 241.561 0.286778 -3.55044 0
M  V30 2426 O 240.42 0.690009 -5.42126 0
M  V30 2427 H 237.514 0.139586 -0.815135 0
M  V30 2428 H 240.06 -0.476151 -1.62883 0
M  V30 2429 H 238.832 -0.775102 -3.83546 0
M  V30 2430 H 238.455 0.939688 -3.86336 0
M  V30 2431 N 239.452 1.56882 -0.150215 0
M  V30 2432 C 240.698 1.96518 0.500834 0
M  V30 2433 C 241.031 1.03527 1.64304 0
M  V30 2434 O 240.306 0.0782751 1.94342 0
M  V30 2435 C 240.589 3.45822 1.00395 0
M  V30 2436 C 240.442 4.49591 -0.136983 0
M  V30 2437 C 241.761 3.97704 1.88467 0
M  V30 2438 H 238.88 0.714535 0.18058 0
M  V30 2439 H 241.522 1.88577 -0.232091 0
M  V30 2440 H 239.672 3.5272 1.62851 0
M  V30 2441 H 241.344 4.5477 -0.77343 0
M  V30 2442 H 239.587 4.26441 -0.795652 0
M  V30 2443 H 240.258 5.51402 0.256815 0
M  V30 2444 H 242.734 3.93304 1.35834 0
M  V30 2445 H 241.61 5.0263 2.20578 0
M  V30 2446 H 241.871 3.40252 2.82279 0
M  V30 2447 N 240.93 -0.123565 1.57115 0
M  V30 2448 C 241.86 -1.15309 2.03042 0
M  V30 2449 C 242.841 -1.43454 0.914061 0
M  V30 2450 O 244.026 -1.53973 1.18347 0
M  V30 2451 C 241.156 -2.48043 2.43089 0
M  V30 2452 C 240.11 -2.3437 3.58127 0
M  V30 2453 C 239.436 -3.72026 3.84059 0
M  V30 2454 C 240.736 -1.80804 4.90007 0
M  V30 2455 H 242.43 -0.771102 2.893 0
M  V30 2456 H 239.976 -0.369479 1.39179 0
M  V30 2457 H 241.929 -3.20311 2.73823 0
M  V30 2458 H 240.653 -2.88122 1.53796 0
M  V30 2459 H 239.312 -1.64551 3.27595 0
M  V30 2460 H 238.96 -4.09582 2.91979 0
M  V30 2461 H 238.66 -3.63732 4.6149 0
M  V30 2462 H 240.184 -4.45806 4.1724 0
M  V30 2463 H 241.598 -2.42886 5.19307 0
M  V30 2464 H 239.995 -1.83343 5.71407 0
M  V30 2465 H 241.065 -0.76528 4.78823 0
M  V30 2466 N 242.408 -1.52605 -0.393616 0
M  V30 2467 C 243.656 -1.67093 -1.13685 0
M  V30 2468 C 243.977 -0.411011 -1.90619 0
M  V30 2469 O 243.247 0.574491 -1.87287 0
M  V30 2470 H 241.827 -0.615923 -0.422668 0
M  V30 2471 H 244.489 -1.89704 -0.447039 0
M  V30 2472 H 243.585 -2.51922 -1.84232 0
M  V30 2473 N 243.887 0.651787 -1.4349 0
M  V30 2474 C 244.834 1.76462 -1.4876 0
M  V30 2475 C 245.804 1.62641 -0.337189 0
M  V30 2476 O 246.989 1.82864 -0.544544 0
M  V30 2477 C 244.129 3.14623 -1.41796 0
M  V30 2478 C 243.242 3.39568 -2.67053 0
M  V30 2479 C 242.377 4.67585 -2.52068 0
M  V30 2480 C 241.416 4.85639 -3.72587 0
M  V30 2481 N 240.553 6.04915 -3.56402 0
M  V30 2482 H 245.393 1.71293 -2.43849 0
M  V30 2483 H 242.93 0.835889 -1.21043 0
M  V30 2484 H 244.888 3.94496 -1.35753 0
M  V30 2485 H 243.518 3.18859 -0.50288 0
M  V30 2486 H 242.57 2.53783 -2.8337 0
M  V30 2487 H 243.882 3.48795 -3.56572 0
M  V30 2488 H 243.036 5.55586 -2.4374 0
M  V30 2489 H 241.775 4.60681 -1.60075 0
M  V30 2490 H 240.78 3.96073 -3.81321 0
M  V30 2491 H 242.005 4.94372 -4.65589 0
M  V30 2492 H 239.951 5.9914 -2.67146 0
M  V30 2493 H 239.868 6.15106 -4.39524 0
M  V30 2494 H 241.136 6.95533 -3.51929 0
M  V30 2495 N 245.365 1.30045 0.890287 0
M  V30 2496 C 246.315 1.12592 1.9826 0
M  V30 2497 C 247.299 0.0426021 1.60844 0
M  V30 2498 O 248.491 0.265346 1.75 0
M  V30 2499 C 245.62 0.814301 3.33503 0
M  V30 2500 C 244.706 1.93761 3.7725 0
M  V30 2501 N 245.097 3.18232 3.93143 0
M  V30 2502 C 243.395 1.83277 4.06602 0
M  V30 2503 C 244.096 3.9158 4.30163 0
M  V30 2504 N 243.072 3.19591 4.3973 0
M  V30 2505 H 246.874 2.07003 2.08631 0
M  V30 2506 H 244.388 1.21307 1.07974 0
M  V30 2507 H 246.385 0.67029 4.11476 0
M  V30 2508 H 245.045 -0.121797 3.24471 0
M  V30 2509 H 246.056 3.53581 3.78419 0
M  V30 2510 H 242.733 0.97001 4.06075 0
M  V30 2511 H 244.123 4.98744 4.50226 0
M  V30 2512 N 246.843 -1.10192 1.12674 0
M  V30 2513 C 247.753 -2.20172 0.810026 0
M  V30 2514 C 248.769 -1.72821 -0.202188 0
M  V30 2515 O 249.945 -2.01369 -0.0351691 0
M  V30 2516 C 247.01 -3.45631 0.272007 0
M  V30 2517 C 246.071 -4.07704 1.34447 0
M  V30 2518 C 245.304 -5.27175 0.832029 0
M  V30 2519 O 245.527 -5.69425 -0.333284 0
M  V30 2520 O 244.461 -5.80168 1.60277 0
M  V30 2521 H 248.287 -2.49701 1.72867 0
M  V30 2522 H 245.872 -1.18977 0.903597 0
M  V30 2523 H 247.754 -4.21394 -0.0230219 0
M  V30 2524 H 246.429 -3.17723 -0.619164 0
M  V30 2525 H 245.336 -3.33614 1.6927 0
M  V30 2526 H 246.669 -4.3982 2.2095 0
M  V30 2527 N 248.321 -0.919034 -1.28029 0
M  V30 2528 C 249.269 -0.401753 -2.29104 0
M  V30 2529 C 250.263 0.509354 -1.61561 0
M  V30 2530 O 251.469 0.390014 -1.75724 0
M  V30 2531 H 247.844 -0.111331 -0.743713 0
M  V30 2532 H 249.815 -1.2672 -2.70156 0
M  V30 2533 C 248.564 0.338148 -3.46052 0
M  V30 2534 H 247.887 -0.353732 -3.98232 0
M  V30 2535 H 249.327 0.664653 -4.18758 0
M  V30 2536 C 247.786 1.54798 -2.99231 0
M  V30 2537 O 248.316 2.64696 -3.02157 0
M  V30 2538 N 246.522 1.3968 -2.54829 0
M  V30 2539 H 246.069 0.502698 -2.52647 0
M  V30 2540 H 246.027 2.20755 -2.23863 0
M  V30 2541 N 249.799 1.42003 -0.683588 0
M  V30 2542 C 251.024 2.06265 -0.216647 0
M  V30 2543 C 251.449 1.51059 1.12083 0
M  V30 2544 O 250.807 0.632638 1.69904 0
M  V30 2545 C 250.855 3.60191 -0.171759 0
M  V30 2546 O 249.959 4.03396 0.857069 0
M  V30 2547 H 249.3 0.65502 -0.108834 0
M  V30 2548 H 251.83 1.81982 -0.935077 0
M  V30 2549 H 251.84 4.08 0.0014303 0
M  V30 2550 H 250.515 3.99743 -1.14796 0
M  V30 2551 H 249.092 3.67117 0.654208 0
M  V30 2552 N 251.277 0.427512 1.51691 0
M  V30 2553 C 252.207 -0.3796 2.30394 0
M  V30 2554 C 253.188 -1.02982 1.35384 0
M  V30 2555 O 254.373 -1.03534 1.643 0
M  V30 2556 C 251.503 -1.48649 3.1388 0
M  V30 2557 C 250.457 -0.960294 4.17088 0
M  V30 2558 C 249.783 -2.16219 4.89033 0
M  V30 2559 C 251.083 -0.00153679 5.223 0
M  V30 2560 H 252.777 0.277164 2.98114 0
M  V30 2561 H 250.323 0.134739 1.43368 0
M  V30 2562 H 252.276 -2.05826 3.67714 0
M  V30 2563 H 251 -2.1714 2.43962 0
M  V30 2564 H 249.659 -0.410806 3.64291 0
M  V30 2565 H 249.307 -2.83307 4.15628 0
M  V30 2566 H 249.007 -1.81654 5.58816 0
M  V30 2567 H 250.531 -2.73968 5.45687 0
M  V30 2568 H 251.945 -0.482687 5.71264 0
M  V30 2569 H 250.342 0.256199 5.99553 0
M  V30 2570 H 251.412 0.938174 4.75738 0
M  V30 2571 N 252.755 -1.56801 0.158532 0
M  V30 2572 C 254.032 -1.88131 -0.535357 0
M  V30 2573 C 254.412 -1.06638 -1.82186 0
M  V30 2574 O 253.76 -0.156533 -2.27963 0
M  V30 2575 C 253.97 -3.39949 -0.789653 0
M  V30 2576 C 255.318 -4.09416 -1.12533 0
M  V30 2577 O 256.342 -3.45194 -0.878622 0
M  V30 2578 O 255.201 -5.22855 -1.59014 0
M  V30 2579 H 252.295 -0.780143 -0.27442 0
M  V30 2580 H 254.841 -1.68564 0.19601 0
M  V30 2581 H 253.613 -3.91115 0.120353 0
M  V30 2582 H 253.236 -3.65084 -1.57479 0
M  V30 2583 N 254.233 0.115231 -1.57178 0
M  V30 2584 C 255.196 1.12526 -1.99676 0
M  V30 2585 C 256.196 1.34095 -0.88742 0
M  V30 2586 O 257.386 1.30548 -1.15337 0
M  V30 2587 C 254.518 2.4789 -2.34015 0
M  V30 2588 H 255.711 0.759912 -2.90113 0
M  V30 2589 H 253.264 0.359648 -1.52106 0
M  V30 2590 H 253.999 2.89339 -1.4647 0
M  V30 2591 H 253.784 2.33588 -3.14927 0
M  V30 2592 H 255.274 3.20575 -2.67622 0
M  V30 2593 N 255.711 1.52812 0.385517 0
M  V30 2594 C 256.958 1.68026 1.1302 0
M  V30 2595 C 257.286 0.421934 1.89868 0
M  V30 2596 O 256.541 -0.595749 1.86412 0
M  V30 2597 C 256.84 2.86856 2.13187 0
M  V30 2598 C 256.506 4.24159 1.5297 0
M  V30 2599 C 255.168 4.61501 1.36274 0
M  V30 2600 C 257.52 5.09627 1.09223 0
M  V30 2601 C 254.848 5.81966 0.743837 0
M  V30 2602 C 257.2 6.30719 0.487411 0
M  V30 2603 C 255.864 6.6679 0.307777 0
M  V30 2604 H 255.134 0.614849 0.413571 0
M  V30 2605 H 257.781 1.86962 0.414405 0
M  V30 2606 H 256.086 2.6235 2.90998 0
M  V30 2607 H 257.783 2.95821 2.70722 0
M  V30 2608 H 254.373 3.94746 1.66954 0
M  V30 2609 H 258.557 4.81343 1.20922 0
M  V30 2610 H 253.813 6.08519 0.592891 0
M  V30 2611 H 257.987 6.96259 0.140143 0
M  V30 2612 H 255.614 7.60001 -0.173879 0
M  V30 2613 N 257.189 -0.644168 1.43834 0
M  V30 2614 C 258.122 -1.76906 1.44151 0
M  V30 2615 C 259.1 -1.59774 0.301857 0
M  V30 2616 O 260.284 -1.81834 0.496841 0
M  V30 2617 C 257.411 -3.14321 1.26174 0
M  V30 2618 C 256.457 -3.50134 2.43533 0
M  V30 2619 S 257.29 -3.49085 4.06079 0
M  V30 2620 C 258.446 -4.89142 3.90501 0
M  V30 2621 H 258.679 -1.76368 2.39336 0
M  V30 2622 H 256.212 -0.817624 1.30974 0
M  V30 2623 H 258.17 -3.93625 1.16489 0
M  V30 2624 H 256.831 -3.12412 0.325224 0
M  V30 2625 H 256.024 -4.50095 2.26783 0
M  V30 2626 H 255.626 -2.78264 2.4989 0
M  V30 2627 H 257.918 -5.78036 3.53385 0
M  V30 2628 H 258.861 -5.10945 4.90246 0
M  V30 2629 H 259.269 -4.63102 3.22795 0
M  V30 2630 N 258.668 -1.30515 -0.883378 0
M  V30 2631 C 259.6 -1.12846 -1.99496 0
M  V30 2632 C 260.613 -0.0712571 -1.62644 0
M  V30 2633 O 261.802 -0.317432 -1.75655 0
M  V30 2634 C 258.902 -0.699123 -3.3161 0
M  V30 2635 C 258.075 -1.83842 -3.96889 0
M  V30 2636 C 257.134 -1.39737 -5.07307 0
M  V30 2637 O 256.16 -2.10485 -5.28852 0
M  V30 2638 N 257.362 -0.277279 -5.79837 0
M  V30 2639 H 260.127 -2.08585 -2.15203 0
M  V30 2640 H 257.688 -1.22672 -1.05656 0
M  V30 2641 H 259.68 -0.387044 -4.02845 0
M  V30 2642 H 258.25 0.166276 -3.12157 0
M  V30 2643 H 257.47 -2.31853 -3.18807 0
M  V30 2644 H 258.758 -2.60187 -4.37241 0
M  V30 2645 H 258.156 0.3122 -5.64838 0
M  V30 2646 H 256.713 -0.0246623 -6.51795 0
M  V30 2647 N 260.146 1.09593 -1.13257 0
M  V30 2648 C 261.056 2.19739 -0.821691 0
M  V30 2649 C 262.072 1.72926 0.19302 0
M  V30 2650 O 263.248 2.01385 0.0244895 0
M  V30 2651 C 260.313 3.45482 -0.290333 0
M  V30 2652 C 259.374 4.06985 -1.36607 0
M  V30 2653 C 258.607 5.26726 -0.859975 0
M  V30 2654 O 258.83 5.69594 0.303082 0
M  V30 2655 O 257.764 5.7931 -1.63351 0
M  V30 2656 H 261.59 2.48781 -1.74189 0
M  V30 2657 H 259.175 1.18496 -0.909894 0
M  V30 2658 H 261.057 4.214 0.000674022 0
M  V30 2659 H 259.732 3.18047 0.602306 0
M  V30 2660 H 258.639 3.32712 -1.71037 0
M  V30 2661 H 259.972 4.38643 -2.23279 0
M  V30 2662 N 261.624 0.925811 1.2754 0
M  V30 2663 C 262.587 0.428129 2.25166 0
M  V30 2664 C 263.587 -0.452261 1.54309 0
M  V30 2665 O 264.777 -0.253608 1.72344 0
M  V30 2666 C 261.909 -0.384749 3.38722 0
M  V30 2667 H 263.102 1.29066 2.70706 0
M  V30 2668 H 260.655 0.706323 1.3943 0
M  V30 2669 H 261.39 -1.26618 2.98561 0
M  V30 2670 H 261.175 0.246454 3.91325 0
M  V30 2671 H 262.665 -0.723389 4.11287 0
M  V30 2672 N 263.102 -1.41638 0.69111 0
M  V30 2673 C 264.032 -2.3347 0.037248 0
M  V30 2674 C 265.013 -1.51575 -0.771947 0
M  V30 2675 O 266.198 -1.80126 -0.72582 0
M  V30 2676 C 263.328 -3.35354 -0.903064 0
M  V30 2677 C 262.282 -4.27526 -0.201288 0
M  V30 2678 C 261.608 -5.19747 -1.25565 0
M  V30 2679 C 262.908 -5.13959 0.929689 0
M  V30 2680 H 264.602 -2.88397 0.804227 0
M  V30 2681 H 262.148 -1.38669 0.388189 0
M  V30 2682 H 264.101 -3.98519 -1.36969 0
M  V30 2683 H 262.825 -2.78767 -1.70166 0
M  V30 2684 H 261.484 -3.65779 0.245265 0
M  V30 2685 H 261.132 -4.59479 -2.04666 0
M  V30 2686 H 260.832 -5.8225 -0.791128 0
M  V30 2687 H 262.356 -5.85789 -1.72288 0
M  V30 2688 H 263.77 -5.70718 0.543546 0
M  V30 2689 H 262.167 -5.85379 1.32103 0
M  V30 2690 H 263.237 -4.51389 1.77133 0
M  V30 2691 N 264.58 -0.43555 -1.51462 0
M  V30 2692 C 265.543 0.365137 -2.26273 0
M  V30 2693 C 266.543 0.951227 -1.29647 0
M  V30 2694 O 267.733 0.825958 -1.53374 0
M  V30 2695 C 264.865 1.51645 -3.05314 0
M  V30 2696 H 266.058 -0.290474 -2.9849 0
M  V30 2697 H 263.611 -0.188676 -1.55157 0
M  V30 2698 H 264.346 2.20816 -2.3751 0
M  V30 2699 H 264.131 1.10238 -3.76284 0
M  V30 2700 H 265.621 2.08218 -3.61987 0
M  V30 2701 N 266.058 1.56714 -0.166846 0
M  V30 2702 C 267.005 2.17746 0.765193 0
M  V30 2703 C 267.975 1.11614 1.23011 0
M  V30 2704 O 269.16 1.39745 1.29908 0
M  V30 2705 C 266.3 2.81882 1.9909 0
M  V30 2706 C 265.413 4.02462 1.56997 0
M  V30 2707 C 264.548 4.54537 2.749 0
M  V30 2708 C 263.587 5.67538 2.29275 0
M  V30 2709 N 262.724 6.14142 3.40255 0
M  V30 2710 H 267.564 2.97048 0.237952 0
M  V30 2711 H 265.101 1.4672 0.105725 0
M  V30 2712 H 267.059 3.17221 2.70974 0
M  V30 2713 H 265.689 2.05191 2.49192 0
M  V30 2714 H 264.741 3.72973 0.748037 0
M  V30 2715 H 266.053 4.84273 1.19503 0
M  V30 2716 H 265.207 4.92035 3.54946 0
M  V30 2717 H 263.946 3.71774 3.1565 0
M  V30 2718 H 262.951 5.29597 1.47674 0
M  V30 2719 H 264.176 6.52099 1.89588 0
M  V30 2720 H 262.122 5.3431 3.8059 0
M  V30 2721 H 262.039 6.9093 3.06841 0
M  V30 2722 H 263.307 6.56289 4.206 0
M  V30 2723 N 267.536 -0.106894 1.57237 0
M  V30 2724 C 268.764 -0.826389 1.8968 0
M  V30 2725 C 269.179 -1.72856 0.759353 0
M  V30 2726 O 268.536 -1.80503 -0.269263 0
M  V30 2727 C 268.587 -1.64967 3.21665 0
M  V30 2728 O 268.308 -0.783804 4.31031 0
M  V30 2729 C 269.809 -2.47326 3.67892 0
M  V30 2730 H 267.029 -0.236927 0.627779 0
M  V30 2731 H 269.573 -0.0876593 2.04312 0
M  V30 2732 H 267.728 -2.34103 3.08666 0
M  V30 2733 H 268.142 -1.35284 5.06753 0
M  V30 2734 H 269.616 -3.00604 4.6297 0
M  V30 2735 H 270.093 -3.25247 2.95146 0
M  V30 2736 H 270.699 -1.83411 3.83719 0
M  V30 2737 N 269.014 -1.53014 -0.377408 0
M  V30 2738 C 269.944 -1.81589 -1.46791 0
M  V30 2739 C 270.925 -0.668622 -1.56408 0
M  V30 2740 O 272.11 -0.917337 -1.71168 0
M  V30 2741 C 269.24 -1.99519 -2.8427 0
M  V30 2742 C 268.194 -3.15249 -2.89486 0
M  V30 2743 C 267.52 -3.18451 -4.29527 0
M  V30 2744 C 268.82 -4.54084 -2.58079 0
M  V30 2745 H 270.514 -2.7291 -1.23127 0
M  V30 2746 H 268.06 -1.31319 -0.590883 0
M  V30 2747 H 270.013 -2.18092 -3.60575 0
M  V30 2748 H 268.737 -1.04897 -3.09296 0
M  V30 2749 H 267.396 -2.96477 -2.15631 0
M  V30 2750 H 267.044 -2.2149 -4.5161 0
M  V30 2751 H 266.744 -3.962 -4.33934 0
M  V30 2752 H 268.268 -3.39193 -5.07721 0
M  V30 2753 H 269.682 -4.72899 -3.24098 0
M  V30 2754 H 268.079 -5.33987 -2.7382 0
M  V30 2755 H 269.149 -4.60006 -1.53372 0
M  V30 2756 N 270.492 0.636531 -1.44174 0
M  V30 2757 C 271.769 1.39463 -1.37148 0
M  V30 2758 C 272.149 2.11082 -0.027507 0
M  V30 2759 O 271.497 2.05954 0.989716 0
M  V30 2760 C 271.707 2.36552 -2.56601 0
M  V30 2761 C 273.055 3.00048 -3.00427 0
M  V30 2762 O 274.079 2.46878 -2.56767 0
M  V30 2763 O 272.938 3.96488 -3.76111 0
M  V30 2764 H 270.032 0.623903 -0.542839 0
M  V30 2765 H 272.578 0.662039 -1.56253 0
M  V30 2766 H 271.35 1.82692 -3.46034 0
M  V30 2767 H 270.973 3.17236 -2.39681 0
M  V30 2768 N 271.97 1.30982 0.876444 0
M  V30 2769 C 273.247 1.10942 1.61094 0
M  V30 2770 C 273.627 -0.338223 2.08373 0
M  V30 2771 O 272.975 -1.33122 1.85717 0
M  V30 2772 C 273.185 2.11789 2.77392 0
M  V30 2773 C 274.533 2.43965 3.47514 0
M  V30 2774 O 275.557 2.10166 2.87591 0
M  V30 2775 O 274.416 3.01817 4.55597 0
M  V30 2776 H 271.51 0.42667 0.708436 0
M  V30 2777 H 274.056 1.42438 0.922474 0
M  V30 2778 H 272.828 3.09194 2.39823 0
M  V30 2779 H 272.451 1.81161 3.5393 0
M  V30 2780 N 273.449 -1.08991 1.13837 0
M  V30 2781 C 274.674 -1.85551 0.926585 0
M  V30 2782 C 275.099 -1.80782 -0.519566 0
M  V30 2783 O 274.457 -1.18855 -1.36906 0
M  V30 2784 C 274.505 -3.31266 1.42462 0
M  V30 2785 O 273.609 -4.07822 0.612789 0
M  V30 2786 H 272.95 -0.575192 0.331738 0
M  V30 2787 H 275.48 -1.37604 1.51414 0
M  V30 2788 H 275.49 -3.82112 1.43019 0
M  V30 2789 H 274.165 -3.34052 2.47754 0
M  V30 2790 H 272.742 -3.66731 0.675463 0
M  V30 2791 N 274.927 -0.932562 -1.27047 0
M  V30 2792 C 275.857 -0.452902 -2.29066 0
M  V30 2793 C 276.838 0.489338 -1.62909 0
M  V30 2794 O 278.023 0.393046 -1.90181 0
M  V30 2795 C 275.153 0.290698 -3.46081 0
M  V30 2796 C 274.107 -0.564168 -4.24265 0
M  V30 2797 C 273.433 0.308886 -5.33807 0
M  V30 2798 C 274.733 -1.83112 -4.89149 0
M  V30 2799 H 276.427 -1.30552 -2.69437 0
M  V30 2800 H 273.973 -0.629201 -1.29526 0
M  V30 2801 H 275.926 0.637233 -4.16554 0
M  V30 2802 H 274.65 1.17738 -3.0464 0
M  V30 2803 H 273.309 -0.893477 -3.55545 0
M  V30 2804 H 272.957 1.19467 -4.88607 0
M  V30 2805 H 272.657 -0.259633 -5.87026 0
M  V30 2806 H 274.181 0.650884 -6.07121 0
M  V30 2807 H 275.595 -1.55236 -5.51883 0
M  V30 2808 H 273.992 -2.34353 -5.52448 0
M  V30 2809 H 275.062 -2.54772 -4.12576 0
M  V30 2810 N 276.405 1.4127 -0.698611 0
M  V30 2811 C 277.63 2.06024 -0.238512 0
M  V30 2812 C 278.055 1.5224 1.10475 0
M  V30 2813 O 277.413 0.650623 1.69223 0
M  V30 2814 C 277.461 3.59988 -0.209952 0
M  V30 2815 O 276.565 4.04282 0.814235 0
M  V30 2816 H 275.906 0.653829 -0.115775 0
M  V30 2817 H 278.436 1.8098 -0.954326 0
M  V30 2818 H 278.446 4.07979 -0.0418436 0
M  V30 2819 H 277.121 3.98503 -1.1903 0
M  V30 2820 H 275.698 3.6779 0.615234 0
M  V30 2821 N 277.883 0.443576 1.51229 0
M  V30 2822 C 279.129 -0.120975 2.02439 0
M  V30 2823 C 279.462 -1.41815 1.32674 0
M  V30 2824 O 278.737 -1.89373 0.443622 0
M  V30 2825 C 279.02 -0.333291 3.58554 0
M  V30 2826 C 278.873 0.982968 4.38928 0
M  V30 2827 C 280.192 -1.10028 4.26124 0
M  V30 2828 H 277.311 -0.0424923 0.735774 0
M  V30 2829 H 279.953 0.583794 1.80809 0
M  V30 2830 H 278.103 -0.933614 3.77115 0
M  V30 2831 H 279.775 1.61775 4.32003 0
M  V30 2832 H 278.018 1.58611 4.03763 0
M  V30 2833 H 278.689 0.788379 5.46341 0
M  V30 2834 H 281.165 -0.591711 4.11871 0
M  V30 2835 H 280.041 -1.21761 5.35225 0
M  V30 2836 H 280.302 -2.12996 3.87408 0
M  V30 2837 N 279.361 -1.56624 0.175154 0
M  V30 2838 C 280.324 -2.16934 -0.739738 0
M  V30 2839 C 281.324 -1.11842 -1.15533 0
M  V30 2840 O 282.514 -1.37335 -1.07167 0
M  V30 2841 C 279.646 -2.75531 -2.00738 0
M  V30 2842 H 280.839 -2.99131 -0.214639 0
M  V30 2843 H 278.392 -1.56123 -0.0744197 0
M  V30 2844 H 279.127 -1.97078 -2.57548 0
M  V30 2845 H 278.912 -3.52444 -1.71831 0
M  V30 2846 H 280.402 -3.21904 -2.66021 0
M  V30 2847 N 280.839 0.0985539 -1.57292 0
M  V30 2848 C 282.116 0.834155 -1.76921 0
M  V30 2849 C 282.496 1.97101 -0.755928 0
M  V30 2850 O 281.844 2.27474 0.216245 0
M  V30 2851 C 282.054 1.33194 -3.22584 0
M  V30 2852 C 283.402 1.77611 -3.85668 0
M  V30 2853 O 284.426 1.42825 -3.26312 0
M  V30 2854 O 283.285 2.4192 -4.90038 0
M  V30 2855 H 280.379 0.397628 -0.725135 0
M  V30 2856 H 282.925 0.0807044 -1.69508 0
M  V30 2857 H 281.697 0.517248 -3.87866 0
M  V30 2858 H 281.32 2.1475 -3.34616 0
M  V30 2859 N 282.317 1.53212 0.369288 0
M  V30 2860 C 283.247 1.82365 1.45826 0
M  V30 2861 C 284.228 0.676907 1.56051 0
M  V30 2862 O 285.413 0.926401 1.70679 0
M  V30 2863 C 282.543 2.01023 2.83208 0
M  V30 2864 C 281.497 3.1678 2.8781 0
M  V30 2865 C 280.823 3.20724 4.27832 0
M  V30 2866 C 282.123 4.55447 2.55667 0
M  V30 2867 H 283.817 2.73559 1.21678 0
M  V30 2868 H 281.363 1.3163 0.583911 0
M  V30 2869 H 283.316 2.20001 3.59413 0
M  V30 2870 H 282.04 1.06536 3.08736 0
M  V30 2871 H 280.699 2.97616 2.14056 0
M  V30 2872 H 280.347 2.23882 4.50429 0
M  V30 2873 H 280.047 3.98496 4.31827 0
M  V30 2874 H 281.571 3.41881 5.05915 0
M  V30 2875 H 282.985 4.74611 3.21586 0
M  V30 2876 H 281.382 5.35432 2.70984 0
M  V30 2877 H 282.452 4.60812 1.5093 0
M  V30 2878 N 283.795 -0.628877 1.44509 0
M  V30 2879 C 285.041 -1.39045 1.47629 0
M  V30 2880 C 285.374 -1.93892 0.109343 0
M  V30 2881 O 284.649 -1.7379 -0.87334 0
M  V30 2882 C 284.932 -2.55408 2.53848 0
M  V30 2883 C 284.785 -2.05896 3.99909 0
M  V30 2884 C 286.104 -3.5759 2.56549 0
M  V30 2885 H 283.223 -0.504232 0.537512 0
M  V30 2886 H 285.865 -0.710854 1.76201 0
M  V30 2887 H 284.015 -3.13384 2.29615 0
M  V30 2888 H 285.687 -1.52734 4.35282 0
M  V30 2889 H 283.93 -1.37061 4.11578 0
M  V30 2890 H 284.601 -2.89681 4.69882 0
M  V30 2891 H 287.077 -3.09419 2.78207 0
M  V30 2892 H 285.953 -4.36527 3.32769 0
M  V30 2893 H 286.214 -4.11808 1.60832 0
M  V30 2894 N 285.273 -1.31445 -0.869486 0
M  V30 2895 C 286.236 -1.19094 -1.9583 0
M  V30 2896 C 287.236 -0.117906 -1.60367 0
M  V30 2897 O 288.426 -0.367208 -1.70286 0
M  V30 2898 C 285.558 -0.828165 -3.30688 0
M  V30 2899 H 286.751 -2.15842 -2.08212 0
M  V30 2900 H 284.304 -1.15063 -1.05784 0
M  V30 2901 H 285.039 0.138142 -3.24006 0
M  V30 2902 H 284.824 -1.6038 -3.578 0
M  V30 2903 H 286.314 -0.765658 -4.10521 0
M  V30 2904 N 286.751 1.08385 -1.14413 0
M  V30 2905 C 287.681 2.17321 -0.854044 0
M  V30 2906 C 288.662 1.69024 0.191049 0
M  V30 2907 O 289.847 1.94141 0.0476779 0
M  V30 2908 C 286.977 3.45719 -0.330983 0
M  V30 2909 C 285.931 4.07409 -1.31155 0
M  V30 2910 C 285.257 5.30762 -0.64778 0
M  V30 2911 C 286.557 4.48665 -2.67388 0
M  V30 2912 H 288.251 2.41845 -1.76498 0
M  V30 2913 H 285.797 1.16233 -0.850051 0
M  V30 2914 H 287.75 4.21241 -0.115645 0
M  V30 2915 H 286.474 3.2075 0.615381 0
M  V30 2916 H 285.133 3.33919 -1.51306 0
M  V30 2917 H 284.781 5.02078 0.304398 0
M  V30 2918 H 284.481 5.72992 -1.30207 0
M  V30 2919 H 286.005 6.08998 -0.441972 0
M  V30 2920 H 287.419 5.15364 -2.51143 0
M  V30 2921 H 285.816 5.01814 -3.29093 0
M  V30 2922 H 286.886 3.60543 -3.24248 0
M  V30 2923 N 288.23 0.939286 1.26551 0
M  V30 2924 C 289.458 0.602536 1.97932 0
M  V30 2925 C 289.873 -0.82206 1.69964 0
M  V30 2926 O 289.23 -1.54789 0.966784 0
M  V30 2927 C 289.281 0.832946 3.51773 0
M  V30 2928 O 289.002 2.20151 3.78768 0
M  V30 2929 C 290.503 0.506483 4.40397 0
M  V30 2930 H 287.723 0.227248 0.631347 0
M  V30 2931 H 290.267 1.25948 1.61113 0
M  V30 2932 H 288.422 0.222644 3.8676 0
M  V30 2933 H 288.836 2.26013 4.73306 0
M  V30 2934 H 290.31 0.718333 5.47306 0
M  V30 2935 H 290.787 -0.558451 4.35635 0
M  V30 2936 H 291.393 1.09543 4.10951 0
M  V30 2937 N 289.708 -1.40897 0.706093 0
M  V30 2938 C 290.638 -2.33418 0.0620085 0
M  V30 2939 C 291.619 -1.52385 -0.755827 0
M  V30 2940 O 292.804 -1.80886 -0.706674 0
M  V30 2941 C 289.934 -3.36293 -0.867445 0
M  V30 2942 C 288.888 -4.27716 -0.155932 0
M  V30 2943 C 288.214 -5.2105 -1.20046 0
M  V30 2944 C 289.514 -5.12944 0.984149 0
M  V30 2945 H 291.208 -2.87527 0.83477 0
M  V30 2946 H 288.754 -1.38249 0.402875 0
M  V30 2947 H 290.707 -3.99949 -1.32735 0
M  V30 2948 H 289.431 -2.80556 -1.67199 0
M  V30 2949 H 288.09 -3.65498 0.284047 0
M  V30 2950 H 287.738 -4.61624 -1.99781 0
M  V30 2951 H 287.438 -5.83056 -0.729328 0
M  V30 2952 H 288.962 -5.87584 -1.66066 0
M  V30 2953 H 290.376 -5.70109 0.604048 0
M  V30 2954 H 288.773 -5.83945 1.38304 0
M  V30 2955 H 289.843 -4.49485 1.81911 0
M  V30 2956 N 291.186 -0.45159 -1.50991 0
M  V30 2957 C 292.096 0.358431 -2.31846 0
M  V30 2958 C 293.112 1.01438 -1.41373 0
M  V30 2959 O 294.288 1.00663 -1.74439 0
M  V30 2960 C 291.353 1.43704 -3.15515 0
M  V30 2961 C 290.414 0.799742 -4.21785 0
M  V30 2962 C 289.647 1.82696 -5.01456 0
M  V30 2963 O 289.87 3.05105 -4.81941 0
M  V30 2964 O 288.804 1.40958 -5.85162 0
M  V30 2965 H 292.63 -0.302032 -3.02194 0
M  V30 2966 H 290.215 -0.213825 -1.47862 0
M  V30 2967 H 292.097 2.06227 -3.67489 0
M  V30 2968 H 290.772 2.08133 -2.47916 0
M  V30 2969 H 289.679 0.136084 -3.73852 0
M  V30 2970 H 291.012 0.198718 -4.91799 0
M  V30 2971 N 292.664 1.56529 -0.183458 0
M  V30 2972 C 293.892 2.01623 0.464285 0
M  V30 2973 C 294.307 1.06366 1.55986 0
M  V30 2974 O 293.664 0.0665398 1.82379 0
M  V30 2975 C 293.715 3.46475 1.03139 0
M  V30 2976 O 293.436 4.38095 -0.0204675 0
M  V30 2977 C 294.937 4.0703 1.75617 0
M  V30 2978 H 292.157 0.660596 0.117704 0
M  V30 2979 H 294.701 2.02451 -0.288751 0
M  V30 2980 H 292.856 3.46383 1.73486 0
M  V30 2981 H 293.27 5.22973 0.399952 0
M  V30 2982 H 294.744 5.10271 2.10542 0
M  V30 2983 H 295.221 3.49819 2.65563 0
M  V30 2984 H 295.827 4.1086 1.09882 0
M  V30 2985 N 294.142 -0.090211 1.57342 0
M  V30 2986 C 295.39 -0.791241 1.85967 0
M  V30 2987 C 295.711 -1.7903 0.772859 0
M  V30 2988 O 294.981 -1.94872 -0.200398 0
M  V30 2989 H 293.561 -0.295205 0.686195 0
M  V30 2990 H 296.223 -0.0706782 1.94772 0
M  V30 2991 H 295.319 -1.31882 2.82867 0
M  V30 2992 N 295.62 -1.53406 -0.361157 0
M  V30 2993 C 296.567 -1.80156 -1.44265 0
M  V30 2994 C 297.537 -0.646183 -1.53015 0
M  V30 2995 O 298.722 -0.888818 -1.68833 0
M  V30 2996 C 295.862 -2.00116 -2.81154 0
M  V30 2997 C 294.975 -3.27833 -2.81335 0
M  V30 2998 C 294.11 -3.37957 -4.09828 0
M  V30 2999 C 293.149 -4.59689 -4.04168 0
M  V30 3000 N 292.286 -4.66942 -5.24318 0
M  V30 3001 H 297.126 -2.72438 -1.20754 0
M  V30 3002 H 294.663 -1.34954 -0.585296 0
M  V30 3003 H 296.621 -2.09677 -3.60682 0
M  V30 3004 H 295.251 -1.11167 -3.03054 0
M  V30 3005 H 294.303 -3.27204 -1.94014 0
M  V30 3006 H 295.615 -4.17442 -2.73027 0
M  V30 3007 H 294.769 -3.46853 -4.97773 0
M  V30 3008 H 293.508 -2.46372 -4.20894 0
M  V30 3009 H 292.513 -4.50889 -3.14609 0
M  V30 3010 H 293.738 -5.5262 -3.947 0
M  V30 3011 H 291.684 -3.7826 -5.35962 0
M  V30 3012 H 291.601 -5.50462 -5.18197 0
M  V30 3013 H 292.869 -4.80127 -6.14084 0
M  V30 3014 N 297.098 0.621204 -1.44841 0
M  V30 3015 C 298.345 1.38055 -1.48145 0
M  V30 3016 C 298.673 1.94143 -0.117867 0
M  V30 3017 O 297.928 1.74713 0.881694 0
M  V30 3018 C 298.227 2.55675 -2.4973 0
M  V30 3019 C 297.893 2.17817 -3.94799 0
M  V30 3020 C 296.555 2.07205 -4.34303 0
M  V30 3021 C 298.907 1.88065 -4.86087 0
M  V30 3022 C 296.235 1.65045 -5.63007 0
M  V30 3023 C 298.587 1.47394 -6.15189 0
M  V30 3024 C 297.251 1.35331 -6.53637 0
M  V30 3025 H 296.521 0.505181 -0.542101 0
M  V30 3026 H 299.168 0.703477 -1.78111 0
M  V30 3027 H 297.473 3.2866 -2.13284 0
M  V30 3028 H 299.17 3.13904 -2.4953 0
M  V30 3029 H 295.76 2.26998 -3.63552 0
M  V30 3030 H 299.944 1.95168 -4.56315 0
M  V30 3031 H 295.2 1.54317 -5.91605 0
M  V30 3032 H 299.374 1.23415 -6.85377 0
M  V30 3033 H 297.001 1.02435 -7.53267 0
M  V30 3034 N 298.576 1.31904 0.862503 0
M  V30 3035 C 299.824 1.21776 1.61292 0
M  V30 3036 C 300.145 -0.222413 1.93727 0
M  V30 3037 O 299.415 -1.1451 1.58947 0
M  V30 3038 H 297.995 0.447717 0.597962 0
M  V30 3039 H 300.657 1.65326 1.03215 0
M  V30 3040 H 299.753 1.7948 2.5533 0
M  V30 3041 N 300.054 -1.07777 1.14986 0
M  V30 3042 C 301.3 -1.80557 0.923422 0
M  V30 3043 C 301.633 -1.86298 -0.548337 0
M  V30 3044 O 300.908 -1.34354 -1.40639 0
M  V30 3045 C 301.191 -3.25839 1.53299 0
M  V30 3046 C 301.044 -3.28269 3.07505 0
M  V30 3047 C 302.363 -4.22991 1.21518 0
M  V30 3048 H 299.482 -0.655493 0.336894 0
M  V30 3049 H 302.124 -1.26144 1.42083 0
M  V30 3050 H 300.274 -3.72306 1.10999 0
M  V30 3051 H 301.946 -2.90079 3.58681 0
M  V30 3052 H 300.189 -2.67355 3.4162 0
M  V30 3053 H 300.86 -4.30691 3.45266 0
M  V30 3054 H 303.336 -3.84894 1.581 0
M  V30 3055 H 302.212 -5.22945 1.66793 0
M  V30 3056 H 302.473 -4.41904 0.131505 0
M  V30 3057 N 301.532 -0.945985 -1.26051 0
M  V30 3058 C 302.757 -0.612525 -1.98149 0
M  V30 3059 C 303.182 0.806623 -1.69927 0
M  V30 3060 O 302.54 1.54411 -0.950108 0
M  V30 3061 C 302.588 -0.866981 -3.50023 0
M  V30 3062 O 301.692 0.0585333 -4.12358 0
M  V30 3063 H 301.033 -0.23379 -0.621481 0
M  V30 3064 H 303.563 -1.27023 -1.60395 0
M  V30 3065 H 303.573 -0.789792 -4.00283 0
M  V30 3066 H 302.248 -1.90135 -3.69894 0
M  V30 3067 H 300.825 -0.0701241 -3.72834 0
M  V30 3068 N 303.011 1.40521 -0.713556 0
M  V30 3069 C 303.974 2.29098 -0.0684347 0
M  V30 3070 C 304.974 1.45268 0.689472 0
M  V30 3071 O 306.164 1.66205 0.521677 0
M  V30 3072 C 303.296 3.28446 0.913024 0
M  V30 3073 H 304.489 2.87645 -0.84855 0
M  V30 3074 H 302.042 1.48809 -0.47809 0
M  V30 3075 H 302.777 2.74913 1.72027 0
M  V30 3076 H 302.562 3.90327 0.372472 0
M  V30 3077 H 304.052 3.94777 1.36165 0
M  V30 3078 N 304.489 0.459591 1.5075 0
M  V30 3079 C 305.422 -0.386257 2.24907 0
M  V30 3080 C 306.4 -1.006 1.27744 0
M  V30 3081 O 307.584 -1.04416 1.56938 0
M  V30 3082 C 304.711 -1.54021 3.01654 0
M  V30 3083 C 303.757 -1.03898 4.13651 0
M  V30 3084 S 304.59 0.0370501 5.35487 0
M  V30 3085 C 305.746 -1.12105 6.15779 0
M  V30 3086 H 305.979 0.243272 2.96303 0
M  V30 3087 H 303.512 0.244339 1.52454 0
M  V30 3088 H 305.47 -2.20163 3.46466 0
M  V30 3089 H 304.131 -2.14121 2.29806 0
M  V30 3090 H 303.324 -1.90254 4.66711 0
M  V30 3091 H 302.926 -0.45545 3.71216 0
M  V30 3092 H 305.218 -2.03501 6.46215 0
M  V30 3093 H 306.161 -0.62995 7.05292 0
M  V30 3094 H 306.569 -1.36967 5.47631 0
M  V30 3095 N 305.967 -1.56429 0.191757 0
M  V30 3096 C 306.93 -2.17707 -0.716688 0
M  V30 3097 C 307.93 -1.13061 -1.14341 0
M  V30 3098 O 309.12 -1.38464 -1.05704 0
M  V30 3099 C 306.252 -2.77644 -1.97804 0
M  V30 3100 H 307.445 -2.99342 -0.1829 0
M  V30 3101 H 304.998 -1.56193 -0.0578566 0
M  V30 3102 H 305.733 -1.99799 -2.55443 0
M  V30 3103 H 305.518 -3.54246 -1.68083 0
M  V30 3104 H 307.008 -3.24708 -2.62592 0
M  V30 3105 N 307.445 0.0818655 -1.57387 0
M  V30 3106 C 308.375 1.09885 -2.06028 0
M  V30 3107 C 309.356 1.4098 -0.951774 0
M  V30 3108 O 310.541 1.50781 -1.22387 0
M  V30 3109 C 307.671 2.4151 -2.4958 0
M  V30 3110 C 306.625 2.24792 -3.64215 0
M  V30 3111 C 305.951 3.61712 -3.93787 0
M  V30 3112 C 307.251 1.67749 -4.94629 0
M  V30 3113 H 308.945 0.694128 -2.91243 0
M  V30 3114 H 306.491 0.332448 -1.4011 0
M  V30 3115 H 308.444 3.12939 -2.82219 0
M  V30 3116 H 307.168 2.83943 -1.61381 0
M  V30 3117 H 305.827 1.55807 -3.31843 0
M  V30 3118 H 305.475 4.01697 -3.02735 0
M  V30 3119 H 305.175 3.51368 -4.70971 0
M  V30 3120 H 306.699 4.34587 -4.28913 0
M  V30 3121 H 308.113 2.29032 -5.25564 0
M  V30 3122 H 306.51 1.68128 -5.76067 0
M  V30 3123 H 307.58 0.638059 -4.80684 0
M  V30 3124 N 308.923 1.53595 0.353017 0
M  V30 3125 C 309.853 1.83902 1.43883 0
M  V30 3126 C 310.834 0.693421 1.55324 0
M  V30 3127 O 312.019 0.944452 1.69687 0
M  V30 3128 C 309.149 2.04016 2.8106 0
M  V30 3129 C 308.103 3.19814 2.84434 0
M  V30 3130 C 307.429 3.25244 4.24406 0
M  V30 3131 C 308.729 4.58133 2.50822 0
M  V30 3132 H 310.423 2.74835 1.1877 0
M  V30 3133 H 307.969 1.32242 0.569917 0
M  V30 3134 H 309.922 2.238 3.57059 0
M  V30 3135 H 308.646 1.09804 3.07588 0
M  V30 3136 H 307.305 2.9987 2.10887 0
M  V30 3137 H 306.953 2.28646 4.48029 0
M  V30 3138 H 306.653 4.03054 4.27576 0
M  V30 3139 H 308.177 3.47228 5.0226 0
M  V30 3140 H 309.591 4.77995 3.16534 0
M  V30 3141 H 307.988 5.38276 2.6529 0
M  V30 3142 H 309.058 4.62387 1.46034 0
M  V30 3143 N 310.401 -0.613514 1.45168 0
M  V30 3144 C 311.678 -1.37263 1.39349 0
M  V30 3145 C 312.058 -2.11012 0.0610848 0
M  V30 3146 O 311.406 -2.07502 -0.956825 0
M  V30 3147 C 311.616 -2.3244 2.60332 0
M  V30 3148 C 312.964 -2.9523 3.05163 0
M  V30 3149 O 313.988 -2.42762 2.60663 0
M  V30 3150 O 312.847 -3.90454 3.82372 0
M  V30 3151 H 309.941 -0.615188 0.552696 0
M  V30 3152 H 312.487 -0.637097 1.57287 0
M  V30 3153 H 311.259 -1.77164 3.48896 0
M  V30 3154 H 310.882 -3.13383 2.44698 0
M  V30 3155 N 311.879 -1.3236 -0.855495 0
M  V30 3156 C 312.842 -1.21164 -1.94556 0
M  V30 3157 C 313.842 -0.134908 -1.60233 0
M  V30 3158 O 315.032 -0.385249 -1.69887 0
M  V30 3159 C 312.164 -0.863192 -3.29791 0
M  V30 3160 H 313.357 -2.18038 -2.05911 0
M  V30 3161 H 310.91 -1.16179 -1.04557 0
M  V30 3162 H 311.645 0.103769 -3.24134 0
M  V30 3163 H 311.43 -1.64166 -3.56078 0
M  V30 3164 H 312.92 -0.809156 -4.09686 0
M  V30 3165 N 313.357 1.07166 -1.15556 0
M  V30 3166 C 314.32 2.12589 -0.856644 0
M  V30 3167 C 315.32 1.6015 0.14444 0
M  V30 3168 O 316.51 1.7399 -0.0854163 0
M  V30 3169 C 313.642 3.39753 -0.279405 0
M  V30 3170 H 314.835 2.40539 -1.79112 0
M  V30 3171 H 312.388 1.23086 -0.963298 0
M  V30 3172 H 313.123 3.17447 0.663174 0
M  V30 3173 H 312.908 3.79117 -1.00063 0
M  V30 3174 H 314.398 4.17507 -0.0879113 0
M  V30 3175 N 314.835 0.952656 1.25548 0
M  V30 3176 C 315.783 0.462354 2.27958 0
M  V30 3177 C 316.777 -0.46634 1.62855 0
M  V30 3178 O 317.983 -0.343287 1.76696 0
M  V30 3179 H 314.358 0.13101 0.7405 0
M  V30 3180 H 316.329 1.33839 2.66702 0
M  V30 3181 C 315.078 -0.24628 3.46827 0
M  V30 3182 H 314.401 0.459192 3.97154 0
M  V30 3183 H 315.841 -0.553393 4.20373 0
M  V30 3184 C 314.3 -1.4681 3.0323 0
M  V30 3185 O 314.83 -2.56591 3.09069 0
M  V30 3186 N 313.036 -1.32874 2.58443 0
M  V30 3187 H 312.583 -0.435536 2.53891 0
M  V30 3188 H 312.541 -2.14742 2.29637 0
M  V30 3189 N 316.313 -1.40141 0.720998 0
M  V30 3190 C 317.541 -2.05096 0.272656 0
M  V30 3191 C 317.956 -1.54334 -1.0875 0
M  V30 3192 O 317.313 -0.702211 -1.6845 0
M  V30 3193 C 317.364 -3.60636 0.249835 0
M  V30 3194 O 317.085 -4.09526 1.55629 0
M  V30 3195 C 318.586 -4.42772 -0.216396 0
M  V30 3196 H 315.806 -0.659897 0.121558 0
M  V30 3197 H 318.35 -1.79449 0.980723 0
M  V30 3198 H 316.505 -3.85232 -0.409237 0
M  V30 3199 H 316.919 -5.03758 1.4604 0
M  V30 3200 H 318.393 -5.51702 -0.181212 0
M  V30 3201 H 318.87 -4.20756 -1.25941 0
M  V30 3202 H 319.476 -4.23294 0.412596 0
M  V30 3203 N 317.792 -0.46758 -1.50504 0
M  V30 3204 C 319.04 0.0884469 -2.01906 0
M  V30 3205 C 319.361 1.40532 -1.35188 0
M  V30 3206 O 318.631 1.89515 -0.496079 0
M  V30 3207 H 317.211 0.0356765 -0.746148 0
M  V30 3208 H 319.873 -0.6172 -1.84869 0
M  V30 3209 H 318.969 0.2425 -3.11156 0
M  V30 3210 N 319.27 1.56325 -0.20005 0
M  V30 3211 C 320.498 2.02105 0.442874 0
M  V30 3212 C 320.913 1.08014 1.5485 0
M  V30 3213 O 320.27 0.0858797 1.82298 0
M  V30 3214 C 320.321 3.47549 0.994583 0
M  V30 3215 O 320.042 4.38049 -0.0669322 0
M  V30 3216 C 321.543 4.0887 1.7129 0
M  V30 3217 H 318.763 0.661807 0.110691 0
M  V30 3218 H 321.307 2.02134 -0.310207 0
M  V30 3219 H 319.462 3.48204 1.69803 0
M  V30 3220 H 319.876 5.23368 0.344462 0
M  V30 3221 H 321.35 5.12475 2.05118 0
M  V30 3222 H 321.827 3.52615 2.61838 0
M  V30 3223 H 322.433 4.12002 1.05518 0
M  V30 3224 N 320.748 -0.0735177 1.57428 0
M  V30 3225 C 321.978 -0.78483 1.91112 0
M  V30 3226 C 322.386 -1.71729 0.7941 0
M  V30 3227 O 321.729 -1.82105 -0.241542 0
M  V30 3228 C 321.791 -1.63346 3.20247 0
M  V30 3229 C 321.455 -0.870557 4.48632 0
M  V30 3230 C 322.452 -0.19058 5.19551 0
M  V30 3231 C 320.137 -0.838242 4.95256 0
M  V30 3232 C 322.131 0.511503 6.35344 0
M  V30 3233 C 319.818 -0.132386 6.10957 0
M  V30 3234 C 320.816 0.541288 6.80852 0
M  V30 3235 O 320.504 1.23578 7.94345 0
M  V30 3236 H 320.236 -0.228408 0.636244 0
M  V30 3237 H 322.79 -0.0486039 2.05342 0
M  V30 3238 H 321.02 -2.41245 3.02222 0
M  V30 3239 H 322.709 -2.22329 3.39595 0
M  V30 3240 H 323.475 -0.206864 4.84559 0
M  V30 3241 H 319.354 -1.35206 4.40727 0
M  V30 3242 H 322.898 1.03789 6.89836 0
M  V30 3243 H 318.795 -0.114023 6.45399 0
M  V30 3244 H 319.563 1.14487 8.10454 0
M  V30 3245 N 322.226 -1.5378 -0.344866 0
M  V30 3246 C 323.474 -1.70625 -1.08311 0
M  V30 3247 C 323.795 -0.471447 -1.89215 0
M  V30 3248 O 323.065 0.514616 -1.8902 0
M  V30 3249 H 321.645 -0.629058 -0.402859 0
M  V30 3250 H 324.307 -1.9103 -0.386459 0
M  V30 3251 H 323.403 -2.57656 -1.76124 0
M  V30 3252 N 323.704 0.605807 -1.45491 0
M  V30 3253 C 324.654 1.71074 -1.50724 0
M  V30 3254 C 325.638 1.5658 -0.37033 0
M  V30 3255 O 326.83 1.65887 -0.617299 0
M  V30 3256 C 323.959 3.0983 -1.47852 0
M  V30 3257 C 323.045 3.29704 -2.66751 0
M  V30 3258 N 323.436 3.19831 -3.91844 0
M  V30 3259 C 321.734 3.60579 -2.62486 0
M  V30 3260 C 322.435 3.41083 -4.71208 0
M  V30 3261 N 321.411 3.65157 -4.02693 0
M  V30 3262 H 325.213 1.61937 -2.45263 0
M  V30 3263 H 322.727 0.80912 -1.40808 0
M  V30 3264 H 324.724 3.89101 -1.49686 0
M  V30 3265 H 323.384 3.20115 -0.543714 0
M  V30 3266 H 324.395 2.98194 -4.23439 0
M  V30 3267 H 321.072 3.7769 -1.77922 0
M  V30 3268 H 322.462 3.38828 -5.80211 0
M  V30 3269 N 325.182 1.32811 0.848464 0
M  V30 3270 C 326.593 1.21315 1.41914 0
M  V30 3271 C 326.944 -0.171847 1.95446 0
M  V30 3272 O 326.069 -1.07093 1.88043 0
M  V30 3273 C 326.664 2.19631 2.57968 0
M  V30 3274 C 325.223 2.12003 3.11017 0
M  V30 3275 C 324.37 2.07651 1.83783 0
M  V30 3276 H 327.321 1.44549 0.655071 0
M  V30 3277 H 327.342 1.79845 3.35315 0
M  V30 3278 H 326.854 3.20423 2.18976 0
M  V30 3279 H 324.955 1.14481 3.54577 0
M  V30 3280 H 325.068 3.02111 3.71841 0
M  V30 3281 H 323.432 1.52983 2.03638 0
M  V30 3282 H 324.215 3.10235 1.47 0
M  V30 3283 N 326.66 -1.06551 1.16123 0
M  V30 3284 C 327.57 -2.17484 0.879662 0
M  V30 3285 C 328.586 -1.73377 -0.147104 0
M  V30 3286 O 329.762 -2.01379 0.0289128 0
M  V30 3287 C 326.827 -3.44591 0.381829 0
M  V30 3288 C 325.888 -4.0322 1.4735 0
M  V30 3289 C 325.121 -5.24261 0.999324 0
M  V30 3290 O 325.344 -5.70198 -0.151957 0
M  V30 3291 O 324.278 -5.74775 1.78653 0
M  V30 3292 H 328.104 -2.44075 1.80724 0
M  V30 3293 H 325.689 -1.16042 0.940992 0
M  V30 3294 H 327.571 -4.21254 0.111053 0
M  V30 3295 H 326.246 -3.19532 -0.51777 0
M  V30 3296 H 325.153 -3.2806 1.79798 0
M  V30 3297 H 326.486 -4.32568 2.34831 0
M  V30 3298 N 328.138 -0.959301 -1.25041 0
M  V30 3299 C 329.387 -0.612254 -1.92183 0
M  V30 3300 C 329.7 0.855347 -1.75907 0
M  V30 3301 O 330.906 1.31256 -2.37664 0
M  V30 3302 C 329.362 -1.04435 -3.44414 0
M  V30 3303 C 328.97 -2.53482 -3.69393 0
M  V30 3304 C 330.714 -0.770055 -4.17457 0
M  V30 3305 C 328.621 -2.90468 -5.15153 0
M  V30 3306 H 327.551 -0.225279 -0.719559 0
M  V30 3307 H 330.202 -1.16438 -1.41825 0
M  V30 3308 H 328.584 -0.4206 -3.9376 0
M  V30 3309 H 329.758 -3.20916 -3.30681 0
M  V30 3310 H 328.073 -2.78432 -3.0962 0
M  V30 3311 H 330.67 -1.02249 -5.24832 0
M  V30 3312 H 331.013 0.293611 -4.15263 0
M  V30 3313 H 331.546 -1.35437 -3.74034 0
M  V30 3314 H 328.285 -3.95871 -5.22462 0
M  V30 3315 H 327.805 -2.27711 -5.54894 0
M  V30 3316 H 329.484 -2.79914 -5.83315 0
M  V30 3317 N 329.616 1.39756 -0.72842 0
M  V30 3318 C 330.844 2.04948 -0.283528 0
M  V30 3319 C 331.259 1.54908 1.0793 0
M  V30 3320 O 330.616 0.711135 1.68075 0
M  V30 3321 C 330.667 3.60498 -0.268957 0
M  V30 3322 O 330.388 4.08695 -1.57798 0
M  V30 3323 C 331.889 4.4288 0.192912 0
M  V30 3324 H 329.109 0.659243 -0.125056 0
M  V30 3325 H 331.653 1.78927 -0.990226 0
M  V30 3326 H 329.808 3.85444 0.388801 0
M  V30 3327 H 330.222 5.02977 -1.48709 0
M  V30 3328 H 331.696 5.51791 0.151952 0
M  V30 3329 H 332.173 4.21418 1.23708 0
M  V30 3330 H 332.779 4.23069 -0.435039 0
M  V30 3331 N 331.094 0.475555 1.50254 0
M  V30 3332 C 332.041 -0.316293 2.28622 0
M  V30 3333 C 333.011 -0.983227 1.33873 0
M  V30 3334 O 334.196 -0.994805 1.62814 0
M  V30 3335 C 331.336 -1.38975 3.1588 0
M  V30 3336 C 330.449 -0.737146 4.25664 0
M  V30 3337 C 329.584 -1.78887 5.00173 0
M  V30 3338 C 328.623 -1.11676 6.01826 0
M  V30 3339 N 327.76 -2.11154 6.69596 0
M  V30 3340 H 332.6 0.358297 2.95838 0
M  V30 3341 H 330.137 0.188541 1.45887 0
M  V30 3342 H 332.095 -2.02383 3.64825 0
M  V30 3343 H 330.725 -2.03344 2.50701 0
M  V30 3344 H 329.777 0.0096065 3.80399 0
M  V30 3345 H 331.089 -0.206816 4.98371 0
M  V30 3346 H 330.243 -2.49865 5.52859 0
M  V30 3347 H 328.982 -2.35302 4.27182 0
M  V30 3348 H 327.987 -0.392633 5.48396 0
M  V30 3349 H 329.212 -0.55945 6.76792 0
M  V30 3350 H 327.158 -2.66577 5.99394 0
M  V30 3351 H 327.075 -1.63118 7.38193 0
M  V30 3352 H 328.343 -2.81497 7.26897 0
M  V30 3353 N 332.573 -1.56217 0.208337 0
M  V30 3354 C 333.819 -1.98242 -0.427552 0
M  V30 3355 C 334.152 -1.09554 -1.60348 0
M  V30 3356 O 333.427 -0.15035 -1.93918 0
M  V30 3357 C 333.71 -3.4931 -0.874907 0
M  V30 3358 C 333.563 -4.48773 0.303751 0
M  V30 3359 C 334.882 -4.04424 -1.73577 0
M  V30 3360 H 332.001 -0.720744 -0.153936 0
M  V30 3361 H 334.643 -1.87586 0.30192 0
M  V30 3362 H 332.793 -3.58522 -1.49648 0
M  V30 3363 H 334.465 -4.51586 0.941682 0
M  V30 3364 H 332.708 -4.23194 0.953375 0
M  V30 3365 H 333.379 -5.51976 -0.0519883 0
M  V30 3366 H 335.855 -3.98075 -1.21143 0
M  V30 3367 H 334.731 -5.1047 -2.01771 0
M  V30 3368 H 334.992 -3.50494 -2.69456 0
M  V30 3369 N 334.051 0.0651679 -1.57465 0
M  V30 3370 C 334.999 1.09542 -2.05191 0
M  V30 3371 C 335.993 1.39675 -0.958509 0
M  V30 3372 O 337.199 1.39003 -1.14359 0
M  V30 3373 H 333.574 0.370623 -0.654326 0
M  V30 3374 H 335.545 0.666802 -2.90854 0
M  V30 3375 C 334.294 2.39881 -2.51699 0
M  V30 3376 H 333.617 2.17547 -3.3543 0
M  V30 3377 H 335.057 3.104 -2.88839 0
M  V30 3378 C 333.516 3.0631 -1.40271 0
M  V30 3379 O 334.046 3.94664 -0.748523 0
M  V30 3380 N 332.252 2.67041 -1.14618 0
M  V30 3381 H 331.799 1.95281 -1.67997 0
M  V30 3382 H 331.757 3.1181 -0.402688 0
M  V30 3383 N 335.529 1.53961 0.336706 0
M  V30 3384 C 336.778 1.70751 1.07363 0
M  V30 3385 C 337.091 0.481061 1.89592 0
M  V30 3386 O 338.297 0.530046 2.66276 0
M  V30 3387 C 336.753 3.01965 1.95818 0
M  V30 3388 C 336.361 4.31971 1.18764 0
M  V30 3389 C 338.105 3.28121 2.69327 0
M  V30 3390 C 336.012 5.54255 2.06289 0
M  V30 3391 H 334.942 0.636292 0.404535 0
M  V30 3392 H 337.593 1.80459 0.332681 0
M  V30 3393 H 335.975 2.86132 2.7376 0
M  V30 3394 H 337.149 4.5853 0.456849 0
M  V30 3395 H 335.464 4.12481 0.569946 0
M  V30 3396 H 338.061 4.16673 3.35094 0
M  V30 3397 H 338.404 2.45426 3.36261 0
M  V30 3398 H 338.937 3.44762 1.98454 0
M  V30 3399 H 335.676 6.39513 1.43885 0
M  V30 3400 H 335.196 5.31935 2.77138 0
M  V30 3401 H 336.875 5.90159 2.65182 0
M  V30 3402 N 337.007 -0.598083 1.45811 0
M  V30 3403 C 338.255 -1.35413 1.50026 0
M  V30 3404 C 338.576 -1.94444 0.147177 0
M  V30 3405 O 337.846 -1.77701 -0.824571 0
M  V30 3406 H 336.426 -0.502727 0.552517 0
M  V30 3407 H 339.088 -0.701606 1.81834 0
M  V30 3408 H 338.184 -2.16871 2.2444 0
M  V30 3409 N 338.485 -1.33259 -0.841409 0
M  V30 3410 C 339.731 -1.24757 -1.59886 0
M  V30 3411 C 340.064 0.186913 -1.93298 0
M  V30 3412 O 339.339 1.12757 -1.5848 0
M  V30 3413 C 339.622 -2.12036 -2.91055 0
M  V30 3414 C 339.475 -3.63929 -2.6434 0
M  V30 3415 C 340.794 -1.9916 -3.92458 0
M  V30 3416 H 337.913 -0.454542 -0.580138 0
M  V30 3417 H 340.555 -1.63335 -0.970647 0
M  V30 3418 H 338.705 -1.79265 -3.44669 0
M  V30 3419 H 340.377 -4.06978 -2.17178 0
M  V30 3420 H 338.62 -3.85935 -1.98082 0
M  V30 3421 H 339.291 -4.20341 -3.57796 0
M  V30 3422 H 341.767 -2.27895 -3.48143 0
M  V30 3423 H 340.643 -2.62484 -4.82072 0
M  V30 3424 H 340.904 -0.963082 -4.31482 0
M  V30 3425 N 339.963 1.05934 -1.16686 0
M  V30 3426 C 341.211 1.78447 -0.948744 0
M  V30 3427 C 341.532 1.87813 0.524523 0
M  V30 3428 O 340.802 1.38945 1.38098 0
M  V30 3429 H 339.382 0.660971 -0.348033 0
M  V30 3430 H 342.044 1.27947 -1.47022 0
M  V30 3431 H 341.14 2.80394 -1.37061 0
M  V30 3432 N 341.441 0.965919 1.2453 0
M  V30 3433 C 342.666 0.643971 1.97149 0
M  V30 3434 C 343.091 -0.779487 1.71189 0
M  V30 3435 O 342.449 -1.5288 0.974553 0
M  V30 3436 C 342.497 0.922557 3.48599 0
M  V30 3437 O 341.601 0.00707672 4.12399 0
M  V30 3438 H 340.942 0.243647 0.617683 0
M  V30 3439 H 343.472 1.29558 1.58353 0
M  V30 3440 H 343.482 0.853373 3.98976 0
M  V30 3441 H 342.157 1.95996 3.66822 0
M  V30 3442 H 340.734 0.12943 3.72675 0
M  V30 3443 N 342.919 -1.39368 0.735821 0
M  V30 3444 C 343.867 -2.32443 0.0855131 0
M  V30 3445 C 344.861 -1.53104 -0.724954 0
M  V30 3446 O 346.067 -1.68762 -0.626047 0
M  V30 3447 H 342.442 -0.751948 0.00885257 0
M  V30 3448 H 344.413 -2.84916 0.886883 0
M  V30 3449 C 343.162 -3.38206 -0.806983 0
M  V30 3450 H 342.485 -3.99335 -0.19274 0
M  V30 3451 H 343.925 -4.05779 -1.2296 0
M  V30 3452 C 342.384 -2.75321 -1.94165 0
M  V30 3453 O 342.914 -2.63231 -3.03435 0
M  V30 3454 N 341.12 -2.33396 -1.73132 0
M  V30 3455 H 340.667 -2.4343 -0.842596 0
M  V30 3456 H 340.625 -1.91661 -2.49225 0
M  V30 3457 N 344.397 -0.483516 -1.5 0
M  V30 3458 C 345.808 -0.0314176 -1.86674 0
M  V30 3459 C 346.159 1.37728 -1.39733 0
M  V30 3460 O 345.284 2.02327 -0.767635 0
M  V30 3461 C 345.879 -0.0502376 -3.38763 0
M  V30 3462 C 344.438 0.346442 -3.74802 0
M  V30 3463 C 343.585 -0.430366 -2.7394 0
M  V30 3464 H 346.536 -0.697182 -1.42566 0
M  V30 3465 H 346.557 0.749116 -3.73053 0
M  V30 3466 H 346.069 -1.07563 -3.72897 0
M  V30 3467 H 344.17 1.37572 -3.46273 0
M  V30 3468 H 344.283 0.0391486 -4.79084 0
M  V30 3469 H 342.647 0.117557 -2.54429 0
M  V30 3470 H 343.43 -1.4555 -3.10918 0
M  V30 3471 N 345.875 1.56104 -0.216619 0
M  V30 3472 C 347.123 1.97781 0.415593 0
M  V30 3473 C 347.444 1.10536 1.60645 0
M  V30 3474 O 346.714 0.181303 1.95059 0
M  V30 3475 H 345.294 0.730415 0.156534 0
M  V30 3476 H 347.956 1.92445 -0.308366 0
M  V30 3477 H 347.052 3.03072 0.74525 0
M  V30 3478 N 347.353 -0.0568162 1.57498 0
M  V30 3479 C 348.602 -0.752001 1.87157 0
M  V30 3480 C 348.915 -1.77978 0.811375 0
M  V30 3481 O 350.121 -2.52559 0.996293 0
M  V30 3482 C 348.577 -1.38844 3.3204 0
M  V30 3483 C 348.185 -0.398456 4.46225 0
M  V30 3484 C 349.929 -2.06512 3.70882 0
M  V30 3485 C 347.836 -1.04166 5.82154 0
M  V30 3486 H 346.766 -0.28461 0.698222 0
M  V30 3487 H 349.417 -0.00561272 1.83499 0
M  V30 3488 H 347.799 -2.1836 3.30356 0
M  V30 3489 H 348.973 0.367977 4.59328 0
M  V30 3490 H 347.288 0.174592 4.16034 0
M  V30 3491 H 349.885 -2.55437 4.6974 0
M  V30 3492 H 350.228 -2.87117 3.01445 0
M  V30 3493 H 350.761 -1.33808 3.7462 0
M  V30 3494 H 347.5 -0.275614 6.5492 0
M  V30 3495 H 347.02 -1.7786 5.72823 0
M  V30 3496 H 348.699 -1.55715 6.27982 0
M  V30 3497 N 348.832 -1.54138 -0.328536 0
M  V30 3498 C 349.762 -1.86167 -1.40939 0
M  V30 3499 C 350.743 -0.718044 -1.54202 0
M  V30 3500 O 351.928 -0.971328 -1.68163 0
M  V30 3501 C 349.058 -2.08461 -2.77779 0
M  V30 3502 C 348.012 -3.24299 -2.7931 0
M  V30 3503 C 347.338 -3.31955 -4.19178 0
M  V30 3504 C 348.638 -4.62065 -2.43502 0
M  V30 3505 H 350.332 -2.76689 -1.14383 0
M  V30 3506 H 347.878 -1.33132 -0.548806 0
M  V30 3507 H 349.831 -2.29453 -3.53454 0
M  V30 3508 H 348.555 -1.14684 -3.05802 0
M  V30 3509 H 347.214 -3.03187 -2.0609 0
M  V30 3510 H 346.862 -2.35745 -4.44335 0
M  V30 3511 H 346.562 -4.09805 -4.2111 0
M  V30 3512 H 348.086 -3.55175 -4.96672 0
M  V30 3513 H 349.5 -4.8297 -3.08889 0
M  V30 3514 H 347.897 -5.42429 -2.56693 0
M  V30 3515 H 348.967 -4.64652 -1.38659 0
M  V30 3516 N 350.31 0.590341 -1.46126 0
M  V30 3517 C 351.559 1.34499 -1.50309 0
M  V30 3518 C 351.872 1.94977 -0.156021 0
M  V30 3519 O 353.078 2.71395 -0.0756037 0
M  V30 3520 C 351.534 2.43723 -2.64815 0
M  V30 3521 C 351.142 1.89582 -4.0591 0
M  V30 3522 C 352.886 3.20579 -2.78262 0
M  V30 3523 C 350.793 2.9639 -5.11769 0
M  V30 3524 H 349.723 0.505593 -0.559368 0
M  V30 3525 H 352.374 0.630848 -1.72315 0
M  V30 3526 H 350.756 3.17902 -2.36124 0
M  V30 3527 H 351.93 1.21997 -4.44357 0
M  V30 3528 H 350.245 1.25418 -3.97063 0
M  V30 3529 H 352.842 4.00276 -3.54519 0
M  V30 3530 H 353.185 3.72684 -1.85505 0
M  V30 3531 H 353.718 2.53505 -3.06562 0
M  V30 3532 H 350.457 2.49181 -6.06291 0
M  V30 3533 H 349.977 3.62487 -4.77873 0
M  V30 3534 H 351.656 3.60474 -5.37278 0
M  V30 3535 N 351.788 1.33704 0.83433 0
M  V30 3536 C 353.013 1.28615 1.62705 0
M  V30 3537 C 353.438 -0.139242 1.87584 0
M  V30 3538 O 352.796 -1.09734 1.4432 0
M  V30 3539 C 352.844 2.07139 2.95171 0
M  V30 3540 O 351.948 1.4331 3.86699 0
M  V30 3541 H 351.289 0.44226 0.49528 0
M  V30 3542 H 353.819 1.76335 1.03766 0
M  V30 3543 H 353.829 2.18073 3.44831 0
M  V30 3544 H 352.504 3.10779 2.76386 0
M  V30 3545 H 351.081 1.4105 3.45195 0
M  V30 3546 N 353.266 -1.05314 1.17247 0
M  V30 3547 C 354.514 -1.77941 0.958194 0
M  V30 3548 C 354.835 -1.88089 -0.514556 0
M  V30 3549 O 354.105 -1.39676 -1.37359 0
M  V30 3550 H 352.685 -0.659116 0.351533 0
M  V30 3551 H 355.347 -1.27166 1.47699 0
M  V30 3552 H 354.443 -2.79663 1.38546 0
M  V30 3553 N 354.744 -0.972509 -1.24016 0
M  V30 3554 C 355.694 -0.477561 -2.22942 0
M  V30 3555 C 356.678 0.44308 -1.54679 0
M  V30 3556 O 357.87 0.273219 -1.74879 0
M  V30 3557 C 354.999 0.226348 -3.42553 0
M  V30 3558 C 354.085 -0.713403 -4.18057 0
M  V30 3559 N 354.476 -1.8527 -4.70647 0
M  V30 3560 C 352.774 -0.525145 -4.42898 0
M  V30 3561 C 353.475 -2.44089 -5.28011 0
M  V30 3562 N 352.451 -1.72556 -5.15486 0
M  V30 3563 H 356.253 -1.34678 -2.61226 0
M  V30 3564 H 353.767 -0.832196 -1.39457 0
M  V30 3565 H 355.764 0.598184 -4.12586 0
M  V30 3566 H 354.424 1.09195 -3.05788 0
M  V30 3567 H 355.435 -2.2341 -4.67235 0
M  V30 3568 H 352.112 0.296096 -4.16449 0
M  V30 3569 H 353.502 -3.40259 -5.79374 0
M  V30 3570 N 356.222 1.38976 -0.743202 0
M  V30 3571 C 357.499 1.94351 -0.220705 0
M  V30 3572 C 357.879 1.67935 1.2791 0
M  V30 3573 O 357.227 1.01211 2.04862 0
M  V30 3574 C 357.437 3.44426 -0.563171 0
M  V30 3575 C 358.785 4.2144 -0.517046 0
M  V30 3576 O 359.809 3.52661 -0.500846 0
M  V30 3577 O 358.668 5.44032 -0.518806 0
M  V30 3578 H 355.762 0.825879 -0.043047 0
M  V30 3579 H 358.308 1.48429 -0.822618 0
M  V30 3580 H 357.08 3.5712 -1.59941 0
M  V30 3581 H 356.703 3.97543 0.0672883 0
M  V30 3582 N 357.7 0.491464 1.49741 0
M  V30 3583 C 358.63 -0.28154 2.31796 0
M  V30 3584 C 359.611 -0.971473 1.3963 0
M  V30 3585 O 360.796 -0.964719 1.68543 0
M  V30 3586 C 357.926 -1.35203 3.19902 0
M  V30 3587 C 356.88 -0.782529 4.20786 0
M  V30 3588 C 356.206 -1.95283 4.97764 0
M  V30 3589 C 357.506 0.21999 5.21837 0
M  V30 3590 H 359.2 0.403355 2.96671 0
M  V30 3591 H 356.746 0.195425 1.42668 0
M  V30 3592 H 358.699 -1.90045 3.76113 0
M  V30 3593 H 357.423 -2.06598 2.52953 0
M  V30 3594 H 356.082 -0.255928 3.65706 0
M  V30 3595 H 355.73 -2.65423 4.2727 0
M  V30 3596 H 355.43 -1.57789 5.66018 0
M  V30 3597 H 356.954 -2.50577 5.56816 0
M  V30 3598 H 358.368 -0.23996 5.72798 0
M  V30 3599 H 356.765 0.51026 5.97927 0
M  V30 3600 H 357.835 1.13911 4.7133 0
M  V30 3601 N 359.178 -1.55987 0.224894 0
M  V30 3602 C 360.594 -1.59066 -0.130426 0
M  V30 3603 C 360.794 -1.24176 -1.5869 0
M  V30 3604 O 359.85 -0.978592 -2.32766 0
M  V30 3605 C 361.163 -3.00042 0.198883 0
M  V30 3606 C 362.711 -3.1268 0.141391 0
M  V30 3607 C 363.186 -4.55839 0.444422 0
M  V30 3608 N 364.677 -4.6152 0.394115 0
M  V30 3609 C 365.412 -5.70231 0.602038 0
M  V30 3610 N 364.908 -6.87291 0.871914 0
M  V30 3611 N 366.701 -5.59555 0.534245 0
M  V30 3612 H 358.852 -1.76941 1.17497 0
M  V30 3613 H 361.115 -0.822604 0.471197 0
M  V30 3614 H 360.821 -3.30234 1.2099 0
M  V30 3615 H 360.695 -3.74075 -0.484535 0
M  V30 3616 H 363.082 -2.82283 -0.860265 0
M  V30 3617 H 363.163 -2.40969 0.858335 0
M  V30 3618 H 362.807 -4.86954 1.44353 0
M  V30 3619 H 362.737 -5.2578 -0.293752 0
M  V30 3620 H 365.228 -3.77405 0.193356 0
M  V30 3621 H 365.541 -7.66058 1.01858 0
M  V30 3622 H 363.886 -6.89028 0.909145 0
M  V30 3623 H 367.077 -4.6698 0.323612 0
M  V30 3624 H 367.25 -6.44211 0.699693 0
M  V30 3625 N 360.656 0.0484629 -1.57525 0
M  V30 3626 C 361.933 0.777447 -1.79486 0
M  V30 3627 C 362.313 1.94597 -0.818251 0
M  V30 3628 O 361.661 2.28047 0.143767 0
M  V30 3629 C 361.871 1.22864 -3.26658 0
M  V30 3630 C 363.219 1.65251 -3.91123 0
M  V30 3631 O 364.243 1.32372 -3.3069 0
M  V30 3632 O 363.102 2.26207 -4.97486 0
M  V30 3633 H 360.196 0.374357 -0.737419 0
M  V30 3634 H 362.742 0.0267359 -1.69679 0
M  V30 3635 H 361.514 0.393589 -3.89316 0
M  V30 3636 H 361.137 2.03996 -3.41279 0
M  V30 3637 N 362.134 1.5431 0.320358 0
M  V30 3638 C 363.064 1.86912 1.3995 0
M  V30 3639 C 364.045 0.726211 1.53819 0
M  V30 3640 O 365.23 0.980233 1.67646 0
M  V30 3641 C 362.36 2.09932 2.7667 0
M  V30 3642 C 361.314 3.25776 2.77586 0
M  V30 3643 C 360.64 3.34173 4.17412 0
M  V30 3644 C 361.94 4.6335 2.41048 0
M  V30 3645 H 363.634 2.77292 1.12914 0
M  V30 3646 H 361.18 1.33421 0.541738 0
M  V30 3647 H 363.133 2.31324 3.52232 0
M  V30 3648 H 361.857 1.16304 3.0519 0
M  V30 3649 H 360.516 3.04276 2.04479 0
M  V30 3650 H 360.164 2.38098 4.43078 0
M  V30 3651 H 359.864 4.12033 4.18931 0
M  V30 3652 H 361.388 3.57803 4.94782 0
M  V30 3653 H 362.802 4.84602 3.06324 0
M  V30 3654 H 361.199 5.43782 2.53813 0
M  V30 3655 H 362.269 4.65381 1.36193 0
M  V30 3656 N 363.613 -0.582584 1.46437 0
M  V30 3657 C 364.523 -1.71949 1.59595 0
M  V30 3658 C 365.539 -1.67264 0.479443 0
M  V30 3659 O 366.715 -1.87171 0.743579 0
M  V30 3660 C 363.78 -3.08452 1.58298 0
M  V30 3661 C 362.841 -3.244 2.81182 0
M  V30 3662 C 362.074 -4.54391 2.79937 0
M  V30 3663 O 362.297 -5.38287 1.8869 0
M  V30 3664 O 361.231 -4.73588 3.71481 0
M  V30 3665 H 365.057 -1.63795 2.55744 0
M  V30 3666 H 362.642 -0.749643 1.29231 0
M  V30 3667 H 364.524 -3.89732 1.60271 0
M  V30 3668 H 363.199 -3.17043 0.653094 0
M  V30 3669 H 362.106 -2.42613 2.84763 0
M  V30 3670 H 363.439 -3.20699 3.7338 0
M  V30 3671 N 365.091 -1.34144 -0.827227 0
M  V30 3672 C 366.024 -1.19707 -1.94282 0
M  V30 3673 C 367.002 -0.0897256 -1.62352 0
M  V30 3674 O 368.186 -0.254095 -1.8678 0
M  V30 3675 C 365.313 -0.838646 -3.28153 0
M  V30 3676 C 364.359 -1.95514 -3.79047 0
M  V30 3677 S 365.192 -3.56793 -3.99323 0
M  V30 3678 C 366.348 -3.22983 -5.36127 0
M  V30 3679 H 366.581 -2.1414 -2.06231 0
M  V30 3680 H 364.114 -1.19121 -0.982321 0
M  V30 3681 H 366.072 -0.638637 -4.05502 0
M  V30 3682 H 364.733 0.0872776 -3.13979 0
M  V30 3683 H 363.926 -1.658 -4.75948 0
M  V30 3684 H 363.528 -2.11241 -3.08631 0
M  V30 3685 H 365.82 -2.74531 -6.19386 0
M  V30 3686 H 366.763 -4.19008 -5.70822 0
M  V30 3687 H 367.171 -2.59276 -5.01434 0
M  V30 3688 N 366.569 1.04691 -1.17803 0
M  V30 3689 C 367.499 2.14494 -0.92275 0
M  V30 3690 C 368.48 1.69546 0.137179 0
M  V30 3691 O 369.665 1.94195 -0.0141108 0
M  V30 3692 C 366.795 3.44491 -0.440803 0
M  V30 3693 C 365.749 4.03031 -1.4405 0
M  V30 3694 C 365.075 5.28432 -0.81631 0
M  V30 3695 C 366.375 4.39932 -2.81527 0
M  V30 3696 H 368.069 2.36107 -1.84103 0
M  V30 3697 H 365.615 1.1347 -0.886599 0
M  V30 3698 H 367.568 4.2066 -0.249602 0
M  V30 3699 H 366.292 3.22546 0.513025 0
M  V30 3700 H 364.951 3.28937 -1.61853 0
M  V30 3701 H 364.599 5.02792 0.144511 0
M  V30 3702 H 364.299 5.68559 -1.48371 0
M  V30 3703 H 365.823 6.07284 -0.635496 0
M  V30 3704 H 367.237 5.07113 -2.67412 0
M  V30 3705 H 365.634 4.9109 -3.44892 0
M  V30 3706 H 366.704 3.50045 -3.35554 0
M  V30 3707 N 368.047 0.979072 1.23499 0
M  V30 3708 C 368.977 0.537606 2.27227 0
M  V30 3709 C 369.958 -0.428539 1.64613 0
M  V30 3710 O 371.143 -0.322191 1.91509 0
M  V30 3711 C 368.273 -0.162052 3.46922 0
M  V30 3712 C 367.227 0.721242 4.21879 0
M  V30 3713 C 366.553 -0.110555 5.34586 0
M  V30 3714 C 367.853 2.01141 4.82016 0
M  V30 3715 H 369.547 1.40462 2.64406 0
M  V30 3716 H 367.093 0.67684 1.27102 0
M  V30 3717 H 369.046 -0.482192 4.18632 0
M  V30 3718 H 367.77 -1.06351 3.08799 0
M  V30 3719 H 366.429 1.02482 3.51984 0
M  V30 3720 H 366.077 -1.0125 4.92704 0
M  V30 3721 H 365.777 0.477325 5.85658 0
M  V30 3722 H 367.301 -0.425107 6.09118 0
M  V30 3723 H 368.715 1.75612 5.45741 0
M  V30 3724 H 367.112 2.54695 5.43369 0
M  V30 3725 H 368.182 2.69909 4.02836 0
M  V30 3726 N 369.525 -1.3858 0.750561 0
M  V30 3727 C 370.472 -2.30483 0.120835 0
M  V30 3728 C 371.442 -1.50022 -0.712923 0
M  V30 3729 O 372.627 -1.78662 -0.669676 0
M  V30 3730 C 369.767 -3.36431 -0.768666 0
M  V30 3731 C 368.88 -4.31927 0.0793922 0
M  V30 3732 C 368.015 -5.24944 -0.81283 0
M  V30 3733 C 367.054 -6.12088 0.0390447 0
M  V30 3734 N 366.191 -6.97412 -0.809969 0
M  V30 3735 H 371.031 -2.83761 0.91015 0
M  V30 3736 H 368.568 -1.39707 0.460463 0
M  V30 3737 H 370.526 -3.96462 -1.29898 0
M  V30 3738 H 369.156 -2.8457 -1.5238 0
M  V30 3739 H 368.208 -3.73382 0.727303 0
M  V30 3740 H 369.52 -4.93319 0.737401 0
M  V30 3741 H 368.674 -5.90078 -1.41042 0
M  V30 3742 H 367.413 -4.63911 -1.50458 0
M  V30 3743 H 366.418 -5.45952 0.649328 0
M  V30 3744 H 367.643 -6.75189 0.727809 0
M  V30 3745 H 365.589 -6.38931 -1.48672 0
M  V30 3746 H 365.506 -7.55712 -0.208789 0
M  V30 3747 H 366.774 -7.66959 -1.39263 0
M  V30 3748 N 371.003 -0.499398 -1.49478 0
M  V30 3749 C 371.935 0.316575 -2.27003 0
M  V30 3750 C 372.948 0.932047 -1.33479 0
M  V30 3751 O 374.137 0.815658 -1.58774 0
M  V30 3752 C 371.237 1.46055 -3.05812 0
M  V30 3753 C 370.41 0.952679 -4.26899 0
M  V30 3754 C 369.469 1.97407 -4.87767 0
M  V30 3755 O 368.495 1.54326 -5.4788 0
M  V30 3756 N 369.697 3.30436 -4.77276 0
M  V30 3757 H 372.462 -0.348168 -2.97671 0
M  V30 3758 H 370.023 -0.33185 -1.58463 0
M  V30 3759 H 372.015 2.14135 -3.43407 0
M  V30 3760 H 370.585 2.02948 -2.37762 0
M  V30 3761 H 369.805 0.0968248 -3.94081 0
M  V30 3762 H 371.093 0.59174 -5.05347 0
M  V30 3763 H 370.491 3.68126 -4.29534 0
M  V30 3764 H 369.048 3.94235 -5.19059 0
M  V30 3765 N 372.481 1.55866 -0.233164 0
M  V30 3766 C 373.709 2.02998 0.399905 0
M  V30 3767 C 374.124 1.11274 1.52524 0
M  V30 3768 O 373.481 0.124528 1.82075 0
M  V30 3769 C 373.532 3.4958 0.920639 0
M  V30 3770 O 373.253 4.37808 -0.159834 0
M  V30 3771 C 374.754 4.12411 1.62578 0
M  V30 3772 H 371.974 0.664006 0.0966281 0
M  V30 3773 H 374.518 2.0143 -0.353013 0
M  V30 3774 H 372.673 3.51727 1.62379 0
M  V30 3775 H 373.087 5.23981 0.23337 0
M  V30 3776 H 374.561 5.16711 1.94201 0
M  V30 3777 H 375.038 3.5809 2.54299 0
M  V30 3778 H 375.644 4.14148 0.967553 0
M  V30 3779 N 373.959 -0.0401083 1.57549 0
M  V30 3780 C 374.869 -1.06133 2.0922 0
M  V30 3781 C 375.885 -1.40356 1.0284 0
M  V30 3782 O 377.061 -1.49897 1.34509 0
M  V30 3783 C 374.126 -2.34658 2.55218 0
M  V30 3784 C 373.187 -2.07117 3.76033 0
M  V30 3785 C 372.42 -3.29514 4.19829 0
M  V30 3786 O 372.643 -4.39794 3.63232 0
M  V30 3787 O 371.577 -3.15863 5.12362 0
M  V30 3788 H 375.403 -0.652244 2.96613 0
M  V30 3789 H 372.988 -0.256368 1.47184 0
M  V30 3790 H 374.87 -3.10239 2.85184 0
M  V30 3791 H 373.545 -2.74883 1.70941 0
M  V30 3792 H 372.452 -1.29139 3.51104 0
M  V30 3793 H 373.785 -1.71754 4.61261 0
M  V30 3794 N 375.437 -1.54477 -0.31217 0
M  V30 3795 C 376.685 -1.72884 -1.04668 0
M  V30 3796 C 377.006 -0.511477 -1.88173 0
M  V30 3797 O 376.276 0.474407 -1.90069 0
M  V30 3798 H 374.856 -0.637461 -0.389425 0
M  V30 3799 H 377.518 -1.91807 -0.345852 0
M  V30 3800 H 376.614 -2.61334 -1.70619 0
M  V30 3801 N 376.915 0.57481 -1.46744 0
M  V30 3802 C 378.143 1.35856 -1.56047 0
M  V30 3803 C 378.558 1.87691 -0.204365 0
M  V30 3804 O 377.915 1.64049 0.79963 0
M  V30 3805 C 377.966 2.54066 -2.57163 0
M  V30 3806 O 377.687 2.04377 -3.87507 0
M  V30 3807 C 379.188 3.46514 -2.76483 0
M  V30 3808 H 376.408 0.414754 -0.527466 0
M  V30 3809 H 378.952 0.698035 -1.92218 0
M  V30 3810 H 377.107 3.16092 -2.23974 0
M  V30 3811 H 377.521 2.81419 -4.4261 0
M  V30 3812 H 378.995 4.25919 -3.51137 0
M  V30 3813 H 379.472 3.98951 -1.83671 0
M  V30 3814 H 380.078 2.90318 -3.10799 0
M  V30 3815 N 378.394 1.34581 0.820102 0
M  V30 3816 C 379.642 1.26845 1.57336 0
M  V30 3817 C 379.963 -0.160667 1.94337 0
M  V30 3818 O 379.233 -1.09396 1.6251 0
M  V30 3819 H 377.813 0.466514 0.583415 0
M  V30 3820 H 380.475 1.68526 0.979027 0
M  V30 3821 H 379.571 1.87513 2.4949 0
M  V30 3822 N 379.872 -1.04064 1.18357 0
M  V30 3823 C 381.118 -1.77528 0.980397 0
M  V30 3824 C 381.451 -1.87948 -0.48879 0
M  V30 3825 O 380.726 -1.3876 -1.36293 0
M  V30 3826 C 381.009 -3.20797 1.63588 0
M  V30 3827 C 380.862 -3.1832 3.17793 0
M  V30 3828 C 382.181 -4.18911 1.34914 0
M  V30 3829 H 379.3 -0.644443 0.357578 0
M  V30 3830 H 381.942 -1.2156 1.46024 0
M  V30 3831 H 380.092 -3.68586 1.22788 0
M  V30 3832 H 381.764 -2.78521 3.67728 0
M  V30 3833 H 380.007 -2.56351 3.49952 0
M  V30 3834 H 380.678 -4.19489 3.58794 0
M  V30 3835 H 383.154 -3.7967 1.70265 0
M  V30 3836 H 382.03 -5.17374 1.83346 0
M  V30 3837 H 382.291 -4.41262 0.272027 0
M  V30 3838 N 381.35 -0.985608 -1.22978 0
M  V30 3839 C 382.627 -0.573599 -1.87001 0
M  V30 3840 C 383.007 0.949213 -1.88555 0
M  V30 3841 O 382.355 1.82811 -1.37086 0
M  V30 3842 C 382.565 -1.18564 -3.28243 0
M  V30 3843 C 383.913 -1.28163 -4.04796 0
M  V30 3844 O 384.937 -1.13949 -3.37482 0
M  V30 3845 O 383.796 -1.50832 -5.25273 0
M  V30 3846 H 380.89 -0.193868 -0.803955 0
M  V30 3847 H 383.436 -1.08102 -1.30813 0
M  V30 3848 H 382.208 -2.22758 -3.21706 0
M  V30 3849 H 381.831 -0.663363 -3.92027 0
M  V30 3850 N 382.828 1.3818 -0.7579 0
M  V30 3851 C 384.074 2.00316 -0.316453 0
M  V30 3852 C 384.407 1.60026 1.10025 0
M  V30 3853 O 383.682 0.839835 1.75434 0
M  V30 3854 C 383.965 3.57349 -0.444245 0
M  V30 3855 C 383.818 4.07591 -1.90236 0
M  V30 3856 C 385.137 4.3981 0.1598 0
M  V30 3857 H 382.256 0.727741 -0.116459 0
M  V30 3858 H 384.898 1.6406 -0.958352 0
M  V30 3859 H 383.048 3.88365 0.102233 0
M  V30 3860 H 384.72 3.87199 -2.50748 0
M  V30 3861 H 382.963 3.60297 -2.41595 0
M  V30 3862 H 383.634 5.16677 -1.94291 0
M  V30 3863 H 386.11 4.14971 -0.306314 0
M  V30 3864 H 384.986 5.48885 0.0401675 0
M  V30 3865 H 385.247 4.24102 1.24859 0
M  V30 3866 N 384.306 0.507319 1.49211 0
M  V30 3867 C 385.536 -0.0315292 2.06576 0
M  V30 3868 C 385.944 -1.30791 1.36713 0
M  V30 3869 O 385.287 -1.78324 0.441181 0
M  V30 3870 C 385.349 -0.349104 3.57801 0
M  V30 3871 C 385.013 0.830475 4.49391 0
M  V30 3872 C 386.01 1.72271 4.90529 0
M  V30 3873 C 383.695 1.03107 4.91604 0
M  V30 3874 C 385.689 2.79964 5.72625 0
M  V30 3875 C 383.376 2.11116 5.73475 0
M  V30 3876 C 384.374 2.99379 6.1389 0
M  V30 3877 O 384.062 4.05523 6.94123 0
M  V30 3878 H 383.794 0.0201002 0.675701 0
M  V30 3879 H 386.348 0.705737 1.92895 0
M  V30 3880 H 384.578 -1.14005 3.69513 0
M  V30 3881 H 386.267 -0.827319 3.97379 0
M  V30 3882 H 387.033 1.57958 4.58557 0
M  V30 3883 H 382.912 0.353417 4.59643 0
M  V30 3884 H 386.456 3.48884 6.04091 0
M  V30 3885 H 382.353 2.25421 6.0486 0
M  V30 3886 H 383.121 4.02953 7.1244 0
M  V30 3887 N 385.784 -1.5574 0.241426 0
M  V30 3888 C 387.012 -2.03208 -0.389134 0
M  V30 3889 C 387.427 -1.12082 -1.51931 0
M  V30 3890 O 386.784 -0.134183 -1.82006 0
M  V30 3891 C 386.835 -3.50064 -0.902087 0
M  V30 3892 O 386.556 -4.37717 0.18305 0
M  V30 3893 C 388.057 -4.13268 -1.60389 0
M  V30 3894 H 385.277 -0.664509 -0.0931053 0
M  V30 3895 H 387.821 -2.0124 0.36369 0
M  V30 3896 H 385.976 -3.52583 -1.60511 0
M  V30 3897 H 386.39 -5.24097 -0.205579 0
M  V30 3898 H 387.864 -5.17733 -1.91458 0
M  V30 3899 H 388.341 -3.59434 -2.52397 0
M  V30 3900 H 388.947 -4.14655 -0.945576 0
M  V30 3901 N 387.262 0.0317525 -1.57568 0
M  V30 3902 C 388.212 1.04101 -2.02847 0
M  V30 3903 C 389.196 1.3219 -0.917317 0
M  V30 3904 O 390.388 1.31819 -1.18121 0
M  V30 3905 C 387.517 2.34295 -2.5092 0
M  V30 3906 C 386.603 2.09308 -3.68851 0
M  V30 3907 N 386.994 1.5437 -4.81667 0
M  V30 3908 C 385.292 2.39604 -3.76172 0
M  V30 3909 C 385.993 1.45126 -5.63306 0
M  V30 3910 N 384.969 1.92589 -5.08341 0
M  V30 3911 H 388.771 0.610217 -2.87495 0
M  V30 3912 H 386.285 0.238108 -1.60645 0
M  V30 3913 H 388.282 3.07404 -2.81617 0
M  V30 3914 H 386.942 2.78055 -1.67677 0
M  V30 3915 H 387.953 1.22678 -5.03161 0
M  V30 3916 H 384.63 2.86457 -3.03724 0
M  V30 3917 H 386.02 1.03163 -6.63933 0
M  V30 3918 N 388.74 1.54641 0.303973 0
M  V30 3919 C 389.965 1.78092 1.06292 0
M  V30 3920 C 390.39 0.537342 1.80262 0
M  V30 3921 O 389.748 -0.511993 1.7392 0
M  V30 3922 C 389.796 2.98612 2.02147 0
M  V30 3923 O 388.9 2.71528 3.10397 0
M  V30 3924 H 388.241 0.589548 0.305497 0
M  V30 3925 H 390.771 2.01716 0.3423 0
M  V30 3926 H 390.781 3.265 2.44667 0
M  V30 3927 H 389.456 3.88785 1.47714 0
M  V30 3928 H 388.033 2.54648 2.72413 0
M  V30 3929 N 390.218 -0.567019 1.47046 0
M  V30 3930 C 391.128 -1.70247 1.6141 0
M  V30 3931 C 392.144 -1.66746 0.497157 0
M  V30 3932 O 393.32 -1.86371 0.763389 0
M  V30 3933 C 390.385 -3.06756 1.61561 0
M  V30 3934 C 389.446 -3.21399 2.84607 0
M  V30 3935 C 388.679 -4.51396 2.84741 0
M  V30 3936 O 388.902 -5.36255 1.94388 0
M  V30 3937 O 387.836 -4.69621 3.76483 0
M  V30 3938 H 391.662 -1.61073 2.57467 0
M  V30 3939 H 389.247 -0.735894 1.30019 0
M  V30 3940 H 391.129 -3.8801 1.64396 0
M  V30 3941 H 389.804 -3.16333 0.686684 0
M  V30 3942 H 388.711 -2.39579 2.8732 0
M  V30 3943 H 390.044 -3.16721 3.76761 0
M  V30 3944 N 391.696 -1.35014 -0.812953 0
M  V30 3945 C 392.629 -1.21761 -1.93001 0
M  V30 3946 C 393.607 -0.10694 -1.62248 0
M  V30 3947 O 394.791 -0.273891 -1.865 0
M  V30 3948 C 391.918 -0.873404 -3.27245 0
M  V30 3949 C 390.964 -1.99523 -3.76952 0
M  V30 3950 S 391.797 -3.61009 -3.95516 0
M  V30 3951 C 392.953 -3.28651 -5.32672 0
M  V30 3952 H 393.186 -2.16315 -2.03948 0
M  V30 3953 H 390.719 -1.20156 -0.969631 0
M  V30 3954 H 392.677 -0.68161 -4.04802 0
M  V30 3955 H 391.338 0.053971 -3.14054 0
M  V30 3956 H 390.531 -1.70838 -4.74163 0
M  V30 3957 H 390.133 -2.14503 -3.06373 0
M  V30 3958 H 392.425 -2.81085 -6.1644 0
M  V30 3959 H 393.368 -4.25039 -5.66346 0
M  V30 3960 H 393.776 -2.6458 -4.98656 0
M  V30 3961 N 393.175 1.03435 -1.18907 0
M  V30 3962 C 394.105 2.13503 -0.945448 0
M  V30 3963 C 395.086 1.69682 0.119189 0
M  V30 3964 O 396.271 1.94169 -0.034707 0
M  V30 3965 C 393.401 3.44004 -0.477316 0
M  V30 3966 C 392.355 4.0148 -1.48316 0
M  V30 3967 C 391.681 5.27537 -0.872311 0
M  V30 3968 C 392.981 4.36921 -2.86177 0
M  V30 3969 H 394.675 2.34141 -1.86597 0
M  V30 3970 H 392.221 1.12523 -0.898584 0
M  V30 3971 H 394.174 4.20372 -0.294204 0
M  V30 3972 H 392.898 3.23072 0.478786 0
M  V30 3973 H 391.557 3.27201 -1.65332 0
M  V30 3974 H 391.205 5.02917 0.0911752 0
M  V30 3975 H 390.905 5.66954 -1.54393 0
M  V30 3976 H 392.429 6.06576 -0.699871 0
M  V30 3977 H 393.843 5.04248 -2.72776 0
M  V30 3978 H 392.24 4.87405 -3.50081 0
M  V30 3979 H 393.31 3.46466 -3.39248 0
M  V30 3980 N 394.653 0.992116 1.22453 0
M  V30 3981 C 396.064 0.702776 1.72968 0
M  V30 3982 C 396.415 -0.780399 1.80012 0
M  V30 3983 O 395.54 -1.61007 1.44589 0
M  V30 3984 C 396.135 1.26903 3.14135 0
M  V30 3985 C 394.694 1.02909 3.62059 0
M  V30 3986 C 393.841 1.38969 2.39964 0
M  V30 3987 H 396.792 1.16457 1.07812 0
M  V30 3988 H 396.813 0.647223 3.74955 0
M  V30 3989 H 396.325 2.34851 3.08977 0
M  V30 3990 H 394.426 -0.0337979 3.72585 0
M  V30 3991 H 394.539 1.69191 4.48231 0
M  V30 3992 H 392.903 0.808279 2.41535 0
M  V30 3993 H 393.686 2.4792 2.37467 0
M  V30 3994 N 396.131 -1.37776 0.765217 0
M  V30 3995 C 397.094 -2.28686 0.153416 0
M  V30 3996 C 398.094 -1.47727 -0.635081 0
M  V30 3997 O 399.284 -1.68027 -0.459632 0
M  V30 3998 C 396.416 -3.31608 -0.790495 0
M  V30 3999 H 397.609 -2.84297 0.954723 0
M  V30 4000 H 395.162 -1.46932 0.53299 0
M  V30 4001 H 395.897 -2.81109 -1.61705 0
M  V30 4002 H 395.682 -3.9144 -0.227348 0
M  V30 4003 H 397.172 -3.99559 -1.21419 0
M  V30 4004 N 397.609 -0.515225 -1.4894 0
M  V30 4005 C 398.559 0.275113 -2.26334 0
M  V30 4006 C 399.543 0.923007 -1.31793 0
M  V30 4007 O 400.735 0.828254 -1.56426 0
M  V30 4008 C 397.864 1.33041 -3.16473 0
M  V30 4009 C 396.95 0.688051 -4.18481 0
M  V30 4010 N 397.341 -0.217638 -5.05332 0
M  V30 4011 C 395.639 0.94699 -4.3583 0
M  V30 4012 C 396.34 -0.58676 -5.78733 0
M  V30 4013 N 395.316 0.0486966 -5.43578 0
M  V30 4014 H 399.118 -0.421876 -2.90856 0
M  V30 4015 H 396.632 -0.332249 -1.58965 0
M  V30 4016 H 398.629 1.9102 -3.70563 0
M  V30 4017 H 397.289 2.02894 -2.53504 0
M  V30 4018 H 398.3 -0.589343 -5.14536 0
M  V30 4019 H 394.977 1.63719 -3.8406 0
M  V30 4020 H 396.367 -1.32855 -6.58634 0
M  V30 4021 N 399.087 1.5561 -0.249682 0
M  V30 4022 C 400.317 2.03116 0.377803 0
M  V30 4023 C 400.725 1.12822 1.51881 0
M  V30 4024 O 400.068 0.13562 1.83199 0
M  V30 4025 C 400.13 3.46866 0.944693 0
M  V30 4026 C 399.794 4.56955 -0.0644259 0
M  V30 4027 C 400.791 5.12485 -0.874957 0
M  V30 4028 C 398.476 5.01936 -0.19132 0
M  V30 4029 C 400.47 6.11491 -1.79881 0
M  V30 4030 C 398.157 6.00773 -1.11868 0
M  V30 4031 C 399.155 6.5543 -1.92095 0
M  V30 4032 O 398.843 7.5234 -2.83267 0
M  V30 4033 H 398.575 0.669489 0.0935961 0
M  V30 4034 H 401.129 2.02004 -0.371966 0
M  V30 4035 H 399.359 3.45136 1.74407 0
M  V30 4036 H 401.048 3.77856 1.48255 0
M  V30 4037 H 401.814 4.78564 -0.787523 0
M  V30 4038 H 397.693 4.59055 0.423072 0
M  V30 4039 H 401.237 6.54078 -2.42543 0
M  V30 4040 H 397.134 6.34114 -1.20703 0
M  V30 4041 H 397.902 7.69966 -2.7766 0
M  V30 4042 N 400.565 -0.0233959 1.57583 0
M  V30 4043 C 401.795 -0.723631 1.93513 0
M  V30 4044 C 402.203 -1.69115 0.848333 0
M  V30 4045 O 401.546 -1.82781 -0.183484 0
M  V30 4046 C 401.608 -1.53075 3.25282 0
M  V30 4047 C 401.272 -0.727388 4.51174 0
M  V30 4048 C 402.269 -0.0251924 5.19894 0
M  V30 4049 C 399.954 -0.680256 4.97672 0
M  V30 4050 C 401.948 0.713374 6.33395 0
M  V30 4051 C 399.635 0.0620523 6.11068 0
M  V30 4052 C 400.633 0.757622 6.78785 0
M  V30 4053 O 400.321 1.48787 7.90011 0
M  V30 4054 H 400.053 -0.208051 0.643188 0
M  V30 4055 H 402.607 0.0167489 2.05393 0
M  V30 4056 H 400.837 -2.31508 3.09744 0
M  V30 4057 H 402.526 -2.11413 3.46496 0
M  V30 4058 H 403.292 -0.0526003 4.84971 0
M  V30 4059 H 399.171 -1.21116 4.44805 0
M  V30 4060 H 402.715 1.25683 6.86185 0
M  V30 4061 H 398.612 0.0913634 6.45435 0
M  V30 4062 H 399.38 1.40213 8.06401 0
M  V30 4063 N 402.043 -1.548 -0.295768 0
M  V30 4064 C 403.454 -1.65274 -0.868411 0
M  V30 4065 C 403.805 -0.56481 -1.87894 0
M  V30 4066 O 402.93 0.29767 -2.14343 0
M  V30 4067 C 403.525 -2.99603 -1.58188 0
M  V30 4068 C 402.084 -3.12181 -2.10286 0
M  V30 4069 C 401.231 -2.6098 -0.93727 0
M  V30 4070 H 404.182 -1.58534 -0.0726422 0
M  V30 4071 H 404.203 -2.91319 -2.44772 0
M  V30 4072 H 403.715 -3.78764 -0.846151 0
M  V30 4073 H 401.816 -2.3775 -2.8689 0
M  V30 4074 H 401.929 -4.18415 -2.33379 0
M  V30 4075 H 400.293 -2.17564 -1.32431 0
M  V30 4076 H 401.076 -3.42623 -0.215414 0
M  V30 4077 N 403.521 0.559213 -1.47345 0
M  V30 4078 C 404.484 1.64854 -1.59235 0
M  V30 4079 C 405.484 1.53851 -0.467607 0
M  V30 4080 O 406.674 1.58045 -0.732617 0
M  V30 4081 C 403.806 3.04388 -1.53496 0
M  V30 4082 H 404.999 1.55662 -2.56339 0
M  V30 4083 H 402.552 0.778973 -1.35505 0
M  V30 4084 H 403.287 3.19115 -0.577604 0
M  V30 4085 H 403.072 3.13783 -2.35123 0
M  V30 4086 H 404.562 3.83642 -1.6495 0
M  V30 4087 N 404.999 1.35443 0.805782 0
M  V30 4088 C 406.246 1.28761 1.56291 0
M  V30 4089 C 406.574 -0.137747 1.94012 0
M  V30 4090 O 405.829 -1.1032 1.61642 0
M  V30 4091 C 406.128 2.14045 2.86216 0
M  V30 4092 C 405.794 3.62826 2.67709 0
M  V30 4093 C 404.456 4.0338 2.6237 0
M  V30 4094 C 406.808 4.57227 2.50186 0
M  V30 4095 C 404.136 5.36501 2.37451 0
M  V30 4096 C 406.488 5.90547 2.26797 0
M  V30 4097 C 405.152 6.30245 2.1988 0
M  V30 4098 H 404.422 0.471171 0.571908 0
M  V30 4099 H 407.069 1.67347 0.930974 0
M  V30 4100 H 405.374 1.68342 3.53791 0
M  V30 4101 H 407.071 2.0621 3.43917 0
M  V30 4102 H 403.661 3.30644 2.72713 0
M  V30 4103 H 407.845 4.2678 2.53323 0
M  V30 4104 H 403.101 5.66259 2.30567 0
M  V30 4105 H 407.275 6.63274 2.12228 0
M  V30 4106 H 404.902 7.33328 2.00333 0
M  V30 4107 N 406.477 -1.02803 1.19454 0
M  V30 4108 C 407.424 -2.11099 0.933046 0
M  V30 4109 C 408.394 -1.65571 -0.132447 0
M  V30 4110 O 409.579 -1.90797 0.00987576 0
M  V30 4111 C 406.719 -3.41763 0.478747 0
M  V30 4112 C 405.832 -4.00833 1.6111 0
M  V30 4113 C 404.967 -5.19511 1.10825 0
M  V30 4114 C 404.006 -5.70639 2.21445 0
M  V30 4115 N 403.143 -6.80589 1.72461 0
M  V30 4116 H 407.983 -2.32804 1.86028 0
M  V30 4117 H 405.52 -1.14179 0.927441 0
M  V30 4118 H 407.478 -4.16736 0.196745 0
M  V30 4119 H 406.108 -3.20166 -0.411493 0
M  V30 4120 H 405.16 -3.23066 2.00829 0
M  V30 4121 H 406.472 -4.34794 2.4445 0
M  V30 4122 H 405.626 -6.01645 0.781533 0
M  V30 4123 H 404.365 -4.87086 0.244606 0
M  V30 4124 H 403.37 -4.87116 2.54947 0
M  V30 4125 H 404.595 -6.05102 3.08267 0
M  V30 4126 H 402.541 -6.50016 0.884056 0
M  V30 4127 H 402.458 -7.13681 2.49389 0
M  V30 4128 H 403.726 -7.66317 1.42755 0
M  V30 4129 N 407.956 -0.998596 -1.21925 0
M  V30 4130 C 408.903 -0.553621 -2.24062 0
M  V30 4131 C 409.873 0.416999 -1.6078 0
M  V30 4132 O 411.058 0.320482 -1.88089 0
M  V30 4133 C 408.198 0.119959 -3.44891 0
M  V30 4134 C 407.311 -0.893077 -4.22668 0
M  V30 4135 C 406.446 -0.192424 -5.30851 0
M  V30 4136 C 405.485 -1.19344 -6.00353 0
M  V30 4137 N 404.622 -0.520707 -7.00166 0
M  V30 4138 H 409.462 -1.4293 -2.61486 0
M  V30 4139 H 406.999 -0.715838 -1.28507 0
M  V30 4140 H 408.957 0.527459 -4.13852 0
M  V30 4141 H 407.587 0.959389 -3.08214 0
M  V30 4142 H 406.639 -1.41886 -3.52948 0
M  V30 4143 H 407.951 -1.65512 -4.70539 0
M  V30 4144 H 407.105 0.271515 -6.06092 0
M  V30 4145 H 405.844 0.602075 -4.83969 0
M  V30 4146 H 404.849 -1.66795 -5.23889 0
M  V30 4147 H 406.074 -1.98891 -6.49322 0
M  V30 4148 H 404.02 0.254252 -6.55507 0
M  V30 4149 H 403.937 -1.2211 -7.46073 0
M  V30 4150 H 405.205 -0.0797596 -7.79459 0
M  V30 4151 N 409.434 1.37368 -0.772513 0
M  V30 4152 C 410.664 2.03647 -0.348082 0
M  V30 4153 C 411.072 1.58392 1.03482 0
M  V30 4154 O 410.415 0.760921 1.672 0
M  V30 4155 C 410.477 3.58131 -0.313404 0
M  V30 4156 C 410.141 4.2652 -1.64102 0
M  V30 4157 C 411.138 4.50587 -2.5936 0
M  V30 4158 C 408.823 4.64335 -1.91567 0
M  V30 4159 C 410.817 5.11526 -3.80289 0
M  V30 4160 C 408.504 5.24996 -3.12766 0
M  V30 4161 C 409.502 5.48529 -4.06946 0
M  V30 4162 O 409.19 6.07921 -5.26011 0
M  V30 4163 H 408.922 0.660538 -0.143753 0
M  V30 4164 H 411.476 1.76669 -1.04772 0
M  V30 4165 H 409.706 3.84159 0.442617 0
M  V30 4166 H 411.395 4.05813 0.0840613 0
M  V30 4167 H 412.161 4.21784 -2.39423 0
M  V30 4168 H 408.04 4.45353 -1.19088 0
M  V30 4169 H 411.584 5.29811 -4.53813 0
M  V30 4170 H 407.481 5.53223 -3.32588 0
M  V30 4171 H 408.249 6.26398 -5.26847 0
M  V30 4172 N 410.912 0.523116 1.48665 0
M  V30 4173 C 411.875 -0.232592 2.28017 0
M  V30 4174 C 412.875 -0.874021 1.34972 0
M  V30 4175 O 414.065 -0.735132 1.57929 0
M  V30 4176 C 411.197 -1.33586 3.13636 0
M  V30 4177 H 412.39 0.464008 2.96289 0
M  V30 4178 H 409.943 0.278816 1.53793 0
M  V30 4179 H 410.678 -2.06593 2.4998 0
M  V30 4180 H 410.463 -0.881125 3.82071 0
M  V30 4181 H 411.953 -1.86759 3.73511 0
M  V30 4182 N 412.39 -1.55475 0.257931 0
M  V30 4183 C 413.34 -2.18506 -0.651094 0
M  V30 4184 C 414.324 -1.14431 -1.13112 0
M  V30 4185 O 415.516 -1.40305 -1.07905 0
M  V30 4186 C 412.645 -2.89653 -1.84272 0
M  V30 4187 C 411.731 -4.00996 -1.38068 0
M  V30 4188 N 412.122 -5.01816 -0.633609 0
M  V30 4189 C 410.42 -4.13753 -1.66506 0
M  V30 4190 C 411.121 -5.80371 -0.392922 0
M  V30 4191 N 410.097 -5.3505 -0.960359 0
M  V30 4192 H 413.899 -2.93811 -0.0722883 0
M  V30 4193 H 411.413 -1.62286 0.0607256 0
M  V30 4194 H 413.41 -3.33245 -2.50506 0
M  V30 4195 H 412.07 -2.15854 -2.42564 0
M  V30 4196 H 413.081 -5.17128 -0.282626 0
M  V30 4197 H 409.758 -3.51133 -2.25858 0
M  V30 4198 H 411.148 -6.7159 0.204235 0
M  V30 4199 N 413.868 0.0150385 -1.57593 0
M  V30 4200 C 415.115 0.703001 -1.89906 0
M  V30 4201 C 415.443 1.74604 -0.856944 0
M  V30 4202 O 414.698 1.95197 0.140287 0
M  V30 4203 C 414.997 1.39686 -3.28972 0
M  V30 4204 C 414.663 0.488457 -4.48246 0
M  V30 4205 C 413.325 0.2383 -4.8061 0
M  V30 4206 C 415.677 -0.137881 -5.21018 0
M  V30 4207 C 413.005 -0.646738 -5.83125 0
M  V30 4208 C 415.357 -1.0107 -6.24474 0
M  V30 4209 C 414.021 -1.27019 -6.55303 0
M  V30 4210 H 413.291 0.257246 -0.694914 0
M  V30 4211 H 415.938 -0.037259 -1.91464 0
M  V30 4212 H 414.243 2.21079 -3.23468 0
M  V30 4213 H 415.94 1.93495 -3.51227 0
M  V30 4214 H 412.53 0.693593 -4.22951 0
M  V30 4215 H 416.714 0.0423953 -4.96282 0
M  V30 4216 H 411.97 -0.855937 -6.05379 0
M  V30 4217 H 416.144 -1.50247 -6.79999 0
M  V30 4218 H 413.771 -1.95769 -7.3456 0
M  V30 4219 N 415.346 1.54954 0.287554 0
M  V30 4220 C 416.293 1.86834 1.35505 0
M  V30 4221 C 417.263 0.718452 1.49758 0
M  V30 4222 O 418.448 0.968358 1.644 0
M  V30 4223 C 415.588 2.13303 2.71286 0
M  V30 4224 C 414.701 3.40883 2.65373 0
M  V30 4225 C 413.836 3.57125 3.93236 0
M  V30 4226 C 412.875 4.78449 3.81776 0
M  V30 4227 N 412.012 4.91426 5.01443 0
M  V30 4228 H 416.852 2.77889 1.07619 0
M  V30 4229 H 414.389 1.37593 0.520241 0
M  V30 4230 H 416.347 2.26646 3.50267 0
M  V30 4231 H 414.977 1.25499 2.97405 0
M  V30 4232 H 414.029 3.36088 1.78182 0
M  V30 4233 H 415.341 4.29993 2.52799 0
M  V30 4234 H 414.495 3.70207 4.80658 0
M  V30 4235 H 413.234 2.66173 4.0866 0
M  V30 4236 H 412.239 4.65386 2.92738 0
M  V30 4237 H 413.464 5.70822 3.67884 0
M  V30 4238 H 411.41 4.03401 5.17304 0
M  V30 4239 H 411.327 5.74559 4.91343 0
M  V30 4240 H 412.595 5.08879 5.90477 0
M  V30 4241 N 416.824 -0.551391 1.4764 0
M  V30 4242 C 418.072 -1.30572 1.54258 0
M  V30 4243 C 418.393 -1.93877 0.208963 0
M  V30 4244 O 417.663 -1.80234 -0.767619 0
M  V30 4245 H 416.243 -0.484894 0.568231 0
M  V30 4246 H 418.905 -0.643402 1.83974 0
M  V30 4247 H 418.001 -2.09621 2.31226 0
M  V30 4248 N 418.302 -1.35869 -0.798587 0
M  V30 4249 C 419.25 -1.29491 -1.93222 0
M  V30 4250 C 420.244 -0.18836 -1.6835 0
M  V30 4251 O 421.45 -0.354822 -1.76468 0
M  V30 4252 H 417.825 -0.402901 -0.63496 0
M  V30 4253 H 419.796 -2.25247 -1.9572 0
M  V30 4254 C 418.545 -1.09184 -3.30112 0
M  V30 4255 H 417.868 -1.93574 -3.49813 0
M  V30 4256 H 419.308 -1.08766 -4.09812 0
M  V30 4257 C 417.767 0.203959 -3.36282 0
M  V30 4258 O 418.297 1.19699 -3.83451 0
M  V30 4259 N 416.503 0.245488 -2.89561 0
M  V30 4260 H 416.05 -0.563223 -2.51367 0
M  V30 4261 H 416.008 1.11219 -2.94071 0
M  V30 4262 N 419.78 1.02168 -1.19998 0
M  V30 4263 C 421.01 1.79036 -1.031 0
M  V30 4264 C 421.418 1.84409 0.423078 0
M  V30 4265 O 420.761 1.29228 1.30559 0
M  V30 4266 C 420.823 3.25185 -1.53281 0
M  V30 4267 C 420.487 3.43431 -3.01503 0
M  V30 4268 C 421.484 3.33063 -3.99206 0
M  V30 4269 C 419.169 3.69412 -3.40353 0
M  V30 4270 C 421.163 3.48413 -5.33748 0
M  V30 4271 C 418.85 3.84406 -4.75053 0
M  V30 4272 C 419.848 3.7391 -5.71559 0
M  V30 4273 O 419.536 3.88452 -7.03818 0
M  V30 4274 H 419.268 0.570043 -0.363355 0
M  V30 4275 H 421.822 1.29524 -1.59414 0
M  V30 4276 H 420.052 3.75756 -0.913483 0
M  V30 4277 H 421.741 3.83671 -1.32481 0
M  V30 4278 H 422.507 3.12934 -3.70537 0
M  V30 4279 H 418.386 3.76671 -2.65782 0
M  V30 4280 H 421.93 3.40137 -6.09059 0
M  V30 4281 H 417.827 4.04035 -5.03415 0
M  V30 4282 H 418.595 4.055 -7.10993 0
M  V30 4283 N 421.258 1.00505 1.21394 0
M  V30 4284 C 422.506 0.686415 1.90086 0
M  V30 4285 C 422.827 -0.785264 1.7849 0
M  V30 4286 O 422.097 -1.56387 1.17983 0
M  V30 4287 H 420.677 0.2509 0.703604 0
M  V30 4288 H 423.339 1.27417 1.47482 0
M  V30 4289 H 422.435 0.959621 2.96981 0
M  V30 4290 N 422.737 -1.36956 0.779787 0
M  V30 4291 C 423.685 -2.32053 0.15942 0
M  V30 4292 C 424.679 -1.55333 -0.675878 0
M  V30 4293 O 425.885 -1.70668 -0.57204 0
M  V30 4294 H 422.26 -0.751286 0.0327707 0
M  V30 4295 H 424.231 -2.8195 0.977078 0
M  V30 4296 C 422.98 -3.40602 -0.698977 0
M  V30 4297 H 422.303 -3.99746 -0.0655966 0
M  V30 4298 H 423.743 -4.09486 -1.09989 0
M  V30 4299 C 422.202 -2.81359 -1.85307 0
M  V30 4300 O 422.732 -2.72751 -2.94906 0
M  V30 4301 N 420.938 -2.38786 -1.65619 0
M  V30 4302 H 420.485 -2.45987 -0.764725 0
M  V30 4303 H 420.443 -1.99493 -2.43002 0
M  V30 4304 N 424.215 -0.530993 -1.48385 0
M  V30 4305 C 425.178 0.220497 -2.28137 0
M  V30 4306 C 426.178 0.866851 -1.35434 0
M  V30 4307 O 427.368 0.726746 -1.58316 0
M  V30 4308 C 424.5 1.31921 -3.1434 0
M  V30 4309 H 425.693 -0.479714 -2.96038 0
M  V30 4310 H 423.246 -0.286968 -1.53643 0
M  V30 4311 H 423.981 2.05264 -2.51072 0
M  V30 4312 H 423.766 0.86085 -3.82533 0
M  V30 4313 H 425.256 1.84776 -3.74497 0
M  V30 4314 N 425.693 1.55336 -0.266172 0
M  V30 4315 C 426.939 2.00423 0.346714 0
M  V30 4316 C 427.294 1.15132 1.54151 0
M  V30 4317 O 426.587 0.211289 1.90431 0
M  V30 4318 C 426.781 3.48606 0.787957 0
M  V30 4319 C 426.61 4.48236 -0.362535 0
M  V30 4320 C 425.38 4.98211 -0.843445 0
M  V30 4321 C 427.578 5.00199 -1.19603 0
M  V30 4322 N 425.56 5.81625 -1.96434 0
M  V30 4323 C 426.931 5.80973 -2.16497 0
M  V30 4324 C 428.986 4.82458 -1.2304 0
M  V30 4325 C 427.689 6.45896 -3.1656 0
M  V30 4326 C 429.715 5.48174 -2.21944 0
M  V30 4327 C 429.077 6.28751 -3.17571 0
M  V30 4328 H 425.176 0.776535 0.0922914 0
M  V30 4329 H 427.76 1.90792 -0.388154 0
M  V30 4330 H 425.931 3.58597 1.49207 0
M  V30 4331 H 427.663 3.80538 1.37742 0
M  V30 4332 H 424.418 4.71696 -0.424271 0
M  V30 4333 H 424.842 6.28025 -2.52813 0
M  V30 4334 H 429.484 4.19774 -0.504903 0
M  V30 4335 H 427.202 7.07734 -3.90048 0
M  V30 4336 H 430.788 5.36392 -2.25333 0
M  V30 4337 H 429.668 6.78703 -3.92851 0
M  V30 4338 N 427.171 -0.0066808 1.57599 0
M  V30 4339 C 428.417 -0.68835 1.91398 0
M  V30 4340 C 428.772 -1.7175 0.86716 0
M  V30 4341 O 428.065 -1.91215 -0.121475 0
M  V30 4342 C 428.259 -1.37939 3.29708 0
M  V30 4343 C 428.088 -0.418689 4.47747 0
M  V30 4344 C 426.858 -0.031526 5.0529 0
M  V30 4345 C 429.056 0.312301 5.13351 0
M  V30 4346 N 427.038 0.928088 6.06844 0
M  V30 4347 C 428.409 1.12682 6.09674 0
M  V30 4348 C 430.464 0.376853 4.96472 0
M  V30 4349 C 429.167 2 6.90936 0
M  V30 4350 C 431.193 1.23723 5.78314 0
M  V30 4351 C 430.555 2.03962 6.74225 0
M  V30 4352 H 426.654 -0.225292 0.748844 0
M  V30 4353 H 429.238 0.0520973 1.9463 0
M  V30 4354 H 427.409 -2.09017 3.27363 0
M  V30 4355 H 429.141 -2.01522 3.50957 0
M  V30 4356 H 425.896 -0.398485 4.71921 0
M  V30 4357 H 426.32 1.40307 6.62301 0
M  V30 4358 H 430.962 -0.22921 4.22178 0
M  V30 4359 H 428.68 2.61676 7.64559 0
M  V30 4360 H 432.266 1.291 5.67296 0
M  V30 4361 H 431.146 2.69461 7.36451 0
M  V30 4362 N 428.649 -1.55105 -0.279332 0
M  V30 4363 C 429.596 -1.8755 -1.34513 0
M  V30 4364 C 430.566 -0.726384 -1.49375 0
M  V30 4365 O 431.751 -0.977063 -1.63884 0
M  V30 4366 C 428.891 -2.14738 -2.70151 0
M  V30 4367 C 428.004 -3.42285 -2.63562 0
M  V30 4368 C 427.139 -3.59206 -3.91337 0
M  V30 4369 C 426.178 -4.80467 -3.79233 0
M  V30 4370 N 425.315 -4.94079 -4.98829 0
M  V30 4371 H 430.155 -2.78456 -1.06143 0
M  V30 4372 H 427.692 -1.37867 -0.512936 0
M  V30 4373 H 429.65 -2.28501 -3.49061 0
M  V30 4374 H 428.28 -1.27075 -2.96735 0
M  V30 4375 H 427.332 -3.37029 -1.76397 0
M  V30 4376 H 428.644 -4.31328 -2.50515 0
M  V30 4377 H 427.798 -3.72751 -4.78687 0
M  V30 4378 H 426.537 -2.68337 -4.07243 0
M  V30 4379 H 425.542 -4.66932 -2.90266 0
M  V30 4380 H 426.767 -5.72765 -3.64852 0
M  V30 4381 H 424.713 -4.06139 -5.15158 0
M  V30 4382 H 424.63 -5.77156 -4.8829 0
M  V30 4383 H 425.898 -5.12003 -5.8777 0
M  V30 4384 N 430.127 0.543554 -1.4793 0
M  V30 4385 C 431.059 1.665 -1.57513 0
M  V30 4386 C 432.072 1.56156 -0.460333 0
M  V30 4387 O 433.261 1.62865 -0.730573 0
M  V30 4388 C 430.361 3.05063 -1.47614 0
M  V30 4389 C 429.534 3.41024 -2.739 0
M  V30 4390 C 428.593 4.58809 -2.57645 0
M  V30 4391 O 427.619 4.62707 -3.31498 0
M  V30 4392 N 428.821 5.56149 -1.66368 0
M  V30 4393 H 431.586 1.5872 -2.5422 0
M  V30 4394 H 429.147 0.730517 -1.44482 0
M  V30 4395 H 431.139 3.81712 -1.34455 0
M  V30 4396 H 429.709 3.06994 -0.589359 0
M  V30 4397 H 428.929 2.53687 -3.01723 0
M  V30 4398 H 430.217 3.61831 -3.57709 0
M  V30 4399 H 429.615 5.55767 -1.05543 0
M  V30 4400 H 428.172 6.32071 -1.59154 0
M  V30 4401 N 431.605 1.3629 0.791371 0
M  V30 4402 C 432.552 1.30458 1.90393 0
M  V30 4403 C 433.522 0.173632 1.6519 0
M  V30 4404 O 434.707 0.35983 1.87376 0
M  V30 4405 C 431.847 1.09777 3.27174 0
M  V30 4406 C 430.96 2.31929 3.64462 0
M  V30 4407 C 430.095 2.04276 4.90352 0
M  V30 4408 C 429.134 3.224 5.20312 0
M  V30 4409 N 428.271 2.94424 6.37385 0
M  V30 4410 H 433.111 2.25589 1.94714 0
M  V30 4411 H 430.648 1.12122 0.952216 0
M  V30 4412 H 432.606 0.958133 4.06049 0
M  V30 4413 H 431.236 0.183014 3.22281 0
M  V30 4414 H 430.288 2.56703 2.80727 0
M  V30 4415 H 431.6 3.20085 3.82553 0
M  V30 4416 H 430.754 1.87231 5.77087 0
M  V30 4417 H 429.493 1.13428 4.74326 0
M  V30 4418 H 428.498 3.40005 4.32061 0
M  V30 4419 H 429.723 4.14071 5.38258 0
M  V30 4420 H 427.669 2.06185 6.22755 0
M  V30 4421 H 427.586 3.76118 6.55798 0
M  V30 4422 H 428.854 2.80953 7.27108 0
M  V30 4423 N 433.083 -1.0153 1.20538 0
M  V30 4424 C 433.993 -2.13557 0.971113 0
M  V30 4425 C 435.009 -1.73845 -0.0734366 0
M  V30 4426 O 436.185 -2.01075 0.114299 0
M  V30 4427 C 433.25 -3.42661 0.527639 0
M  V30 4428 C 432.311 -3.96608 1.64319 0
M  V30 4429 C 431.544 -5.1955 1.22078 0
M  V30 4430 O 431.767 -5.70329 0.0900198 0
M  V30 4431 O 430.701 -5.66681 2.02871 0
M  V30 4432 H 434.527 -2.3619 1.90913 0
M  V30 4433 H 432.112 -1.11946 0.989362 0
M  V30 4434 H 433.994 -4.20404 0.289621 0
M  V30 4435 H 432.669 -3.21441 -0.381779 0
M  V30 4436 H 431.576 -3.20139 1.93551 0
M  V30 4437 H 432.909 -4.22219 2.52966 0
M  V30 4438 N 434.561 -1.01147 -1.20859 0
M  V30 4439 C 435.471 -0.58686 -2.27141 0
M  V30 4440 C 436.487 0.373198 -1.69951 0
M  V30 4441 O 437.663 0.235423 -2.00019 0
M  V30 4442 C 434.728 0.0733602 -3.46622 0
M  V30 4443 C 433.789 -0.931995 -4.19061 0
M  V30 4444 C 433.022 -0.303186 -5.32838 0
M  V30 4445 O 433.245 0.898395 -5.63281 0
M  V30 4446 O 432.179 -1.01735 -5.9324 0
M  V30 4447 H 436.005 -1.47155 -2.65667 0
M  V30 4448 H 433.59 -0.780689 -1.2738 0
M  V30 4449 H 435.472 0.442333 -4.19072 0
M  V30 4450 H 434.147 0.932329 -3.09983 0
M  V30 4451 H 433.054 -1.35224 -3.48805 0
M  V30 4452 H 434.387 -1.76076 -4.59628 0
M  V30 4453 N 436.039 1.36541 -0.78704 0
M  V30 4454 C 437.286 1.99304 -0.358341 0
M  V30 4455 C 437.614 1.62467 1.06933 0
M  V30 4456 O 436.869 0.870019 1.75297 0
M  V30 4457 C 437.168 3.54343 -0.466485 0
M  V30 4458 C 436.834 4.10993 -1.85461 0
M  V30 4459 C 435.496 4.26177 -2.23443 0
M  V30 4460 C 437.848 4.41895 -2.76366 0
M  V30 4461 C 435.176 4.69573 -3.51736 0
M  V30 4462 C 437.528 4.86722 -4.04084 0
M  V30 4463 C 436.192 5.00112 -4.42091 0
M  V30 4464 H 435.462 0.729306 -0.131126 0
M  V30 4465 H 438.109 1.63068 -1.00404 0
M  V30 4466 H 436.414 3.90918 0.262719 0
M  V30 4467 H 438.111 4.00833 -0.115854 0
M  V30 4468 H 434.701 3.99612 -1.54946 0
M  V30 4469 H 438.885 4.29735 -2.48277 0
M  V30 4470 H 434.141 4.78127 -3.81057 0
M  V30 4471 H 438.315 5.09598 -4.7464 0
M  V30 4472 H 435.942 5.33498 -5.41557 0
M  V30 4473 N 437.518 0.538854 1.48102 0
M  V30 4474 C 438.428 -0.222648 2.33541 0
M  V30 4475 C 439.444 -0.930225 1.47047 0
M  V30 4476 O 440.62 -0.903211 1.80011 0
M  V30 4477 C 437.685 -1.25064 3.23357 0
M  V30 4478 C 436.746 -0.552469 4.2573 0
M  V30 4479 C 435.979 -1.53149 5.11254 0
M  V30 4480 O 436.202 -2.76487 4.9891 0
M  V30 4481 O 435.136 -1.06602 5.92385 0
M  V30 4482 H 438.962 0.477707 2.99919 0
M  V30 4483 H 436.547 0.299669 1.46364 0
M  V30 4484 H 438.429 -1.8445 3.78888 0
M  V30 4485 H 437.104 -1.93325 2.59629 0
M  V30 4486 H 436.011 0.082114 3.7401 0
M  V30 4487 H 437.344 0.0883526 4.92121 0
M  V30 4488 N 438.996 -1.55193 0.274407 0
M  V30 4489 C 440.221 -2.04446 -0.348824 0
M  V30 4490 C 440.646 -1.15149 -1.48735 0
M  V30 4491 O 440.004 -0.149952 -1.80679 0
M  V30 4492 C 440.052 -3.51431 -0.808009 0
M  V30 4493 O 439.156 -3.65225 -1.91531 0
M  V30 4494 H 438.497 -0.66006 -0.0722276 0
M  V30 4495 H 441.027 -2.00481 0.408498 0
M  V30 4496 H 441.037 -3.92781 -1.10395 0
M  V30 4497 H 439.712 -4.15892 0.0249865 0
M  V30 4498 H 438.289 -3.35778 -1.62196 0
M  V30 4499 N 440.474 -0.00167713 -1.576 0
M  V30 4500 C 441.721 0.68282 -1.90641 0
M  V30 4501 C 442.049 1.73686 -0.875415 0
M  V30 4502 O 441.304 1.95334 0.119575 0
M  V30 4503 C 441.603 1.36189 -3.30435 0
M  V30 4504 C 441.269 0.440887 -4.48739 0
M  V30 4505 C 439.931 0.187312 -4.80835 0
M  V30 4506 C 442.283 -0.193134 -5.20842 0
M  V30 4507 C 439.611 -0.70855 -5.82406 0
M  V30 4508 C 441.963 -1.07688 -6.23367 0
M  V30 4509 C 440.627 -1.33962 -6.53919 0
M  V30 4510 H 439.897 0.249862 -0.697603 0
M  V30 4511 H 442.544 -0.0575642 -1.91413 0
M  V30 4512 H 440.849 2.17636 -3.25794 0
M  V30 4513 H 442.546 1.89759 -3.5326 0
M  V30 4514 H 439.136 0.648694 -4.23663 0
M  V30 4515 H 443.32 -0.0102445 -4.96299 0
M  V30 4516 H 438.576 -0.920097 -6.04437 0
M  V30 4517 H 442.75 -1.57451 -6.78367 0
M  V30 4518 H 440.377 -2.03549 -7.32442 0
M  V30 4519 N 441.952 1.55251 0.271103 0
M  V30 4520 C 442.9 1.89054 1.35504 0
M  V30 4521 C 443.894 0.767064 1.51038 0
M  V30 4522 O 445.1 0.951429 1.528 0
M  V30 4523 H 441.475 0.600072 0.45323 0
M  V30 4524 H 443.446 2.79598 1.04247 0
M  V30 4525 C 442.195 2.18068 2.70817 0
M  V30 4526 H 441.518 3.04005 2.59656 0
M  V30 4527 H 442.958 2.4564 3.45597 0
M  V30 4528 C 441.417 0.988901 3.2206 0
M  V30 4529 O 441.947 0.224501 4.01072 0
M  V30 4530 N 440.153 0.786085 2.79766 0
M  V30 4531 H 439.7 1.40937 2.15626 0
M  V30 4532 H 439.658 -0.00969349 3.14399 0
M  V30 4533 N 443.43 -0.535701 1.48216 0
M  V30 4534 C 444.678 -1.28928 1.55634 0
M  V30 4535 C 444.999 -1.93645 0.229514 0
M  V30 4536 O 444.269 -1.81038 -0.74846 0
M  V30 4537 H 442.849 -0.47884 0.573342 0
M  V30 4538 H 445.511 -0.623853 1.84646 0
M  V30 4539 H 444.607 -2.07157 2.33436 0
M  V30 4540 N 444.908 -1.36708 -0.784132 0
M  V30 4541 C 446.319 -1.27947 -1.35965 0
M  V30 4542 C 446.67 0.0784013 -1.96043 0
M  V30 4543 O 445.795 0.979989 -1.92938 0
M  V30 4544 C 446.39 -2.31689 -2.47195 0
M  V30 4545 C 444.949 -2.26601 -3.00548 0
M  V30 4546 C 444.096 -2.16184 -1.73666 0
M  V30 4547 H 447.047 -1.4751 -0.585358 0
M  V30 4548 H 447.068 -1.95638 -3.26352 0
M  V30 4549 H 446.58 -3.30506 -2.03439 0
M  V30 4550 H 444.681 -1.31268 -3.48711 0
M  V30 4551 H 444.794 -3.19508 -3.57004 0
M  V30 4552 H 443.158 -1.62524 -1.96107 0
M  V30 4553 H 443.941 -3.16896 -1.32031 0
M  V30 4554 N 446.386 1.0089 -1.21074 0
M  V30 4555 C 447.632 1.74866 -1.02712 0
M  V30 4556 C 447.965 1.89178 0.438787 0
M  V30 4557 O 447.24 1.42325 1.32567 0
M  V30 4558 C 447.523 3.16347 -1.72036 0
M  V30 4559 C 447.376 3.09782 -3.26121 0
M  V30 4560 C 448.695 4.15187 -1.45973 0
M  V30 4561 H 445.814 0.634736 -0.374539 0
M  V30 4562 H 448.456 1.17646 -1.49196 0
M  V30 4563 H 446.606 3.65201 -1.32517 0
M  V30 4564 H 448.278 2.68673 -3.74983 0
M  V30 4565 H 446.521 2.46982 -3.56626 0
M  V30 4566 H 447.192 4.09829 -3.6979 0
M  V30 4567 H 449.668 3.75022 -1.80272 0
M  V30 4568 H 448.544 5.12331 -1.96999 0
M  V30 4569 H 448.805 4.40386 -0.388924 0
M  V30 4570 N 447.864 1.01787 1.20321 0
M  V30 4571 C 448.794 0.609625 2.25401 0
M  V30 4572 C 449.775 -0.375951 1.65893 0
M  V30 4573 O 450.96 -0.261101 1.92437 0
M  V30 4574 C 448.09 -0.0515995 3.47262 0
M  V30 4575 C 447.044 0.855095 4.19371 0
M  V30 4576 C 446.37 0.0595757 5.34667 0
M  V30 4577 C 447.67 2.16374 4.75373 0
M  V30 4578 H 449.364 1.48803 2.59804 0
M  V30 4579 H 446.91 0.716934 1.24884 0
M  V30 4580 H 448.863 -0.348764 4.19954 0
M  V30 4581 H 447.587 -0.964726 3.12027 0
M  V30 4582 H 446.246 1.13628 3.48546 0
M  V30 4583 H 445.894 -0.85524 4.95676 0
M  V30 4584 H 445.594 0.663406 5.83843 0
M  V30 4585 H 447.118 -0.231105 6.10162 0
M  V30 4586 H 448.532 1.92885 5.39878 0
M  V30 4587 H 446.929 2.71853 5.34991 0
M  V30 4588 H 447.999 2.82589 3.94045 0
M  V30 4589 N 449.342 -1.36122 0.79427 0
M  V30 4590 C 450.272 -2.32551 0.210328 0
M  V30 4591 C 451.253 -1.56884 -0.657386 0
M  V30 4592 O 452.438 -1.85014 -0.590207 0
M  V30 4593 C 449.568 -3.41128 -0.651819 0
M  V30 4594 C 448.522 -4.27842 0.116395 0
M  V30 4595 C 447.848 -5.2763 -0.86666 0
M  V30 4596 C 449.148 -5.05647 1.30837 0
M  V30 4597 H 450.842 -2.81636 1.01594 0
M  V30 4598 H 448.388 -1.35407 0.489981 0
M  V30 4599 H 450.341 -4.07581 -1.07031 0
M  V30 4600 H 449.065 -2.90622 -1.49019 0
M  V30 4601 H 447.724 -3.62952 0.515915 0
M  V30 4602 H 447.372 -4.73395 -1.70019 0
M  V30 4603 H 447.072 -5.86514 -0.35705 0
M  V30 4604 H 448.596 -5.96955 -1.28361 0
M  V30 4605 H 450.01 -5.65113 0.965393 0
M  V30 4606 H 448.407 -5.73967 1.75161 0
M  V30 4607 H 449.477 -4.37006 2.10128 0
M  V30 4608 N 450.82 -0.546701 -1.47814 0
M  V30 4609 C 452.048 -0.0232857 -2.06887 0
M  V30 4610 C 452.463 1.26571 -1.4009 0
M  V30 4611 O 451.82 1.7569 -0.493906 0
M  V30 4612 C 451.871 0.186975 -3.61016 0
M  V30 4613 O 451.592 -1.05097 -4.25307 0
M  V30 4614 C 453.093 0.748872 -4.36929 0
M  V30 4615 H 450.313 -0.0410763 -0.669742 0
M  V30 4616 H 452.857 -0.757117 -1.89968 0
M  V30 4617 H 451.012 0.870903 -3.77484 0
M  V30 4618 H 451.426 -0.842121 -5.17695 0
M  V30 4619 H 452.9 0.845334 -5.45489 0
M  V30 4620 H 453.377 1.75772 -4.02493 0
M  V30 4621 H 453.983 0.100979 -4.2518 0
M  V30 4622 N 452.299 1.55045 -0.282633 0
M  V30 4623 C 453.527 2.04168 0.33512 0
M  V30 4624 C 453.942 1.16071 1.48906 0
M  V30 4625 O 453.299 0.182391 1.81586 0
M  V30 4626 C 453.35 3.52332 0.808957 0
M  V30 4627 O 453.071 4.37078 -0.299038 0
M  V30 4628 C 454.572 4.17375 1.49375 0
M  V30 4629 H 451.792 0.666744 0.0754543 0
M  V30 4630 H 454.336 2.00205 -0.416918 0
M  V30 4631 H 452.491 3.56715 1.51106 0
M  V30 4632 H 452.905 5.24458 0.0665514 0
M  V30 4633 H 454.379 5.22627 1.77664 0
M  V30 4634 H 454.856 3.65999 2.42778 0
M  V30 4635 H 455.462 4.17016 0.835305 0
M  V30 4636 N 453.777 0.010035 1.57597 0
M  V30 4637 C 454.725 -0.996272 2.10184 0
M  V30 4638 C 455.719 -1.34942 1.02406 0
M  V30 4639 O 456.925 -1.33389 1.20861 0
M  V30 4640 H 453.3 -0.338982 0.671264 0
M  V30 4641 H 455.271 -0.527272 2.93705 0
M  V30 4642 C 454.02 -2.27599 2.62857 0
M  V30 4643 H 453.343 -2.01295 3.45428 0
M  V30 4644 H 454.783 -2.96265 3.0332 0
M  V30 4645 C 453.242 -2.99269 1.54725 0
M  V30 4646 O 453.772 -3.90644 0.93597 0
M  V30 4647 N 451.978 -2.61269 1.27228 0
M  V30 4648 H 451.525 -1.87043 1.77123 0
M  V30 4649 H 451.483 -3.09534 0.550999 0
M  V30 4650 N 455.255 -1.55392 -0.262866 0
M  V30 4651 C 456.495 -1.78231 -1.00064 0
M  V30 4652 C 456.859 -0.576966 -1.83126 0
M  V30 4653 O 458.06 -0.683809 -2.59957 0
M  V30 4654 C 456.331 -3.05701 -1.85153 0
M  V30 4655 S 457.89 -3.49699 -2.65058 0
M  V30 4656 H 454.708 -0.626138 -0.336856 0
M  V30 4657 H 457.31 -1.93626 -0.27005 0
M  V30 4658 H 456.014 -3.91511 -1.23074 0
M  V30 4659 H 455.545 -2.93 -2.62515 0
M  V30 4660 H 457.56 -3.09772 -3.87629 0
M  V30 4661 N 456.733 0.527833 -1.48498 0
M  V30 4662 C 457.663 1.64136 -1.66077 0
M  V30 4663 C 458.644 1.62286 -0.509625 0
M  V30 4664 O 459.829 1.79449 -0.742413 0
M  V30 4665 C 456.959 3.02717 -1.70234 0
M  V30 4666 C 455.913 3.19426 -2.8487 0
M  V30 4667 C 455.239 4.5909 -2.74118 0
M  V30 4668 C 456.539 3.01993 -4.26142 0
M  V30 4669 H 458.233 1.4968 -2.593 0
M  V30 4670 H 455.779 0.718654 -1.24785 0
M  V30 4671 H 457.732 3.80491 -1.8112 0
M  V30 4672 H 456.456 3.18201 -0.735911 0
M  V30 4673 H 455.115 2.4407 -2.73542 0
M  V30 4674 H 454.763 4.71413 -1.7544 0
M  V30 4675 H 454.463 4.71214 -3.51042 0
M  V30 4676 H 455.987 5.3896 -2.86974 0
M  V30 4677 H 457.401 3.69558 -4.38292 0
M  V30 4678 H 455.798 3.2561 -5.04082 0
M  V30 4679 H 456.868 1.98396 -4.42456 0
M  V30 4680 N 458.211 1.37122 0.776871 0
M  V30 4681 C 459.457 1.32243 1.53752 0
M  V30 4682 C 459.79 -0.0944745 1.9397 0
M  V30 4683 O 459.065 -1.05068 1.6368 0
M  V30 4684 C 459.348 2.25681 2.80607 0
M  V30 4685 C 459.201 3.76127 2.46676 0
M  V30 4686 C 460.52 2.17657 3.82509 0
M  V30 4687 H 457.639 0.481704 0.557791 0
M  V30 4688 H 460.281 1.6778 0.891612 0
M  V30 4689 H 458.431 1.95505 3.35723 0
M  V30 4690 H 460.103 4.16877 1.97513 0
M  V30 4691 H 458.346 3.94946 1.79443 0
M  V30 4692 H 459.017 4.36933 3.37333 0
M  V30 4693 H 461.493 2.44245 3.36873 0
M  V30 4694 H 460.369 2.85185 4.69 0
M  V30 4695 H 460.63 1.16785 4.26396 0
M  V30 4696 N 459.689 -1.00246 1.21608 0
M  V30 4697 C 461.1 -1.55511 1.03312 0
M  V30 4698 C 461.451 -1.91946 -0.406332 0
M  V30 4699 O 460.576 -1.73753 -1.28992 0
M  V30 4700 C 461.171 -2.82576 1.86913 0
M  V30 4701 C 459.73 -3.34318 1.72941 0
M  V30 4702 C 458.877 -2.07487 1.83968 0
M  V30 4703 H 461.828 -0.824638 1.35593 0
M  V30 4704 H 461.849 -3.54559 1.38087 0
M  V30 4705 H 461.361 -2.56026 2.91672 0
M  V30 4706 H 459.462 -3.65797 0.70877 0
M  V30 4707 H 459.575 -4.05566 2.55055 0
M  V30 4708 H 457.939 -2.20603 1.27304 0
M  V30 4709 H 458.722 -1.83346 2.9024 0
M  V30 4710 N 461.167 -1.02423 -1.1978 0
M  V30 4711 C 462.578 -0.748389 -1.71044 0
M  V30 4712 C 462.929 0.732398 -1.82017 0
M  V30 4713 O 462.054 1.57116 -1.48807 0
M  V30 4714 C 462.649 -1.35187 -3.1066 0
M  V30 4715 C 461.208 -1.12472 -3.59203 0
M  V30 4716 C 460.355 -1.45283 -2.36195 0
M  V30 4717 H 463.306 -1.19275 -1.04686 0
M  V30 4718 H 463.327 -0.746408 -3.73107 0
M  V30 4719 H 462.839 -2.4296 -3.02642 0
M  V30 4720 H 460.94 -0.0649983 -3.72543 0
M  V30 4721 H 461.053 -1.81016 -4.43588 0
M  V30 4722 H 459.417 -0.872034 -2.39307 0
M  V30 4723 H 460.2 -2.54129 -2.30811 0
M  V30 4724 N 462.645 1.35699 -0.801477 0
M  V30 4725 C 463.592 2.29876 -0.206294 0
M  V30 4726 C 464.562 1.52565 0.656752 0
M  V30 4727 O 465.747 1.81024 0.602906 0
M  V30 4728 C 462.887 3.39052 0.643272 0
M  V30 4729 C 462 4.31335 -0.239644 0
M  V30 4730 C 461.135 5.27599 0.61744 0
M  V30 4731 C 460.174 6.11521 -0.26619 0
M  V30 4732 N 459.311 6.99938 0.550571 0
M  V30 4733 H 464.151 2.80187 -1.01484 0
M  V30 4734 H 461.688 1.37902 -0.511997 0
M  V30 4735 H 463.646 4.0101 1.15094 0
M  V30 4736 H 462.276 2.9003 1.41713 0
M  V30 4737 H 461.328 3.70426 -0.865381 0
M  V30 4738 H 462.64 4.90243 -0.919985 0
M  V30 4739 H 461.794 5.94906 1.19045 0
M  V30 4740 H 460.533 4.69176 1.33137 0
M  V30 4741 H 459.538 5.43166 -0.851507 0
M  V30 4742 H 460.763 6.72022 -0.9779 0
M  V30 4743 H 458.709 6.44008 1.24856 0
M  V30 4744 H 458.626 7.55966 -0.071832 0
M  V30 4745 H 459.894 7.71599 1.10702 0
M  V30 4746 N 464.123 0.554532 1.47522 0
M  V30 4747 C 465.4 -0.0360704 1.95567 0
M  V30 4748 C 465.78 -1.48828 1.49711 0
M  V30 4749 O 465.128 -2.16366 0.734717 0
M  V30 4750 C 465.338 0.106631 3.48837 0
M  V30 4751 C 466.686 -0.0400899 4.24581 0
M  V30 4752 O 467.71 0.0340453 3.56184 0
M  V30 4753 O 466.569 -0.199111 5.46137 0
M  V30 4754 H 463.663 -0.0656294 0.824392 0
M  V30 4755 H 466.209 0.620867 1.57935 0
M  V30 4756 H 464.981 1.11727 3.7501 0
M  V30 4757 H 464.604 -0.58804 3.93227 0
M  V30 4758 N 465.601 -1.54893 0.290851 0
M  V30 4759 C 466.826 -2.04804 -0.32712 0
M  V30 4760 C 467.251 -1.16721 -1.47506 0
M  V30 4761 O 466.609 -0.169107 -1.8051 0
M  V30 4762 C 466.657 -3.52268 -0.770689 0
M  V30 4763 O 465.761 -3.67236 -1.87647 0
M  V30 4764 H 465.102 -0.660789 -0.0652227 0
M  V30 4765 H 467.632 -2.00036 0.429739 0
M  V30 4766 H 467.642 -3.9393 -1.06223 0
M  V30 4767 H 466.317 -4.15843 0.069096 0
M  V30 4768 H 464.894 -3.37479 -1.58626 0
M  V30 4769 N 467.08 -0.0183926 -1.57589 0
M  V30 4770 C 468.31 0.67207 -1.95363 0
M  V30 4771 C 468.718 1.66807 -0.892872 0
M  V30 4772 O 468.061 1.83204 0.134958 0
M  V30 4773 C 468.123 1.44397 -3.29226 0
M  V30 4774 C 467.787 0.607511 -4.52944 0
M  V30 4775 C 468.784 -0.112657 -5.19778 0
M  V30 4776 C 466.469 0.548068 -4.99301 0
M  V30 4777 C 468.463 -0.881057 -6.31281 0
M  V30 4778 C 466.15 -0.224044 -6.10689 0
M  V30 4779 C 467.148 -0.937323 -6.76538 0
M  V30 4780 O 466.836 -1.6968 -7.85789 0
M  V30 4781 H 466.568 0.190925 -0.648478 0
M  V30 4782 H 469.122 -0.0711994 -2.05277 0
M  V30 4783 H 467.352 2.23214 -3.15773 0
M  V30 4784 H 469.041 2.02152 -3.51979 0
M  V30 4785 H 469.807 -0.0759998 -4.8494 0
M  V30 4786 H 465.686 1.09281 -4.4786 0
M  V30 4787 H 469.23 -1.43832 -6.82611 0
M  V30 4788 H 465.127 -0.262457 -6.44966 0
M  V30 4789 H 465.895 -1.61544 -8.024 0
M  V30 4790 N 468.558 1.5553 0.254621 0
M  V30 4791 C 469.505 1.89666 1.31512 0
M  V30 4792 C 470.475 0.750057 1.482 0
M  V30 4793 O 471.66 1.00301 1.62309 0
M  V30 4794 C 468.8 2.19009 2.667 0
M  V30 4795 C 467.913 3.46435 2.58083 0
M  V30 4796 C 467.048 3.65386 3.85573 0
M  V30 4797 C 466.087 4.8644 3.71541 0
M  V30 4798 N 465.224 5.01952 4.90906 0
M  V30 4799 H 470.064 2.80109 1.017 0
M  V30 4800 H 467.601 1.38666 0.490938 0
M  V30 4801 H 469.559 2.34025 3.45381 0
M  V30 4802 H 468.189 1.31779 2.94676 0
M  V30 4803 H 467.241 3.39792 1.71013 0
M  V30 4804 H 468.553 4.35258 2.43622 0
M  V30 4805 H 467.707 3.80319 4.72697 0
M  V30 4806 H 466.446 2.74781 4.02922 0
M  V30 4807 H 465.451 4.71491 2.82801 0
M  V30 4808 H 466.676 5.78497 3.55694 0
M  V30 4809 H 464.622 4.14283 5.08631 0
M  V30 4810 H 464.539 5.84851 4.79046 0
M  V30 4811 H 465.807 5.21289 5.7955 0
M  V30 4812 N 470.036 -0.519951 1.48776 0
M  V30 4813 C 471.313 -1.28123 1.47797 0
M  V30 4814 C 471.693 -2.10196 0.195157 0
M  V30 4815 O 471.041 -2.13167 -0.822925 0
M  V30 4816 C 471.251 -2.15413 2.74587 0
M  V30 4817 C 472.599 -2.75225 3.23321 0
M  V30 4818 O 473.623 -2.25694 2.75574 0
M  V30 4819 O 472.482 -3.65346 4.06429 0
M  V30 4820 H 469.576 -0.578793 0.590701 0
M  V30 4821 H 472.122 -0.535779 1.6102 0
M  V30 4822 H 470.894 -1.54617 3.59457 0
M  V30 4823 H 470.517 -2.97186 2.64132 0
M  V30 4824 N 471.514 -1.37532 -0.769588 0
M  V30 4825 C 472.93 -1.18379 -1.07045 0
M  V30 4826 C 473.13 -0.0214312 -2.01489 0
M  V30 4827 O 472.186 0.637809 -2.44312 0
M  V30 4828 C 473.499 -2.50338 -1.66588 0
M  V30 4829 C 475.047 -2.56879 -1.78835 0
M  V30 4830 C 475.522 -3.88974 -2.41792 0
M  V30 4831 N 477.013 -3.90428 -2.4924 0
M  V30 4832 C 477.748 -4.89388 -2.98809 0
M  V30 4833 N 477.244 -5.98745 -3.48535 0
M  V30 4834 N 479.037 -4.76791 -2.97703 0
M  V30 4835 H 471.188 -2.11921 -0.142541 0
M  V30 4836 H 473.451 -0.939608 -0.125863 0
M  V30 4837 H 473.157 -3.35767 -1.0466 0
M  V30 4838 H 473.031 -2.67583 -2.65856 0
M  V30 4839 H 475.418 -1.71856 -2.39895 0
M  V30 4840 H 475.499 -2.43516 -0.783166 0
M  V30 4841 H 475.143 -4.74412 -1.81371 0
M  V30 4842 H 475.073 -3.99641 -3.4292 0
M  V30 4843 H 477.564 -3.11433 -2.14052 0
M  V30 4844 H 477.877 -6.70205 -3.84767 0
M  V30 4845 H 476.222 -6.02387 -3.46634 0
M  V30 4846 H 479.413 -3.90478 -2.58157 0
M  V30 4847 H 479.586 -5.54069 -3.36024 0
M  V30 4848 N 472.992 0.995999 -1.22138 0
M  V30 4849 C 474.238 1.73767 -1.04561 0
M  V30 4850 C 474.571 1.89633 0.418698 0
M  V30 4851 O 473.846 1.43723 1.3105 0
M  V30 4852 C 474.129 3.14505 -1.75382 0
M  V30 4853 C 473.982 3.06306 -3.29388 0
M  V30 4854 C 475.301 4.13615 -1.50369 0
M  V30 4855 H 472.42 0.630728 -0.38125 0
M  V30 4856 H 475.062 1.16057 -1.50435 0
M  V30 4857 H 473.212 3.63775 -1.36383 0
M  V30 4858 H 474.884 2.64681 -3.77812 0
M  V30 4859 H 473.127 2.43186 -3.59226 0
M  V30 4860 H 473.798 4.05884 -3.74116 0
M  V30 4861 H 476.274 3.73089 -1.84239 0
M  V30 4862 H 475.15 5.10212 -2.02421 0
M  V30 4863 H 475.411 4.39949 -0.435611 0
M  V30 4864 N 474.47 1.03057 1.19235 0
M  V30 4865 C 475.7 0.746613 1.92638 0
M  V30 4866 C 476.108 -0.698708 1.75826 0
M  V30 4867 O 475.451 -1.487 1.07861 0
M  V30 4868 C 475.513 1.02024 3.44719 0
M  V30 4869 C 475.177 2.45745 3.85303 0
M  V30 4870 C 476.174 3.43887 3.8992 0
M  V30 4871 C 473.859 2.8019 4.16892 0
M  V30 4872 C 475.853 4.74529 4.2556 0
M  V30 4873 C 473.54 4.1104 4.52205 0
M  V30 4874 C 474.538 5.0802 4.56513 0
M  V30 4875 O 474.226 6.36527 4.91008 0
M  V30 4876 H 473.958 0.272401 0.618687 0
M  V30 4877 H 476.512 1.37853 1.52269 0
M  V30 4878 H 474.742 0.331184 3.85279 0
M  V30 4879 H 476.431 0.725677 3.9936 0
M  V30 4880 H 477.197 3.18614 3.65664 0
M  V30 4881 H 473.076 2.05382 4.12722 0
M  V30 4882 H 476.62 5.50222 4.28838 0
M  V30 4883 H 472.517 4.36086 4.7592 0
M  V30 4884 H 473.285 6.41025 5.08949 0
M  V30 4885 N 475.948 -1.35272 0.808662 0
M  V30 4886 C 477.176 -2.02946 0.402537 0
M  V30 4887 C 477.591 -1.60937 -0.987147 0
M  V30 4888 O 476.948 -0.807917 -1.63643 0
M  V30 4889 C 476.999 -3.58317 0.47868 0
M  V30 4890 O 476.72 -3.98799 1.81358 0
M  V30 4891 C 478.221 -4.43251 0.0656281 0
M  V30 4892 H 475.441 -0.650831 0.163279 0
M  V30 4893 H 477.985 -1.72849 1.09286 0
M  V30 4894 H 476.14 -3.87055 -0.163415 0
M  V30 4895 H 476.554 -4.93451 1.77781 0
M  V30 4896 H 478.028 -5.51738 0.170017 0
M  V30 4897 H 478.505 -4.27913 -0.989278 0
M  V30 4898 H 479.111 -4.19813 0.68096 0
M  V30 4899 N 477.426 -0.562348 -1.47226 0
M  V30 4900 C 478.654 -0.0452275 -2.06851 0
M  V30 4901 C 479.069 1.25078 -1.41424 0
M  V30 4902 O 478.426 1.75156 -0.512513 0
M  V30 4903 C 478.477 0.148674 -3.61194 0
M  V30 4904 O 478.198 -1.09602 -4.24169 0
M  V30 4905 C 479.699 0.702488 -4.37699 0
M  V30 4906 H 476.919 -0.0481775 -0.669268 0
M  V30 4907 H 479.463 -0.777223 -1.89155 0
M  V30 4908 H 477.618 0.830817 -3.78386 0
M  V30 4909 H 478.032 -0.896982 -5.16773 0
M  V30 4910 H 479.506 0.78743 -5.46355 0
M  V30 4911 H 479.983 1.71493 -4.04335 0
M  V30 4912 H 480.589 0.0558772 -4.25263 0
M  V30 4913 N 478.904 1.54736 -0.299062 0
M  V30 4914 C 480.152 1.99706 0.31017 0
M  V30 4915 C 480.473 1.18896 1.54559 0
M  V30 4916 O 479.743 0.284445 1.93824 0
M  V30 4917 H 478.323 0.737686 0.117596 0
M  V30 4918 H 480.985 1.9054 -0.409943 0
M  V30 4919 H 480.081 3.06596 0.58355 0
M  V30 4920 N 480.382 0.0267497 1.57577 0
M  V30 4921 C 481.631 -0.651736 1.9088 0
M  V30 4922 C 481.944 -1.73427 0.904576 0
M  V30 4923 O 483.15 -2.46923 1.12877 0
M  V30 4924 C 481.606 -1.21048 3.38933 0
M  V30 4925 C 481.214 -0.161362 4.47709 0
M  V30 4926 C 482.958 -1.86562 3.81307 0
M  V30 4927 C 480.865 -0.731611 5.86857 0
M  V30 4928 H 479.795 -0.247198 0.712326 0
M  V30 4929 H 482.446 0.0916641 1.83271 0
M  V30 4930 H 480.828 -2.00542 3.41466 0
M  V30 4931 H 482.002 0.61094 4.56732 0
M  V30 4932 H 480.317 0.394877 4.14523 0
M  V30 4933 H 482.914 -2.30178 4.8262 0
M  V30 4934 H 483.257 -2.70735 3.16241 0
M  V30 4935 H 483.79 -1.13762 3.81186 0
M  V30 4936 H 480.529 0.0719329 6.55461 0
M  V30 4937 H 480.049 -1.47245 5.81445 0
M  V30 4938 H 481.728 -1.22208 6.35354 0
M  V30 4939 N 481.861 -1.55662 -0.24637 0
M  V30 4940 C 483.107 -1.77782 -0.975779 0
M  V30 4941 C 483.44 -0.592103 -1.84953 0
M  V30 4942 O 482.715 0.409588 -1.90138 0
M  V30 4943 C 482.998 -3.09788 -1.83584 0
M  V30 4944 C 482.851 -4.38764 -0.990241 0
M  V30 4945 C 484.17 -3.38029 -2.81823 0
M  V30 4946 H 481.289 -0.646789 -0.353317 0
M  V30 4947 H 483.931 -1.88398 -0.246248 0
M  V30 4948 H 482.081 -3.00869 -2.45784 0
M  V30 4949 H 483.753 -4.59675 -0.386897 0
M  V30 4950 H 481.996 -4.32798 -0.294626 0
M  V30 4951 H 482.667 -5.27514 -1.62584 0
M  V30 4952 H 485.143 -3.46915 -2.2976 0
M  V30 4953 H 484.019 -4.3161 -3.39122 0
M  V30 4954 H 484.28 -2.58968 -3.58313 0
M  V30 4955 N 483.339 0.512053 -1.4905 0
M  V30 4956 C 484.587 1.26436 -1.57665 0
M  V30 4957 C 484.908 1.93255 -0.260293 0
M  V30 4958 O 484.178 1.82206 0.719564 0
M  V30 4959 H 482.758 0.469658 -0.580888 0
M  V30 4960 H 485.42 0.594398 -1.85615 0
M  V30 4961 H 484.516 2.03417 -2.36702 0
M  V30 4962 N 484.817 1.37938 0.762283 0
M  V30 4963 C 486.064 1.33668 1.52115 0
M  V30 4964 C 486.392 -0.0759538 1.94352 0
M  V30 4965 O 485.647 -1.05121 1.6507 0
M  V30 4966 C 485.946 2.23042 2.79261 0
M  V30 4967 C 485.612 3.71159 2.56031 0
M  V30 4968 C 484.274 4.11523 2.49404 0
M  V30 4969 C 486.626 4.64955 2.35513 0
M  V30 4970 C 483.954 5.43784 2.20263 0
M  V30 4971 C 486.306 5.97464 2.07894 0
M  V30 4972 C 484.97 6.36922 1.99718 0
M  V30 4973 H 484.24 0.489127 0.556629 0
M  V30 4974 H 486.887 1.70224 0.877262 0
M  V30 4975 H 485.192 1.79512 3.48256 0
M  V30 4976 H 486.889 2.17047 3.37182 0
M  V30 4977 H 483.479 3.39153 2.62056 0
M  V30 4978 H 487.663 4.34623 2.39617 0
M  V30 4979 H 482.919 5.73307 2.12435 0
M  V30 4980 H 487.093 6.6969 1.91019 0
M  V30 4981 H 484.72 7.39331 1.76902 0
M  V30 4982 N 486.295 -0.989507 1.22664 0
M  V30 4983 C 487.523 -1.76496 1.07967 0
M  V30 4984 C 487.938 -1.85148 -0.369543 0
M  V30 4985 O 487.295 -1.32408 -1.25596 0
M  V30 4986 C 487.346 -3.19642 1.68853 0
M  V30 4987 O 487.067 -3.11453 3.08105 0
M  V30 4988 C 488.568 -4.13621 1.59475 0
M  V30 4989 H 485.788 -0.55418 0.378319 0
M  V30 4990 H 488.332 -1.24378 1.62328 0
M  V30 4991 H 486.487 -3.68816 1.18547 0
M  V30 4992 H 486.901 -4.01499 3.37489 0
M  V30 4993 H 488.375 -5.11801 2.06795 0
M  V30 4994 H 488.852 -4.35718 0.55191 0
M  V30 4995 H 489.458 -3.70346 2.09103 0
M  V30 4996 N 487.773 -1.03688 -1.18687 0
M  V30 4997 C 489.021 -0.736572 -1.88199 0
M  V30 4998 C 489.342 0.737665 -1.80509 0
M  V30 4999 O 488.612 1.53204 -1.22088 0
M  V30 5000 H 487.192 -0.269466 -0.696704 0
M  V30 5001 H 489.854 -1.31282 -1.44052 0
M  V30 5002 H 488.95 -1.03802 -2.94332 0
M  V30 5003 N 489.251 1.34841 -0.815825 0
M  V30 5004 C 490.491 2.00321 -0.406297 0
M  V30 5005 C 490.855 1.63293 1.00992 0
M  V30 5006 O 492.056 2.21563 1.52195 0
M  V30 5007 C 490.327 3.52421 -0.594469 0
M  V30 5008 S 491.886 4.37926 -0.276735 0
M  V30 5009 H 488.704 0.694155 -0.153848 0
M  V30 5010 H 491.306 1.64263 -1.06009 0
M  V30 5011 H 490.01 3.76858 -1.625 0
M  V30 5012 H 489.541 3.9333 0.0743157 0
M  V30 5013 H 491.556 4.87743 0.912215 0
M  V30 5014 N 490.729 0.570148 1.46925 0
M  V30 5015 C 491.676 -0.170257 2.30171 0
M  V30 5016 C 492.646 -0.896099 1.39855 0
M  V30 5017 O 493.831 -0.889248 1.68811 0
M  V30 5018 C 490.971 -1.18605 3.24079 0
M  V30 5019 C 490.084 -0.464947 4.29491 0
M  V30 5020 C 489.219 -1.46716 5.10537 0
M  V30 5021 C 488.258 -0.731758 6.0771 0
M  V30 5022 N 487.395 -1.68142 6.81669 0
M  V30 5023 H 492.235 0.545713 2.92961 0
M  V30 5024 H 489.772 0.280938 1.44392 0
M  V30 5025 H 491.73 -1.78771 3.76957 0
M  V30 5026 H 490.36 -1.86989 2.63125 0
M  V30 5027 H 489.412 0.251506 3.79568 0
M  V30 5028 H 490.724 0.110548 4.98677 0
M  V30 5029 H 489.878 -2.14199 5.6763 0
M  V30 5030 H 488.617 -2.07658 4.41282 0
M  V30 5031 H 487.622 -0.0430787 5.49783 0
M  V30 5032 H 488.847 -0.127904 6.7898 0
M  V30 5033 H 486.793 -2.27918 6.15134 0
M  V30 5034 H 486.71 -1.15841 7.47072 0
M  V30 5035 H 487.978 -2.347 7.43328 0
M  V30 5036 N 492.207 -1.54576 0.307264 0
M  V30 5037 C 493.157 -2.20467 -0.581249 0
M  V30 5038 C 494.141 -1.17972 -1.09414 0
M  V30 5039 O 495.333 -1.43667 -1.03387 0
M  V30 5040 C 492.462 -2.95369 -1.74963 0
M  V30 5041 C 491.548 -4.05186 -1.25241 0
M  V30 5042 N 491.939 -5.03577 -0.47364 0
M  V30 5043 C 490.237 -4.18841 -1.53259 0
M  V30 5044 C 490.938 -5.81328 -0.208083 0
M  V30 5045 N 489.914 -5.37834 -0.789651 0
M  V30 5046 H 493.716 -2.93892 0.0212221 0
M  V30 5047 H 491.23 -1.62011 0.112325 0
M  V30 5048 H 493.227 -3.41046 -2.39777 0
M  V30 5049 H 491.887 -2.23461 -2.35574 0
M  V30 5050 H 492.898 -5.17766 -0.117963 0
M  V30 5051 H 489.575 -3.58141 -2.14573 0
M  V30 5052 H 490.965 -6.706 0.417793 0
M  V30 5053 N 493.685 -0.035106 -1.57561 0
M  V30 5054 C 494.934 0.641604 -1.91223 0
M  V30 5055 C 495.247 1.72944 -0.913761 0
M  V30 5056 O 496.453 2.46321 -1.14185 0
M  V30 5057 C 494.909 1.19249 -3.3957 0
M  V30 5058 C 494.517 0.137616 -4.47789 0
M  V30 5059 C 496.261 1.84537 -3.82291 0
M  V30 5060 C 494.168 0.700478 -5.87237 0
M  V30 5061 H 493.098 0.243417 -0.713627 0
M  V30 5062 H 495.749 -0.101382 -1.8322 0
M  V30 5063 H 494.131 1.98728 -3.42525 0
M  V30 5064 H 495.305 -0.635153 -4.56402 0
M  V30 5065 H 493.62 -0.416855 -4.14308 0
M  V30 5066 H 496.217 2.27616 -4.83834 0
M  V30 5067 H 496.56 2.69054 -3.17672 0
M  V30 5068 H 497.093 1.11739 -3.81784 0
M  V30 5069 H 493.832 -0.106693 -6.55413 0
M  V30 5070 H 493.352 1.4416 -5.82218 0
M  V30 5071 H 495.031 1.18837 -6.35993 0
M  V30 5072 N 495.163 1.55791 0.238111 0
M  V30 5073 C 496.574 1.68383 0.806472 0
M  V30 5074 C 496.925 0.634157 1.85669 0
M  V30 5075 O 496.05 -0.217913 2.153 0
M  V30 5076 C 496.645 3.05268 1.46959 0
M  V30 5077 C 495.204 3.1977 1.98555 0
M  V30 5078 C 494.351 2.64279 0.839763 0
M  V30 5079 H 497.302 1.58694 0.0137535 0
M  V30 5080 H 497.323 3.00203 2.33792 0
M  V30 5081 H 496.835 3.81643 0.704993 0
M  V30 5082 H 494.936 2.48234 2.77868 0
M  V30 5083 H 495.049 4.26788 2.17689 0
M  V30 5084 H 493.413 2.22329 1.24265 0
M  V30 5085 H 494.196 3.43187 0.0881032 0
M  V30 5086 N 496.642 -0.504142 1.49319 0
M  V30 5087 C 497.89 -1.25598 1.58334 0
M  V30 5088 C 498.211 -1.93114 0.270538 0
M  V30 5089 O 497.481 -1.82585 -0.709891 0
M  V30 5090 H 496.061 -0.466571 0.58337 0
M  V30 5091 H 498.723 -0.584547 1.85928 0
M  V30 5092 H 497.819 -2.02159 2.37778 0
M  V30 5093 N 498.12 -1.38341 -0.754957 0
M  V30 5094 C 499.03 -1.3769 -1.89944 0
M  V30 5095 C 500.046 -0.274194 -1.71826 0
M  V30 5096 O 501.222 -0.512391 -1.94773 0
M  V30 5097 C 498.287 -1.19938 -3.25293 0
M  V30 5098 C 497.348 -2.40001 -3.55946 0
M  V30 5099 C 496.581 -2.23087 -4.84838 0
M  V30 5100 O 496.804 -1.22386 -5.57116 0
M  V30 5101 O 495.738 -3.11646 -5.14937 0
M  V30 5102 H 499.564 -2.3412 -1.93446 0
M  V30 5103 H 497.149 -1.19246 -0.900044 0
M  V30 5104 H 499.031 -1.12093 -4.06218 0
M  V30 5105 H 497.706 -0.265919 -3.22606 0
M  V30 5106 H 496.613 -2.53421 -2.75188 0
M  V30 5107 H 497.946 -3.31973 -3.63394 0
M  V30 5108 N 499.598 0.982988 -1.23187 0
M  V30 5109 C 500.847 1.71817 -1.05649 0
M  V30 5110 C 501.16 1.91315 0.407176 0
M  V30 5111 O 502.366 2.62256 0.702436 0
M  V30 5112 C 500.822 3.09188 -1.84203 0
M  V30 5113 C 500.43 2.97586 -3.34882 0
M  V30 5114 C 502.174 3.86684 -1.75146 0
M  V30 5115 C 500.081 4.30173 -4.05839 0
M  V30 5116 H 499.011 0.644258 -0.391724 0
M  V30 5117 H 501.662 1.09659 -1.4713 0
M  V30 5118 H 500.044 3.72087 -1.35527 0
M  V30 5119 H 501.218 2.43793 -3.91026 0
M  V30 5120 H 499.533 2.33567 -3.44725 0
M  V30 5121 H 502.13 4.84836 -2.25473 0
M  V30 5122 H 502.473 4.10136 -0.713737 0
M  V30 5123 H 503.006 3.30482 -2.21419 0
M  V30 5124 H 499.745 4.11918 -5.09906 0
M  V30 5125 H 499.265 4.83841 -3.54482 0
M  V30 5126 H 500.944 4.98873 -4.11989 0
M  V30 5127 N 501.076 1.04316 1.18135 0
M  V30 5128 C 502.324 0.746542 1.87806 0
M  V30 5129 C 502.645 -0.728082 1.80898 0
M  V30 5130 O 501.915 -1.52554 1.22899 0
M  V30 5131 H 500.495 0.273157 0.695265 0
M  V30 5132 H 503.157 1.32044 1.43354 0
M  V30 5133 H 502.253 1.05362 2.93778 0
M  V30 5134 N 502.554 -1.34406 0.822964 0
M  V30 5135 C 503.464 -2.33298 0.246838 0
M  V30 5136 C 504.48 -1.62625 -0.618797 0
M  V30 5137 O 505.656 -1.94391 -0.526685 0
M  V30 5138 C 502.721 -3.41785 -0.581731 0
M  V30 5139 C 501.782 -4.28206 0.306309 0
M  V30 5140 C 501.015 -5.31512 -0.48281 0
M  V30 5141 O 501.238 -5.43973 -1.71607 0
M  V30 5142 O 500.172 -6.01749 0.134884 0
M  V30 5143 H 503.998 -2.84401 1.06534 0
M  V30 5144 H 501.583 -1.37466 0.585108 0
M  V30 5145 H 503.465 -4.08028 -1.05313 0
M  V30 5146 H 502.14 -2.92925 -1.37756 0
M  V30 5147 H 501.047 -3.64885 0.825199 0
M  V30 5148 H 502.38 -4.80507 1.06649 0
M  V30 5149 N 504.032 -0.577932 -1.46621 0
M  V30 5150 C 504.982 0.178869 -2.27297 0
M  V30 5151 C 505.966 0.866279 -1.35589 0
M  V30 5152 O 507.158 0.761163 -1.59798 0
M  V30 5153 C 504.287 1.19499 -3.2183 0
M  V30 5154 C 503.373 0.50994 -4.21023 0
M  V30 5155 N 503.764 -0.43177 -5.03954 0
M  V30 5156 C 502.062 0.761287 -4.39455 0
M  V30 5157 C 502.763 -0.831693 -5.75724 0
M  V30 5158 N 501.739 -0.181897 -5.43296 0
M  V30 5159 H 505.541 -0.544859 -2.88805 0
M  V30 5160 H 503.055 -0.399373 -1.57413 0
M  V30 5161 H 505.052 1.75131 -3.78332 0
M  V30 5162 H 503.712 1.91959 -2.61881 0
M  V30 5163 H 504.723 -0.807045 -5.11573 0
M  V30 5164 H 501.4 1.47282 -3.90659 0
M  V30 5165 H 502.79 -1.6067 -6.52407 0
M  V30 5166 N 505.51 1.54411 -0.315457 0
M  V30 5167 C 506.457 2.24048 0.554166 0
M  V30 5168 C 507.427 1.2283 1.11812 0
M  V30 5169 O 508.612 1.51491 1.15997 0
M  V30 5170 C 505.752 2.99574 1.71316 0
M  V30 5171 C 504.865 4.15594 1.17922 0
M  V30 5172 C 504 4.78669 2.30324 0
M  V30 5173 C 503.039 5.86807 1.74137 0
M  V30 5174 N 502.176 6.43777 2.8017 0
M  V30 5175 H 507.016 2.97964 -0.0462602 0
M  V30 5176 H 504.553 1.47059 -0.0346009 0
M  V30 5177 H 506.511 3.41604 2.39505 0
M  V30 5178 H 505.141 2.28008 2.285 0
M  V30 5179 H 504.193 3.78404 0.389136 0
M  V30 5180 H 505.505 4.93459 0.728012 0
M  V30 5181 H 504.659 5.23626 3.06433 0
M  V30 5182 H 503.398 4.00168 2.78778 0
M  V30 5183 H 502.403 5.41261 0.965236 0
M  V30 5184 H 503.628 6.67201 1.2657 0
M  V30 5185 H 501.574 5.68153 3.2793 0
M  V30 5186 H 501.491 7.17031 2.39588 0
M  V30 5187 H 502.759 6.9339 3.56132 0
M  V30 5188 N 506.988 0.0434614 1.5754 0
M  V30 5189 C 508.265 -0.671479 1.83713 0
M  V30 5190 C 508.645 -1.89495 0.930315 0
M  V30 5191 O 507.993 -2.28498 -0.0105639 0
M  V30 5192 C 508.203 -1.0361 3.33266 0
M  V30 5193 C 509.551 -1.42167 4.00092 0
M  V30 5194 O 510.575 -1.12866 3.37846 0
M  V30 5195 O 509.434 -1.96817 5.09829 0
M  V30 5196 H 506.528 -0.330726 0.75799 0
M  V30 5197 H 509.074 0.0722373 1.69546 0
M  V30 5198 H 507.846 -0.165938 3.90948 0
M  V30 5199 H 507.469 -1.83751 3.52592 0
M  V30 5200 N 508.466 -1.55915 -0.229846 0
M  V30 5201 C 509.713 -1.78542 -0.955452 0
M  V30 5202 C 510.041 -0.610785 -1.84661 0
M  V30 5203 O 509.296 0.405213 -1.91459 0
M  V30 5204 C 509.595 -3.06845 -1.8325 0
M  V30 5205 C 509.261 -4.37395 -1.09528 0
M  V30 5206 C 507.923 -4.72868 -0.891598 0
M  V30 5207 C 510.275 -5.18029 -0.574046 0
M  V30 5208 C 507.603 -5.86496 -0.154655 0
M  V30 5209 C 509.955 -6.32423 0.149513 0
M  V30 5210 C 508.619 -6.66504 0.364519 0
M  V30 5211 H 507.889 -0.653333 -0.349625 0
M  V30 5212 H 510.536 -1.90183 -0.224235 0
M  V30 5213 H 508.841 -2.90291 -2.63132 0
M  V30 5214 H 510.538 -3.21553 -2.39592 0
M  V30 5215 H 507.128 -4.09538 -1.26399 0
M  V30 5216 H 511.312 -4.91066 -0.718899 0
M  V30 5217 H 506.568 -6.11396 0.0222356 0
M  V30 5218 H 510.742 -6.94137 0.560947 0
M  V30 5219 H 508.369 -7.54397 0.937495 0
M  V30 5220 N 509.944 0.496216 -1.49584 0
M  V30 5221 C 511.169 1.27865 -1.63295 0
M  V30 5222 C 511.594 1.85592 -0.306156 0
M  V30 5223 O 510.952 1.66092 0.726851 0
M  V30 5224 C 511 2.38128 -2.7079 0
M  V30 5225 O 510.104 3.42108 -2.30296 0
M  V30 5226 H 509.445 0.377279 -0.546403 0
M  V30 5227 H 511.975 0.593497 -1.95803 0
M  V30 5228 H 511.985 2.8382 -2.93104 0
M  V30 5229 H 510.66 1.95479 -3.67098 0
M  V30 5230 H 509.237 3.02301 -2.18331 0
M  V30 5231 N 511.423 1.38739 0.74761 0
M  V30 5232 C 512.386 1.36241 1.84312 0
M  V30 5233 C 513.386 0.261811 1.58654 0
M  V30 5234 O 514.576 0.519031 1.66288 0
M  V30 5235 C 511.708 1.12253 3.21888 0
M  V30 5236 H 512.901 2.33712 1.87933 0
M  V30 5237 H 510.454 1.2412 0.949946 0
M  V30 5238 H 511.189 0.154133 3.23934 0
M  V30 5239 H 510.974 1.91943 3.41907 0
M  V30 5240 H 512.464 1.13215 4.0196 0
M  V30 5241 N 512.901 -0.976442 1.23707 0
M  V30 5242 C 514.15 -1.71254 1.06559 0
M  V30 5243 C 514.463 -1.91528 -0.397024 0
M  V30 5244 O 515.669 -2.62625 -0.688518 0
M  V30 5245 C 514.125 -3.08207 1.8584 0
M  V30 5246 C 513.733 -2.95806 3.36456 0
M  V30 5247 C 515.477 -3.85749 1.77194 0
M  V30 5248 C 513.384 -4.28015 4.08114 0
M  V30 5249 H 512.314 -0.642171 0.395136 0
M  V30 5250 H 514.965 -1.08877 1.4771 0
M  V30 5251 H 513.347 -3.71363 1.37498 0
M  V30 5252 H 514.521 -2.41716 3.92314 0
M  V30 5253 H 512.836 -2.31736 3.45959 0
M  V30 5254 H 515.433 -4.83633 2.28041 0
M  V30 5255 H 515.776 -4.09752 0.735477 0
M  V30 5256 H 516.309 -3.29303 2.23169 0
M  V30 5257 H 513.048 -4.09208 5.12083 0
M  V30 5258 H 512.568 -4.81955 3.57043 0
M  V30 5259 H 514.247 -4.96681 4.14629 0
M  V30 5260 N 514.379 -1.04941 -1.1758 0
M  V30 5261 C 515.628 -0.753124 -1.87112 0
M  V30 5262 C 515.941 0.722507 -1.81767 0
M  V30 5263 O 517.147 1.13265 -2.46746 0
M  V30 5264 C 515.603 -1.29695 -3.35719 0
M  V30 5265 C 515.211 -2.80184 -3.49572 0
M  V30 5266 C 516.955 -1.07759 -4.10595 0
M  V30 5267 C 514.862 -3.2788 -4.92187 0
M  V30 5268 H 513.792 -0.278034 -0.700866 0
M  V30 5269 H 516.443 -1.26637 -1.32798 0
M  V30 5270 H 514.825 -0.711522 -3.89555 0
M  V30 5271 H 515.999 -3.44561 -3.05965 0
M  V30 5272 H 514.314 -3.00632 -2.88113 0
M  V30 5273 H 516.911 -1.40899 -5.15802 0
M  V30 5274 H 517.254 -0.0152302 -4.16297 0
M  V30 5275 H 517.787 -1.62809 -3.62957 0
M  V30 5276 H 514.526 -4.33535 -4.91658 0
M  V30 5277 H 514.046 -2.68245 -5.36475 0
M  V30 5278 H 515.725 -3.22412 -5.60945 0
M  V30 5279 N 515.857 1.33968 -0.830081 0
M  V30 5280 C 516.82 2.27694 -0.26235 0
M  V30 5281 C 517.82 1.50589 0.563876 0
M  V30 5282 O 519.01 1.70028 0.378941 0
M  V30 5283 C 516.142 3.35002 0.63138 0
M  V30 5284 H 517.335 2.79419 -1.08928 0
M  V30 5285 H 514.888 1.44221 -0.602486 0
M  V30 5286 H 515.623 2.88504 1.48109 0
M  V30 5287 H 515.408 3.92079 0.0403276 0
M  V30 5288 H 516.898 4.04897 1.02217 0
M  V30 5289 N 517.335 0.585699 1.46312 0
M  V30 5290 C 518.285 -0.166813 2.27389 0
M  V30 5291 C 519.269 -0.859076 1.36047 0
M  V30 5292 O 520.461 -0.752678 1.60199 0
M  V30 5293 C 517.59 -1.17791 3.2246 0
M  V30 5294 C 516.676 -0.487605 4.21288 0
M  V30 5295 N 517.067 0.45849 5.03718 0
M  V30 5296 C 515.365 -0.737971 4.39852 0
M  V30 5297 C 516.066 0.862213 5.75275 0
M  V30 5298 N 515.042 0.210707 5.43191 0
M  V30 5299 H 518.844 0.560167 2.88512 0
M  V30 5300 H 516.358 0.407715 1.57199 0
M  V30 5301 H 518.355 -1.73122 3.79255 0
M  V30 5302 H 517.015 -1.90568 2.62896 0
M  V30 5303 H 518.026 0.834163 5.11138 0
M  V30 5304 H 514.703 -1.45209 3.91434 0
M  V30 5305 H 516.093 1.64128 6.51546 0
M  V30 5306 N 518.813 -1.54241 0.323641 0
M  V30 5307 C 519.776 -2.22997 -0.529602 0
M  V30 5308 C 520.776 -1.22345 -1.04347 0
M  V30 5309 O 521.966 -1.46924 -0.935889 0
M  V30 5310 C 519.098 -2.93409 -1.73562 0
M  V30 5311 H 520.291 -2.99815 0.0714518 0
M  V30 5312 H 517.844 -1.56121 0.0747258 0
M  V30 5313 H 518.579 -2.20729 -2.37591 0
M  V30 5314 H 518.364 -3.67217 -1.37456 0
M  V30 5315 H 519.854 -3.45794 -2.34128 0
M  V30 5316 N 520.291 -0.0518155 -1.57515 0
M  V30 5317 C 521.238 0.922352 -2.11569 0
M  V30 5318 C 522.208 1.30842 -1.02321 0
M  V30 5319 O 523.393 1.39778 -1.29872 0
M  V30 5320 C 520.533 2.19167 -2.6657 0
M  V30 5321 C 519.646 1.86003 -3.89906 0
M  V30 5322 C 518.781 3.07398 -4.33221 0
M  V30 5323 C 517.82 2.70158 -5.49255 0
M  V30 5324 N 516.957 3.84248 -5.8762 0
M  V30 5325 H 521.797 0.454506 -2.94514 0
M  V30 5326 H 519.334 0.212718 -1.45554 0
M  V30 5327 H 521.292 2.93443 -2.96559 0
M  V30 5328 H 519.922 2.63528 -1.86421 0
M  V30 5329 H 518.974 1.01874 -3.66505 0
M  V30 5330 H 520.286 1.54592 -4.74239 0
M  V30 5331 H 519.44 3.89972 -4.64765 0
M  V30 5332 H 518.179 3.41988 -3.477 0
M  V30 5333 H 517.184 1.86001 -5.17382 0
M  V30 5334 H 518.409 2.36759 -6.36492 0
M  V30 5335 H 516.355 4.18638 -5.05053 0
M  V30 5336 H 516.272 3.56538 -6.66646 0
M  V30 5337 H 517.54 4.6746 -6.2378 0
M  V30 5338 N 521.769 1.56035 0.221574 0
M  V30 5339 C 522.997 1.8313 0.962864 0
M  V30 5340 C 523.412 0.630934 1.77946 0
M  V30 5341 O 522.769 -0.400519 1.78051 0
M  V30 5342 C 522.82 3.08742 1.88045 0
M  V30 5343 O 522.541 4.24147 1.09686 0
M  V30 5344 C 524.042 3.48824 2.73563 0
M  V30 5345 H 521.262 0.608775 0.282194 0
M  V30 5346 H 523.806 2.03124 0.23681 0
M  V30 5347 H 521.961 2.90723 2.56045 0
M  V30 5348 H 522.375 4.95505 1.71974 0
M  V30 5349 H 523.849 4.39752 3.3365 0
M  V30 5350 H 524.326 2.70575 3.45956 0
M  V30 5351 H 524.932 3.69282 2.10976 0
M  V30 5352 N 523.247 -0.488276 1.49845 0
M  V30 5353 C 524.487 -1.2516 1.61599 0
M  V30 5354 C 524.851 -1.89615 0.301706 0
M  V30 5355 O 526.052 -2.67182 0.29453 0
M  V30 5356 C 524.323 -2.2805 2.75187 0
M  V30 5357 S 525.882 -3.13552 3.0697 0
M  V30 5358 H 522.7 -0.425178 0.569864 0
M  V30 5359 H 525.302 -0.551545 1.87559 0
M  V30 5360 H 524.006 -1.7925 3.69185 0
M  V30 5361 H 523.537 -3.02708 2.5126 0
M  V30 5362 H 525.552 -4.28927 2.49471 0
M  V30 5363 N 524.725 -1.39134 -0.740242 0
M  V30 5364 C 526.136 -1.32208 -1.31825 0
M  V30 5365 C 526.487 0.0159919 -1.96193 0
M  V30 5366 O 525.612 0.918111 -1.95958 0
M  V30 5367 C 526.207 -2.39436 -2.39699 0
M  V30 5368 C 524.766 -2.36048 -2.93187 0
M  V30 5369 C 523.913 -2.21599 -1.66701 0
M  V30 5370 H 526.864 -1.49298 -0.538133 0
M  V30 5371 H 526.885 -2.05922 -3.19963 0
M  V30 5372 H 526.397 -3.36811 -1.92821 0
M  V30 5373 H 524.498 -1.42295 -3.44359 0
M  V30 5374 H 524.611 -3.30704 -3.46658 0
M  V30 5375 H 522.975 -1.68681 -1.90837 0
M  V30 5376 H 523.758 -3.20936 -1.21882 0
M  V30 5377 N 526.204 0.969867 -1.24223 0
M  V30 5378 C 527.167 2.04564 -1.03373 0
M  V30 5379 C 528.167 1.60798 0.00819206 0
M  V30 5380 O 529.357 1.72641 -0.232567 0
M  V30 5381 C 526.489 3.36163 -0.566343 0
M  V30 5382 H 527.682 2.24494 -1.98853 0
M  V30 5383 H 525.235 1.1448 -1.06415 0
M  V30 5384 H 525.97 3.21925 0.391751 0
M  V30 5385 H 525.755 3.69273 -1.31834 0
M  V30 5386 H 527.245 4.1526 -0.441435 0
M  V30 5387 N 527.682 1.05563 1.17022 0
M  V30 5388 C 529.093 0.793475 1.69 0
M  V30 5389 C 529.444 -0.683882 1.83895 0
M  V30 5390 O 528.569 -1.53116 1.5292 0
M  V30 5391 C 529.164 1.43376 3.06967 0
M  V30 5392 C 527.723 1.21956 3.56095 0
M  V30 5393 C 526.87 1.51494 2.3226 0
M  V30 5394 H 529.821 1.22008 1.01487 0
M  V30 5395 H 529.842 0.845068 3.70997 0
M  V30 5396 H 529.354 2.50899 2.96093 0
M  V30 5397 H 527.455 0.163749 3.7224 0
M  V30 5398 H 527.568 1.92713 4.38633 0
M  V30 5399 H 525.932 0.935175 2.3691 0
M  V30 5400 H 526.715 2.60159 2.23992 0
M  V30 5401 N 529.16 -1.33526 0.837174 0
M  V30 5402 C 530.388 -2.02047 0.445494 0
M  V30 5403 C 530.803 -1.62995 -0.952788 0
M  V30 5404 O 530.16 -0.842447 -1.61892 0
M  V30 5405 C 530.211 -3.57221 0.554577 0
M  V30 5406 O 529.932 -3.94863 1.89776 0
M  V30 5407 C 531.433 -4.43012 0.159634 0
M  V30 5408 H 528.653 -0.647221 0.177048 0
M  V30 5409 H 531.197 -1.70492 1.12928 0
M  V30 5410 H 529.352 -3.87315 -0.0812781 0
M  V30 5411 H 529.766 -4.89569 1.88208 0
M  V30 5412 H 531.24 -5.51253 0.28701 0
M  V30 5413 H 531.717 -4.29916 -0.898289 0
M  V30 5414 H 532.323 -4.18274 0.769855 0
M  V30 5415 N 530.638 -0.59345 -1.46 0
M  V30 5416 C 531.548 0.135817 -2.34207 0
M  V30 5417 C 532.564 0.875008 -1.50398 0
M  V30 5418 O 533.74 0.835778 -1.83239 0
M  V30 5419 C 530.805 1.12977 -3.27776 0
M  V30 5420 C 529.866 0.394081 -4.27487 0
M  V30 5421 C 529.099 1.34068 -5.16586 0
M  V30 5422 O 529.322 2.5778 -5.08828 0
M  V30 5423 O 528.256 0.845426 -5.95933 0
M  V30 5424 H 532.082 -0.588691 -2.9794 0
M  V30 5425 H 529.667 -0.353784 -1.45151 0
M  V30 5426 H 531.549 1.70261 -3.85473 0
M  V30 5427 H 530.224 1.83556 -2.66625 0
M  V30 5428 H 529.131 -0.220869 -3.73447 0
M  V30 5429 H 530.464 -0.270939 -4.91454 0
M  V30 5430 N 532.116 1.54067 -0.331816 0
M  V30 5431 C 533.365 1.99895 0.269209 0
M  V30 5432 C 533.678 1.22371 1.52593 0
M  V30 5433 O 534.884 1.58618 2.20347 0
M  V30 5434 C 533.34 3.55972 0.530244 0
M  V30 5435 C 532.948 4.4234 -0.709901 0
M  V30 5436 C 534.692 4.10247 1.09077 0
M  V30 5437 C 532.599 5.89905 -0.420312 0
M  V30 5438 H 531.529 0.746741 0.104371 0
M  V30 5439 H 534.18 1.78014 -0.445324 0
M  V30 5440 H 532.562 3.73873 1.30518 0
M  V30 5441 H 533.736 4.36215 -1.48504 0
M  V30 5442 H 532.051 3.98997 -1.19123 0
M  V30 5443 H 534.648 5.18095 1.32219 0
M  V30 5444 H 534.991 3.62739 2.0427 0
M  V30 5445 H 535.524 3.96011 0.376824 0
M  V30 5446 H 532.263 6.41623 -1.34164 0
M  V30 5447 H 531.783 5.98962 0.316962 0
M  V30 5448 H 533.462 6.46991 -0.0331956 0
M  V30 5449 N 533.594 0.0601682 1.57485 0
M  V30 5450 C 534.504 -0.926121 2.15546 0
M  V30 5451 C 535.52 -1.33532 1.11558 0
M  V30 5452 O 536.696 -1.4104 1.4377 0
M  V30 5453 C 533.761 -2.17952 2.69625 0
M  V30 5454 C 532.822 -1.82783 3.88444 0
M  V30 5455 C 532.055 -3.02148 4.39935 0
M  V30 5456 O 532.278 -4.15803 3.90466 0
M  V30 5457 O 531.212 -2.82639 5.31412 0
M  V30 5458 H 535.038 -0.462289 3.00161 0
M  V30 5459 H 532.623 -0.162246 1.48516 0
M  V30 5460 H 534.505 -2.91474 3.04337 0
M  V30 5461 H 533.18 -2.63456 1.88077 0
M  V30 5462 H 532.087 -1.06549 3.58606 0
M  V30 5463 H 533.42 -1.42072 4.7125 0
M  V30 5464 N 535.072 -1.5615 -0.213296 0
M  V30 5465 C 536.297 -1.83986 -0.957282 0
M  V30 5466 C 536.722 -0.641526 -1.76822 0
M  V30 5467 O 536.08 0.409722 -1.7661 0
M  V30 5468 C 536.128 -3.09889 -1.84393 0
M  V30 5469 O 535.232 -2.89163 -2.94038 0
M  V30 5470 H 534.573 -0.606357 -0.270605 0
M  V30 5471 H 537.103 -2.03369 -0.224111 0
M  V30 5472 H 537.113 -3.40209 -2.25215 0
M  V30 5473 H 535.788 -3.96735 -1.24795 0
M  V30 5474 H 534.365 -2.70097 -2.57103 0
M  V30 5475 N 536.55 0.480323 -1.50102 0
M  V30 5476 C 537.798 1.23063 -1.60312 0
M  V30 5477 C 538.119 1.92659 -0.301226 0
M  V30 5478 O 537.389 1.83691 0.680753 0
M  V30 5479 H 535.969 0.457231 -0.590719 0
M  V30 5480 H 538.631 0.554893 -1.86834 0
M  V30 5481 H 537.727 1.9835 -2.40964 0
M  V30 5482 N 538.028 1.39524 0.732853 0
M  V30 5483 C 538.938 1.40695 1.87729 0
M  V30 5484 C 539.954 0.301496 1.71368 0
M  V30 5485 O 541.13 0.543313 1.93933 0
M  V30 5486 C 538.195 1.25098 3.23344 0
M  V30 5487 C 537.256 2.45634 3.52083 0
M  V30 5488 C 536.489 2.30772 4.81228 0
M  V30 5489 O 536.712 1.31233 5.55098 0
M  V30 5490 O 535.646 3.19799 5.09914 0
M  V30 5491 H 539.472 2.37168 1.89697 0
M  V30 5492 H 537.057 1.20663 0.880959 0
M  V30 5493 H 538.939 1.18541 4.04383 0
M  V30 5494 H 537.614 0.317209 3.22142 0
M  V30 5495 H 536.521 2.57767 2.71122 0
M  V30 5496 H 537.854 3.37712 3.58066 0
M  V30 5497 N 539.506 -0.963266 1.24736 0
M  V30 5498 C 540.755 -1.70115 1.08369 0
M  V30 5499 C 541.068 -1.91939 -0.376688 0
M  V30 5500 O 542.274 -2.6334 -0.660624 0
M  V30 5501 C 540.73 -3.06218 1.89099 0
M  V30 5502 C 540.338 -2.92221 3.39574 0
M  V30 5503 C 542.082 -3.83848 1.81275 0
M  V30 5504 C 539.989 -4.23662 4.12631 0
M  V30 5505 H 538.919 -0.637944 0.401924 0
M  V30 5506 H 541.57 -1.07304 1.48856 0
M  V30 5507 H 539.952 -3.69884 1.41429 0
M  V30 5508 H 541.126 -2.37541 3.94856 0
M  V30 5509 H 539.441 -2.28054 3.48397 0
M  V30 5510 H 542.038 -4.81188 2.33158 0
M  V30 5511 H 542.381 -4.08949 0.778895 0
M  V30 5512 H 542.914 -3.26918 2.26649 0
M  V30 5513 H 539.653 -4.03753 5.16395 0
M  V30 5514 H 539.173 -4.78141 3.62135 0
M  V30 5515 H 540.852 -4.92256 4.19873 0
M  V30 5516 N 540.985 -1.06182 -1.16461 0
M  V30 5517 C 542.234 -0.772927 -1.86303 0
M  V30 5518 C 542.547 0.703187 -1.82523 0
M  V30 5519 O 543.753 1.10641 -2.47933 0
M  V30 5520 C 542.209 -1.33249 -3.34324 0
M  V30 5521 C 541.817 -2.83876 -3.46581 0
M  V30 5522 C 543.561 -1.12108 -4.09429 0
M  V30 5523 C 541.468 -3.33082 -4.88682 0
M  V30 5524 H 540.398 -0.285452 -0.697878 0
M  V30 5525 H 543.049 -1.28039 -1.31447 0
M  V30 5526 H 541.431 -0.7528 -3.88779 0
M  V30 5527 H 542.605 -3.47786 -3.02293 0
M  V30 5528 H 540.92 -3.03671 -2.84909 0
M  V30 5529 H 543.517 -1.46361 -5.14279 0
M  V30 5530 H 543.86 -0.0593832 -4.16258 0
M  V30 5531 H 544.393 -1.6665 -3.6121 0
M  V30 5532 H 541.132 -4.38726 -4.87032 0
M  V30 5533 H 540.652 -2.73919 -5.33599 0
M  V30 5534 H 542.331 -3.28344 -5.57494 0
M  V30 5535 N 542.463 1.3308 -0.844243 0
M  V30 5536 C 543.711 1.97215 -0.441676 0
M  V30 5537 C 544.032 1.67185 1.0037 0
M  V30 5538 O 543.302 0.973588 1.69994 0
M  V30 5539 H 541.882 0.72959 -0.160335 0
M  V30 5540 H 544.544 1.62348 -1.07838 0
M  V30 5541 H 543.64 3.06698 -0.57815 0
M  V30 5542 N 543.941 0.601185 1.45683 0
M  V30 5543 C 545.189 0.0936957 2.01883 0
M  V30 5544 C 545.51 -1.2779 1.47291 0
M  V30 5545 O 544.78 -1.84279 0.664691 0
M  V30 5546 H 543.36 0.0316466 0.746329 0
M  V30 5547 H 546.022 0.781137 1.78562 0
M  V30 5548 H 545.118 0.0386297 3.12076 0
M  V30 5549 N 545.419 -1.53889 0.339982 0
M  V30 5550 C 546.666 -2.00855 -0.257621 0
M  V30 5551 C 546.994 -1.22788 -1.50842 0
M  V30 5552 O 546.249 -0.302567 -1.93347 0
M  V30 5553 C 546.548 -3.51968 -0.620735 0
M  V30 5554 C 546.214 -4.47741 0.532771 0
M  V30 5555 C 544.876 -4.73645 0.849339 0
M  V30 5556 C 547.228 -5.04551 1.3068 0
M  V30 5557 C 544.556 -5.53614 1.94237 0
M  V30 5558 C 546.908 -5.85713 2.39005 0
M  V30 5559 C 545.572 -6.09912 2.71225 0
M  V30 5560 H 544.842 -0.734979 -0.0942703 0
M  V30 5561 H 547.489 -1.85714 0.467159 0
M  V30 5562 H 545.794 -3.64921 -1.42618 0
M  V30 5563 H 547.491 -3.85762 -1.09495 0
M  V30 5564 H 544.081 -4.27711 0.275973 0
M  V30 5565 H 548.265 -4.84507 1.07549 0
M  V30 5566 H 543.521 -5.7059 2.19628 0
M  V30 5567 H 547.695 -6.28748 2.99415 0
M  V30 5568 H 545.322 -6.71665 3.56047 0
M  V30 5569 N 546.897 -0.0685191 -1.57451 0
M  V30 5570 C 547.86 0.885173 -2.11417 0
M  V30 5571 C 548.86 1.22853 -1.03748 0
M  V30 5572 O 550.05 1.16235 -1.2975 0
M  V30 5573 C 547.182 2.18964 -2.61281 0
M  V30 5574 H 548.375 0.417034 -2.96986 0
M  V30 5575 H 545.928 0.18014 -1.55258 0
M  V30 5576 H 546.663 2.70321 -1.79156 0
M  V30 5577 H 546.448 1.9534 -3.39977 0
M  V30 5578 H 547.938 2.87242 -3.0312 0
M  V30 5579 N 548.375 1.56261 0.205012 0
M  V30 5580 C 549.325 1.90155 1.25798 0
M  V30 5581 C 550.309 0.766227 1.41484 0
M  V30 5582 O 551.501 1.02893 1.44021 0
M  V30 5583 C 548.63 2.23603 2.60493 0
M  V30 5584 C 547.716 3.43568 2.48639 0
M  V30 5585 N 548.107 4.61747 2.06455 0
M  V30 5586 C 546.405 3.4751 2.79558 0
M  V30 5587 C 547.106 5.43907 2.06253 0
M  V30 5588 N 546.082 4.84051 2.47377 0
M  V30 5589 H 549.884 2.79031 0.922986 0
M  V30 5590 H 547.398 1.57048 0.413501 0
M  V30 5591 H 549.395 2.46067 3.36537 0
M  V30 5592 H 548.055 1.36049 2.94823 0
M  V30 5593 H 549.066 4.86598 1.77321 0
M  V30 5594 H 545.743 2.70345 3.18151 0
M  V30 5595 H 547.133 6.48542 1.75622 0
M  V30 5596 N 549.853 -0.472356 1.50355 0
M  V30 5597 C 550.801 -1.59126 1.69651 0
M  V30 5598 C 551.795 -1.59793 0.56237 0
M  V30 5599 O 553.001 -1.63957 0.742832 0
M  V30 5600 H 549.376 -0.528008 0.535454 0
M  V30 5601 H 551.347 -1.40013 2.63513 0
M  V30 5602 C 550.096 -2.97075 1.8067 0
M  V30 5603 H 549.419 -2.9728 2.67329 0
M  V30 5604 H 550.859 -3.74825 1.98197 0
M  V30 5605 C 549.318 -3.32247 0.558016 0
M  V30 5606 O 549.848 -4.00553 -0.303399 0
M  V30 5607 N 548.054 -2.87659 0.412415 0
M  V30 5608 H 547.601 -2.32246 1.11443 0
M  V30 5609 H 547.559 -3.11556 -0.421908 0
M  V30 5610 N 551.331 -1.39911 -0.725443 0
M  V30 5611 C 552.263 -1.35301 -1.85003 0
M  V30 5612 C 553.276 -0.260102 -1.60709 0
M  V30 5613 O 554.465 -0.519749 -1.70766 0
M  V30 5614 C 551.565 -1.08039 -3.21218 0
M  V30 5615 C 550.738 -2.28793 -3.7279 0
M  V30 5616 C 549.797 -1.97841 -4.87591 0
M  V30 5617 O 548.823 -2.70616 -5.00755 0
M  V30 5618 N 550.025 -0.950367 -5.72668 0
M  V30 5619 H 552.79 -2.32218 -1.89459 0
M  V30 5620 H 550.351 -1.34137 -0.90658 0
M  V30 5621 H 552.343 -0.853354 -3.95601 0
M  V30 5622 H 550.913 -0.198229 -3.11971 0
M  V30 5623 H 550.133 -2.67388 -2.8965 0
M  V30 5624 H 551.421 -3.09317 -4.03981 0
M  V30 5625 H 550.819 -0.347436 -5.64632 0
M  V30 5626 H 549.376 -0.783232 -6.47077 0
M  V30 5627 N 552.809 0.956637 -1.25245 0
M  V30 5628 C 554.055 1.70352 -1.10036 0
M  V30 5629 C 554.388 1.90869 0.358156 0
M  V30 5630 O 553.663 1.47819 1.26411 0
M  V30 5631 C 553.946 3.08766 -1.85298 0
M  V30 5632 C 553.799 2.95672 -3.38966 0
M  V30 5633 C 555.118 4.08622 -1.63451 0
M  V30 5634 H 552.237 0.618279 -0.401123 0
M  V30 5635 H 554.879 1.11212 -1.54051 0
M  V30 5636 H 553.029 3.59252 -1.47887 0
M  V30 5637 H 554.701 2.52527 -3.86041 0
M  V30 5638 H 552.944 2.31634 -3.6678 0
M  V30 5639 H 553.615 3.93776 -3.86839 0
M  V30 5640 H 556.091 3.67038 -1.96015 0
M  V30 5641 H 554.967 5.03514 -2.18551 0
M  V30 5642 H 555.228 4.3834 -0.575357 0
M  V30 5643 N 554.287 1.06798 1.15896 0
M  V30 5644 C 555.217 0.704677 2.22613 0
M  V30 5645 C 556.198 -0.305252 1.67339 0
M  V30 5646 O 557.383 -0.179247 1.93371 0
M  V30 5647 C 554.513 0.0957325 3.47168 0
M  V30 5648 C 553.467 1.0322 4.15367 0
M  V30 5649 C 552.793 0.286293 5.33933 0
M  V30 5650 C 554.093 2.36341 4.65768 0
M  V30 5651 H 555.787 1.59688 2.53259 0
M  V30 5652 H 553.333 0.769257 1.21731 0
M  V30 5653 H 555.286 -0.170333 4.21056 0
M  V30 5654 H 554.01 -0.831516 3.15838 0
M  V30 5655 H 552.669 1.28309 3.43413 0
M  V30 5656 H 552.317 -0.644237 4.98857 0
M  V30 5657 H 552.017 0.910436 5.80504 0
M  V30 5658 H 553.541 0.0278938 6.10594 0
M  V30 5659 H 554.955 2.1561 5.31211 0
M  V30 5660 H 553.352 2.94299 5.2298 0
M  V30 5661 H 554.422 2.99047 3.81705 0
M  V30 5662 N 555.766 -1.3263 0.851289 0
M  V30 5663 C 556.729 -2.27247 0.298541 0
M  V30 5664 C 557.729 -1.51467 -0.539847 0
M  V30 5665 O 558.919 -1.7061 -0.351843 0
M  V30 5666 C 556.051 -3.35964 -0.578004 0
M  V30 5667 H 557.244 -2.7765 1.13359 0
M  V30 5668 H 554.797 -1.43245 0.625354 0
M  V30 5669 H 555.532 -2.90823 -1.435 0
M  V30 5670 H 555.317 -3.92094 0.0220539 0
M  V30 5671 H 556.807 -4.06472 -0.957626 0
M  V30 5672 N 557.244 -0.608902 -1.45362 0
M  V30 5673 C 558.174 0.0964526 -2.33301 0
M  V30 5674 C 559.155 0.857444 -1.46908 0
M  V30 5675 O 560.34 0.827735 -1.75676 0
M  V30 5676 C 557.47 1.09354 -3.29635 0
M  V30 5677 C 556.424 0.445676 -4.25673 0
M  V30 5678 C 555.75 1.5511 -5.11708 0
M  V30 5679 C 557.05 -0.633972 -5.18438 0
M  V30 5680 H 558.744 -0.637829 -2.92527 0
M  V30 5681 H 556.29 -0.308178 -1.40664 0
M  V30 5682 H 558.243 1.59556 -3.90025 0
M  V30 5683 H 556.967 1.85843 -2.6857 0
M  V30 5684 H 555.626 -0.0354897 -3.66583 0
M  V30 5685 H 555.274 2.30631 -4.4701 0
M  V30 5686 H 554.974 1.12311 -5.76767 0
M  V30 5687 H 556.498 2.05537 -5.74967 0
M  V30 5688 H 557.912 -0.215974 -5.72893 0
M  V30 5689 H 556.309 -0.983789 -5.91981 0
M  V30 5690 H 557.379 -1.51005 -4.60788 0
M  V30 5691 N 558.722 1.53707 -0.348139 0
M  V30 5692 C 559.685 2.23812 0.494058 0
M  V30 5693 C 560.685 1.23989 1.02388 0
M  V30 5694 O 561.875 1.48395 0.912396 0
M  V30 5695 C 559.007 2.96133 1.68872 0
M  V30 5696 H 560.2 2.99663 -0.119141 0
M  V30 5697 H 557.753 1.55983 -0.0995539 0
M  V30 5698 H 558.488 2.24481 2.34049 0
M  V30 5699 H 558.273 3.69357 1.31596 0
M  V30 5700 H 559.763 3.49475 2.28597 0
M  V30 5701 N 560.2 0.0768682 1.57412 0
M  V30 5702 C 561.477 -0.632359 1.85096 0
M  V30 5703 C 561.857 -1.87479 0.9703 0
M  V30 5704 O 561.205 -2.28469 0.0379062 0
M  V30 5705 C 561.415 -0.965174 3.35388 0
M  V30 5706 C 562.763 -1.33648 4.03018 0
M  V30 5707 O 563.787 -1.05675 3.40164 0
M  V30 5708 O 562.646 -1.85959 5.13889 0
M  V30 5709 H 559.74 -0.314574 0.764835 0
M  V30 5710 H 562.286 0.108184 1.69355 0
M  V30 5711 H 561.058 -0.0829745 3.91212 0
M  V30 5712 H 560.681 -1.76231 3.5641 0
M  V30 5713 N 561.678 -1.56367 -0.196722 0
M  V30 5714 C 562.625 -1.94417 -1.24382 0
M  V30 5715 C 563.595 -0.804543 -1.45315 0
M  V30 5716 O 564.78 -1.06256 -1.58475 0
M  V30 5717 C 561.92 -2.28757 -2.58388 0
M  V30 5718 C 561.033 -3.55775 -2.45047 0
M  V30 5719 C 560.168 -3.79445 -3.71746 0
M  V30 5720 C 559.207 -4.99894 -3.53231 0
M  V30 5721 N 558.344 -5.19826 -4.71938 0
M  V30 5722 H 563.184 -2.83691 -0.912338 0
M  V30 5723 H 560.721 -1.40392 -0.439135 0
M  V30 5724 H 562.679 -2.46682 -3.36457 0
M  V30 5725 H 561.309 -1.42625 -2.89582 0
M  V30 5726 H 560.361 -3.45905 -1.58284 0
M  V30 5727 H 561.673 -4.44 -2.27299 0
M  V30 5728 H 560.827 -3.97601 -4.58256 0
M  V30 5729 H 559.566 -2.89546 -3.92446 0
M  V30 5730 H 558.571 -4.81662 -2.65107 0
M  V30 5731 H 559.796 -5.913 -3.33978 0
M  V30 5732 H 557.742 -4.32875 -4.92905 0
M  V30 5733 H 557.659 -6.02228 -4.57009 0
M  V30 5734 H 558.927 -5.42439 -5.59803 0
M  V30 5735 N 563.156 0.464375 -1.50603 0
M  V30 5736 C 564.402 1.21776 -1.62168 0
M  V30 5737 C 564.735 1.91476 -0.324154 0
M  V30 5738 O 564.01 1.8242 0.674782 0
M  V30 5739 C 564.293 2.25614 -2.80661 0
M  V30 5740 C 564.146 1.60175 -4.20314 0
M  V30 5741 C 565.465 3.26862 -2.94702 0
M  V30 5742 H 562.584 0.44137 -0.590222 0
M  V30 5743 H 565.226 0.510623 -1.8301 0
M  V30 5744 H 563.376 2.85923 -2.63021 0
M  V30 5745 H 565.048 1.03411 -4.4956 0
M  V30 5746 H 563.291 0.904697 -4.24261 0
M  V30 5747 H 563.962 2.35665 -4.99165 0
M  V30 5748 H 566.438 2.76582 -3.10872 0
M  V30 5749 H 565.314 3.96839 -3.79223 0
M  V30 5750 H 565.575 3.91382 -2.05603 0
M  V30 5751 N 564.634 1.40294 0.718013 0
M  V30 5752 C 565.883 1.37746 1.4734 0
M  V30 5753 C 566.196 -0.0180754 1.95592 0
M  V30 5754 O 567.402 -0.166166 2.70991 0
M  V30 5755 C 565.858 2.4208 2.66318 0
M  V30 5756 C 565.466 3.87432 2.24945 0
M  V30 5757 C 567.21 2.48635 3.44065 0
M  V30 5758 C 565.117 4.83368 3.40748 0
M  V30 5759 H 564.047 0.512165 0.553356 0
M  V30 5760 H 566.698 1.66019 0.781661 0
M  V30 5761 H 565.08 2.06903 3.3765 0
M  V30 5762 H 566.254 4.3174 1.6105 0
M  V30 5763 H 564.569 3.8433 1.60249 0
M  V30 5764 H 567.166 3.17499 4.30231 0
M  V30 5765 H 567.509 1.51611 3.87711 0
M  V30 5766 H 568.042 2.82791 2.79775 0
M  V30 5767 H 564.781 5.81716 3.02136 0
M  V30 5768 H 564.301 4.43726 4.03568 0
M  V30 5769 H 565.98 5.03074 4.06848 0
M  V30 5770 N 566.112 -0.949982 1.2575 0
M  V30 5771 C 567.389 -1.6718 1.01539 0
M  V30 5772 C 567.769 -2.06095 -0.456942 0
M  V30 5773 O 567.117 -1.77792 -1.43534 0
M  V30 5774 C 567.327 -2.8906 1.95564 0
M  V30 5775 C 568.675 -3.60909 2.23673 0
M  V30 5776 O 569.699 -2.9915 1.9336 0
M  V30 5777 O 568.558 -4.72127 2.75243 0
M  V30 5778 H 565.652 -0.731697 0.385419 0
M  V30 5779 H 568.198 -1.00249 1.36924 0
M  V30 5780 H 566.97 -2.57128 2.94959 0
M  V30 5781 H 566.593 -3.63719 1.60605 0
M  V30 5782 N 567.59 -1.07411 -1.15328 0
M  V30 5783 C 568.553 -0.698914 -2.18284 0
M  V30 5784 C 569.553 0.261149 -1.58665 0
M  V30 5785 O 570.743 0.0420277 -1.74149 0
M  V30 5786 C 567.875 -0.0302427 -3.40887 0
M  V30 5787 H 569.068 -1.61045 -2.52991 0
M  V30 5788 H 566.621 -0.870724 -1.298 0
M  V30 5789 H 567.356 0.893505 -3.11748 0
M  V30 5790 H 567.141 -0.720759 -3.85419 0
M  V30 5791 H 568.631 0.21759 -4.17033 0
M  V30 5792 N 569.068 1.32177 -0.85831 0
M  V30 5793 C 570.314 1.97417 -0.46417 0
M  V30 5794 C 570.647 1.67746 0.978514 0
M  V30 5795 O 569.922 0.967654 1.68721 0
M  V30 5796 C 570.205 3.53069 -0.708094 0
M  V30 5797 C 570.058 3.92357 -2.19946 0
M  V30 5798 C 571.377 4.39783 -0.166881 0
M  V30 5799 H 568.496 0.717097 -0.17012 0
M  V30 5800 H 571.138 1.56499 -1.07741 0
M  V30 5801 H 569.288 3.88054 -0.186128 0
M  V30 5802 H 570.96 3.67533 -2.78779 0
M  V30 5803 H 569.203 3.41384 -2.67656 0
M  V30 5804 H 569.874 5.00841 -2.32082 0
M  V30 5805 H 572.35 4.11556 -0.613285 0
M  V30 5806 H 571.226 5.47671 -0.367093 0
M  V30 5807 H 571.487 4.32196 0.930559 0
M  V30 5808 N 570.547 0.616602 1.45037 0
M  V30 5809 C 571.494 -0.0969439 2.30596 0
M  V30 5810 C 572.464 -0.851151 1.42635 0
M  V30 5811 O 573.649 -0.835092 1.71554 0
M  V30 5812 C 570.789 -1.08234 3.27688 0
M  V30 5813 C 569.902 -0.328072 4.30752 0
M  V30 5814 C 569.037 -1.30399 5.14946 0
M  V30 5815 C 568.076 -0.538049 6.09731 0
M  V30 5816 N 567.213 -1.46371 6.86673 0
M  V30 5817 H 572.053 0.63864 2.91076 0
M  V30 5818 H 569.59 0.326733 1.43425 0
M  V30 5819 H 571.548 -1.66688 3.82454 0
M  V30 5820 H 570.178 -1.78523 2.68941 0
M  V30 5821 H 569.23 0.372136 3.78575 0
M  V30 5822 H 570.542 0.269142 4.98073 0
M  V30 5823 H 569.696 -1.96032 5.74157 0
M  V30 5824 H 568.435 -1.93514 4.47665 0
M  V30 5825 H 567.44 0.131852 5.49642 0
M  V30 5826 H 568.665 0.0881732 6.79043 0
M  V30 5827 H 566.611 -2.08233 6.22073 0
M  V30 5828 H 566.528 -0.920152 7.50379 0
M  V30 5829 H 567.796 -2.10932 7.50418 0
M  V30 5830 N 572.025 -1.5352 0.356285 0
M  V30 5831 C 573.25 -2.06007 -0.239961 0
M  V30 5832 C 573.675 -1.22872 -1.42422 0
M  V30 5833 O 573.033 -0.245516 -1.7963 0
M  V30 5834 C 573.081 -3.5522 -0.620587 0
M  V30 5835 O 572.185 -3.74864 -1.71902 0
M  V30 5836 H 571.526 -0.662961 -0.0371377 0
M  V30 5837 H 574.056 -1.98033 0.514194 0
M  V30 5838 H 574.066 -3.98081 -0.894197 0
M  V30 5839 H 572.741 -4.15175 0.245407 0
M  V30 5840 H 571.318 -3.43904 -1.44169 0
M  V30 5841 N 573.503 -0.0852151 -1.57369 0
M  V30 5842 C 574.751 0.579658 -1.93609 0
M  V30 5843 C 575.072 1.69332 -0.967043 0
M  V30 5844 O 574.342 1.95892 -0.0174215 0
M  V30 5845 H 572.922 0.217113 -0.714752 0
M  V30 5846 H 575.584 -0.146226 -1.94351 0
M  V30 5847 H 574.68 0.996276 -2.95771 0
M  V30 5848 N 574.981 1.5647 0.188427 0
M  V30 5849 C 575.944 1.9421 1.21718 0
M  V30 5850 C 576.944 0.823901 1.38089 0
M  V30 5851 O 578.134 1.09122 1.35787 0
M  V30 5852 C 575.266 2.22197 2.58537 0
M  V30 5853 H 576.459 2.86252 0.894418 0
M  V30 5854 H 574.012 1.50263 0.430211 0
M  V30 5855 H 574.747 1.32814 2.95856 0
M  V30 5856 H 574.532 3.03688 2.48025 0
M  V30 5857 H 576.022 2.52376 3.3271 0
M  V30 5858 N 576.459 -0.456382 1.50847 0
M  V30 5859 C 577.708 -1.2042 1.61808 0
M  V30 5860 C 578.021 -1.9278 0.330932 0
M  V30 5861 O 579.227 -2.69612 0.319643 0
M  V30 5862 C 577.683 -2.18891 2.85683 0
M  V30 5863 C 577.291 -1.52267 4.2133 0
M  V30 5864 C 579.035 -2.94224 3.05994 0
M  V30 5865 C 576.942 -2.4911 5.36375 0
M  V30 5866 H 575.872 -0.453177 0.602616 0
M  V30 5867 H 578.523 -0.473144 1.77295 0
M  V30 5868 H 576.905 -2.95351 2.63787 0
M  V30 5869 H 578.079 -0.814949 4.53536 0
M  V30 5870 H 576.394 -0.891594 4.06743 0
M  V30 5871 H 578.991 -3.66732 3.89117 0
M  V30 5872 H 579.334 -3.54469 2.18306 0
M  V30 5873 H 579.867 -2.24874 3.28141 0
M  V30 5874 H 576.606 -1.93582 6.26264 0
M  V30 5875 H 576.126 -3.17991 5.08569 0
M  V30 5876 H 577.805 -3.10637 5.67551 0
M  V30 5877 N 577.937 -1.40673 -0.710563 0
M  V30 5878 C 578.884 -1.41336 -1.82463 0
M  V30 5879 C 579.854 -0.269648 -1.63897 0
M  V30 5880 O 581.039 -0.468463 -1.8496 0
M  V30 5881 C 578.179 -1.28665 -3.20218 0
M  V30 5882 C 577.292 -2.52784 -3.5032 0
M  V30 5883 C 576.427 -2.32517 -4.77608 0
M  V30 5884 C 575.466 -3.52187 -5.0063 0
M  V30 5885 N 574.603 -3.31084 -6.19135 0
M  V30 5886 H 579.443 -2.36558 -1.8123 0
M  V30 5887 H 576.98 -1.17483 -0.885226 0
M  V30 5888 H 578.938 -1.19324 -3.99772 0
M  V30 5889 H 577.568 -0.370602 -3.20666 0
M  V30 5890 H 576.62 -2.72634 -2.65283 0
M  V30 5891 H 577.932 -3.41845 -3.63241 0
M  V30 5892 H 577.086 -2.20558 -5.65189 0
M  V30 5893 H 575.825 -1.40889 -4.66906 0
M  V30 5894 H 574.83 -3.64617 -4.11502 0
M  V30 5895 H 576.055 -4.44749 -5.13201 0
M  V30 5896 H 574.001 -2.42143 -6.09674 0
M  V30 5897 H 573.918 -4.13713 -6.32754 0
M  V30 5898 H 575.186 -3.22868 -7.0949 0
M  V30 5899 N 579.415 0.9433 -1.26252 0
M  V30 5900 C 580.362 2.0417 -1.07625 0
M  V30 5901 C 581.332 1.6609 0.0180738 0
M  V30 5902 O 582.517 1.90276 -0.141289 0
M  V30 5903 C 579.657 3.37653 -0.713043 0
M  V30 5904 C 578.77 3.88783 -1.8834 0
M  V30 5905 C 577.905 5.10642 -1.4635 0
M  V30 5906 C 576.944 5.54028 -2.60229 0
M  V30 5907 N 576.081 6.67092 -2.18936 0
M  V30 5908 H 580.921 2.19436 -2.01623 0
M  V30 5909 H 578.458 1.07519 -1.00389 0
M  V30 5910 H 580.416 4.14391 -0.483358 0
M  V30 5911 H 579.046 3.22241 0.18996 0
M  V30 5912 H 578.098 3.08464 -2.22608 0
M  V30 5913 H 579.41 4.16922 -2.73821 0
M  V30 5914 H 578.564 5.94832 -1.19414 0
M  V30 5915 H 577.303 4.84244 -0.579568 0
M  V30 5916 H 576.308 4.68396 -2.87898 0
M  V30 5917 H 577.533 5.82429 -3.49219 0
M  V30 5918 H 575.479 6.42381 -1.32974 0
M  V30 5919 H 575.396 6.94806 -2.97961 0
M  V30 5920 H 576.664 7.54662 -1.95206 0
M  V30 5921 N 580.893 1.08022 1.14757 0
M  V30 5922 C 582.14 0.807509 1.85703 0
M  V30 5923 C 582.468 -0.666617 1.8272 0
M  V30 5924 O 581.723 -1.50562 1.25018 0
M  V30 5925 C 582.022 1.26964 3.34088 0
M  V30 5926 C 581.688 2.7509 3.57262 0
M  V30 5927 C 580.35 3.15547 3.63296 0
M  V30 5928 C 582.702 3.70667 3.66409 0
M  V30 5929 C 580.03 4.50384 3.75994 0
M  V30 5930 C 582.382 5.05274 3.80632 0
M  V30 5931 C 581.046 5.45342 3.84913 0
M  V30 5932 H 580.316 0.295488 0.679535 0
M  V30 5933 H 582.963 1.35245 1.35577 0
M  V30 5934 H 581.268 0.644216 3.86467 0
M  V30 5935 H 582.965 1.03544 3.87401 0
M  V30 5936 H 579.555 2.42775 3.53212 0
M  V30 5937 H 583.739 3.40533 3.61041 0
M  V30 5938 H 578.995 4.80886 3.77569 0
M  V30 5939 H 583.169 5.79201 3.86652 0
M  V30 5940 H 580.796 6.49823 3.94505 0
M  V30 5941 N 582.371 -1.3172 0.865308 0
M  V30 5942 C 583.617 -1.97168 0.474633 0
M  V30 5943 C 583.95 -1.68263 -0.969604 0
M  V30 5944 O 583.225 -0.976588 -1.68205 0
M  V30 5945 C 583.508 -3.52689 0.726808 0
M  V30 5946 C 583.361 -3.91185 2.22024 0
M  V30 5947 C 584.68 -4.39689 0.190201 0
M  V30 5948 H 581.799 -0.716185 0.17392 0
M  V30 5949 H 584.441 -1.55925 1.08569 0
M  V30 5950 H 582.591 -3.8795 0.206705 0
M  V30 5951 H 584.263 -3.66049 2.80724 0
M  V30 5952 H 582.506 -3.3996 2.69462 0
M  V30 5953 H 583.177 -4.99604 2.34735 0
M  V30 5954 H 585.653 -4.11225 0.635103 0
M  V30 5955 H 584.529 -5.47469 0.396132 0
M  V30 5956 H 584.79 -4.32683 -0.907625 0
M  V30 5957 N 583.85 -0.624285 -1.44708 0
M  V30 5958 C 585.096 -0.126237 -2.02407 0
M  V30 5959 C 585.428 1.24618 -1.48943 0
M  V30 5960 O 584.704 1.82569 -0.670742 0
M  V30 5961 C 584.986 -0.105449 -3.59946 0
M  V30 5962 C 584.84 -1.50972 -4.23707 0
M  V30 5963 C 586.159 0.573629 -4.36346 0
M  V30 5964 H 583.278 -0.0473472 -0.735478 0
M  V30 5965 H 585.92 -0.799452 -1.72362 0
M  V30 5966 H 584.07 0.46783 -3.85673 0
M  V30 5967 H 585.742 -2.13136 -4.0911 0
M  V30 5968 H 583.985 -2.0656 -3.81465 0
M  V30 5969 H 584.656 -1.44727 -5.32689 0
M  V30 5970 H 587.132 0.0861787 -4.16011 0
M  V30 5971 H 586.008 0.557338 -5.46063 0
M  V30 5972 H 586.269 1.64276 -4.10446 0
M  V30 5973 N 585.328 1.53329 -0.364422 0
M  V30 5974 C 586.261 2.22052 0.526145 0
M  V30 5975 C 587.239 1.21203 1.08391 0
M  V30 5976 O 588.423 1.50101 1.14026 0
M  V30 5977 C 585.55 2.91432 1.72583 0
M  V30 5978 C 584.596 4.06345 1.29562 0
M  V30 5979 S 585.429 5.34671 0.297885 0
M  V30 5980 C 586.585 6.07563 1.50392 0
M  V30 5981 H 586.818 2.97244 -0.0575055 0
M  V30 5982 H 584.351 1.53684 -0.148525 0
M  V30 5983 H 586.309 3.3202 2.41398 0
M  V30 5984 H 584.97 2.15966 2.28073 0
M  V30 5985 H 584.163 4.53901 2.19067 0
M  V30 5986 H 583.765 3.67642 0.686696 0
M  V30 5987 H 586.057 6.32224 2.43513 0
M  V30 5988 H 587 6.99973 1.06977 0
M  V30 5989 H 587.408 5.37994 1.70945 0
M  V30 5990 N 586.806 0.0935595 1.57322 0
M  V30 5991 C 587.769 -0.851426 2.12799 0
M  V30 5992 C 588.769 -1.21187 1.0569 0
M  V30 5993 O 589.959 -1.14156 1.31583 0
M  V30 5994 C 587.091 -2.14779 2.64731 0
M  V30 5995 H 588.284 -0.369733 2.97612 0
M  V30 5996 H 585.837 -0.155417 1.55525 0
M  V30 5997 H 586.572 -2.67437 1.83434 0
M  V30 5998 H 586.357 -1.89907 3.43042 0
M  V30 5999 H 587.847 -2.82383 3.07651 0
M  V30 6000 N 588.284 -1.56567 -0.180126 0
M  V30 6001 C 589.532 -1.81133 -0.896392 0
M  V30 6002 C 589.853 -0.669114 -1.83161 0
M  V30 6003 O 589.123 0.311616 -1.93406 0
M  V30 6004 H 587.703 -0.668172 -0.333999 0
M  V30 6005 H 590.365 -1.94048 -0.182051 0
M  V30 6006 H 589.461 -2.74854 -1.47857 0
M  V30 6007 N 589.762 0.448376 -1.51087 0
M  V30 6008 C 591.002 1.20832 -1.64861 0
M  V30 6009 C 591.366 1.88748 -0.351873 0
M  V30 6010 O 592.567 2.66307 -0.365265 0
M  V30 6011 C 590.838 2.20674 -2.81137 0
M  V30 6012 S 592.397 3.05303 -3.15176 0
M  V30 6013 H 589.215 0.40992 -0.580936 0
M  V30 6014 H 591.817 0.501624 -1.88955 0
M  V30 6015 H 590.521 1.69399 -3.73808 0
M  V30 6016 H 590.052 2.9594 -2.59198 0
M  V30 6017 H 592.067 4.22162 -2.60756 0
M  V30 6018 N 591.24 1.41047 0.703093 0
M  V30 6019 C 592.517 1.30493 1.45708 0
M  V30 6020 C 592.897 -0.0709892 2.10981 0
M  V30 6021 O 592.245 -1.08471 2.01113 0
M  V30 6022 C 592.455 2.45287 2.48265 0
M  V30 6023 C 593.803 2.86104 3.13735 0
M  V30 6024 O 594.827 2.44971 2.58587 0
M  V30 6025 O 593.686 3.57206 4.13601 0
M  V30 6026 H 590.78 0.513144 0.648546 0
M  V30 6027 H 593.326 1.52995 0.734208 0
M  V30 6028 H 592.098 3.37135 1.98635 0
M  V30 6029 H 591.721 2.24622 3.28071 0
M  V30 6030 N 592.718 -0.936591 1.26751 0
M  V30 6031 C 593.966 -1.67998 1.12343 0
M  V30 6032 C 594.287 -1.92137 -0.332938 0
M  V30 6033 O 593.557 -1.52132 -1.23421 0
M  V30 6034 H 592.137 -0.622609 0.412756 0
M  V30 6035 H 594.799 -1.12509 1.59147 0
M  V30 6036 H 593.895 -2.65185 1.64571 0
M  V30 6037 N 594.196 -1.08629 -1.14182 0
M  V30 6038 C 595.612 -0.814363 -1.3726 0
M  V30 6039 C 595.812 0.575271 -1.93114 0
M  V30 6040 O 594.868 1.33165 -2.1453 0
M  V30 6041 C 596.181 -1.8989 -2.33157 0
M  V30 6042 C 597.729 -1.92518 -2.46791 0
M  V30 6043 C 598.204 -3.00092 -3.45989 0
M  V30 6044 N 599.695 -2.99279 -3.53534 0
M  V30 6045 C 600.43 -3.79158 -4.30147 0
M  V30 6046 N 599.926 -4.68923 -5.09983 0
M  V30 6047 N 601.719 -3.67451 -4.25366 0
M  V30 6048 H 593.87 -1.98232 -0.762758 0
M  V30 6049 H 596.133 -0.860383 -0.398051 0
M  V30 6050 H 595.839 -2.89809 -1.99257 0
M  V30 6051 H 595.713 -1.77013 -3.33086 0
M  V30 6052 H 598.1 -0.932425 -2.79982 0
M  V30 6053 H 598.181 -2.09473 -1.46816 0
M  V30 6054 H 597.825 -3.99575 -3.13532 0
M  V30 6055 H 597.755 -2.80382 -4.45751 0
M  V30 6056 H 600.246 -2.3422 -2.96563 0
M  V30 6057 H 600.559 -5.26475 -5.65724 0
M  V30 6058 H 598.904 -4.72964 -5.09244 0
M  V30 6059 H 602.095 -2.9669 -3.62067 0
M  V30 6060 H 602.268 -4.29944 -4.84822 0
M  V30 6061 N 595.674 1.31259 -0.872281 0
M  V30 6062 C 596.637 2.26744 -0.334656 0
M  V30 6063 C 597.637 1.52307 0.515681 0
M  V30 6064 O 598.827 1.71148 0.324656 0
M  V30 6065 C 595.959 3.36841 0.524482 0
M  V30 6066 H 597.152 2.75812 -1.17762 0
M  V30 6067 H 594.705 1.42232 -0.648064 0
M  V30 6068 H 595.44 2.93069 1.38855 0
M  V30 6069 H 595.225 3.92009 -0.0844299 0
M  V30 6070 H 596.715 4.07944 0.892838 0
M  V30 6071 N 597.152 0.631951 1.44375 0
M  V30 6072 C 598.099 -0.0724807 2.30686 0
M  V30 6073 C 599.069 -0.835975 1.43529 0
M  V30 6074 O 600.254 -0.816849 1.7243 0
M  V30 6075 C 597.394 -1.04753 3.28817 0
M  V30 6076 C 596.507 -0.282367 4.31076 0
M  V30 6077 C 595.642 -1.2493 5.163 0
M  V30 6078 C 594.681 -0.473349 6.10267 0
M  V30 6079 N 593.818 -1.39079 6.88187 0
M  V30 6080 H 598.658 0.669477 2.90383 0
M  V30 6081 H 596.195 0.341927 1.43071 0
M  V30 6082 H 598.153 -1.62623 3.842 0
M  V30 6083 H 596.783 -1.75661 2.70819 0
M  V30 6084 H 595.835 0.412268 3.78159 0
M  V30 6085 H 597.147 0.321955 4.9776 0
M  V30 6086 H 596.301 -1.89931 5.76204 0
M  V30 6087 H 595.04 -1.88755 4.49692 0
M  V30 6088 H 594.045 0.190142 5.49471 0
M  V30 6089 H 595.27 0.16019 6.78911 0
M  V30 6090 H 593.216 -2.01623 6.24247 0
M  V30 6091 H 593.133 -0.840513 7.51313 0
M  V30 6092 H 594.401 -2.02961 7.52613 0
M  V30 6093 N 598.631 -1.53133 0.372548 0
M  V30 6094 C 599.856 -2.0625 -0.218098 0
M  V30 6095 C 600.281 -1.24375 -1.41111 0
M  V30 6096 O 599.639 -0.264554 -1.79359 0
M  V30 6097 C 599.687 -3.55858 -0.582876 0
M  V30 6098 O 598.791 -3.76667 -1.67917 0
M  V30 6099 H 598.132 -0.663317 -0.030104 0
M  V30 6100 H 600.662 -1.97477 0.535169 0
M  V30 6101 H 600.672 -3.99007 -0.851925 0
M  V30 6102 H 599.347 -4.14892 0.289428 0
M  V30 6103 H 597.924 -3.45413 -1.40513 0
M  V30 6104 N 600.109 -0.101901 -1.5727 0
M  V30 6105 C 601.525 0.254739 -1.57554 0
M  V30 6106 C 601.725 1.67937 -1.11352 0
M  V30 6107 O 600.781 2.39722 -0.793081 0
M  V30 6108 C 602.094 0.036975 -3.00677 0
M  V30 6109 C 603.642 0.104199 -3.12827 0
M  V30 6110 C 604.117 -0.0856565 -4.5792 0
M  V30 6111 N 605.608 -0.0310498 -4.6319 0
M  V30 6112 C 606.343 -0.153099 -5.73196 0
M  V30 6113 N 605.839 -0.330364 -6.92012 0
M  V30 6114 N 607.632 -0.0938854 -5.62022 0
M  V30 6115 H 599.783 -1.03263 -1.85609 0
M  V30 6116 H 602.046 -0.405251 -0.857016 0
M  V30 6117 H 601.752 -0.947254 -3.38703 0
M  V30 6118 H 601.626 0.776335 -3.69124 0
M  V30 6119 H 604.013 1.07894 -2.74669 0
M  V30 6120 H 604.094 -0.666762 -2.46957 0
M  V30 6121 H 603.738 -1.05729 -4.96773 0
M  V30 6122 H 603.668 0.705082 -5.21858 0
M  V30 6123 H 606.159 0.103141 -3.77759 0
M  V30 6124 H 606.472 -0.41482 -7.71686 0
M  V30 6125 H 604.817 -0.366119 -6.94035 0
M  V30 6126 H 608.008 0.0435168 -4.6808 0
M  V30 6127 H 608.181 -0.19245 -6.47714 0
M  V30 6128 N 601.587 1.56661 0.17182 0
M  V30 6129 C 602.812 1.86459 0.908165 0
M  V30 6130 C 603.237 0.688181 1.75059 0
M  V30 6131 O 602.595 -0.362753 1.77634 0
M  V30 6132 C 602.643 3.14669 1.76112 0
M  V30 6133 O 601.747 2.96858 2.86268 0
M  V30 6134 H 601.088 0.613318 0.254434 0
M  V30 6135 H 603.618 2.03892 0.170113 0
M  V30 6136 H 603.628 3.46061 2.16115 0
M  V30 6137 H 602.303 3.99905 1.14233 0
M  V30 6138 H 600.88 2.76819 2.49852 0
M  V30 6139 N 603.065 -0.440357 1.51323 0
M  V30 6140 C 604.295 -1.21079 1.67402 0
M  V30 6141 C 604.703 -1.85555 0.369599 0
M  V30 6142 O 604.046 -1.71375 -0.661525 0
M  V30 6143 C 604.108 -2.33839 2.73056 0
M  V30 6144 C 603.772 -1.89755 4.15743 0
M  V30 6145 C 604.769 -1.40268 5.0062 0
M  V30 6146 C 602.454 -1.97539 4.61826 0
M  V30 6147 C 604.448 -0.991474 6.29642 0
M  V30 6148 C 602.135 -1.56029 5.90845 0
M  V30 6149 C 603.133 -1.06915 6.7458 0
M  V30 6150 O 602.821 -0.659933 8.01187 0
M  V30 6151 H 602.553 -0.371133 0.56501 0
M  V30 6152 H 605.107 -0.528409 1.98487 0
M  V30 6153 H 603.337 -3.05345 2.37279 0
M  V30 6154 H 605.026 -2.95713 2.78044 0
M  V30 6155 H 605.792 -1.33652 4.66221 0
M  V30 6156 H 601.671 -2.34713 3.96776 0
M  V30 6157 H 605.215 -0.607425 6.9495 0
M  V30 6158 H 601.112 -1.62315 6.24759 0
M  V30 6159 H 601.88 -0.786052 8.14717 0
M  V30 6160 N 604.543 -1.41418 -0.695603 0
M  V30 6161 C 605.773 -1.43921 -1.48224 0
M  V30 6162 C 606.181 -0.0428855 -1.89151 0
M  V30 6163 O 605.524 0.948138 -1.5734 0
M  V30 6164 C 605.586 -2.28466 -2.77567 0
M  V30 6165 C 605.25 -3.76629 -2.58844 0
M  V30 6166 C 606.247 -4.6879 -2.24793 0
M  V30 6167 C 603.932 -4.2067 -2.74485 0
M  V30 6168 C 605.926 -6.02981 -2.06622 0
M  V30 6169 C 603.613 -5.54926 -2.55931 0
M  V30 6170 C 604.611 -6.45897 -2.2205 0
M  V30 6171 O 604.299 -7.77675 -2.03657 0
M  V30 6172 H 604.031 -0.492252 -0.463318 0
M  V30 6173 H 606.585 -1.86347 -0.863952 0
M  V30 6174 H 604.815 -1.80853 -3.41802 0
M  V30 6175 H 606.504 -2.2267 -3.39371 0
M  V30 6176 H 607.27 -4.36055 -2.12323 0
M  V30 6177 H 603.149 -3.50167 -2.9984 0
M  V30 6178 H 606.693 -6.73951 -1.80099 0
M  V30 6179 H 602.59 -5.8724 -2.67991 0
M  V30 6180 H 603.358 -7.88819 -2.1842 0
M  V30 6181 N 606.021 0.929856 -1.27246 0
M  V30 6182 C 607.249 1.71144 -1.16265 0
M  V30 6183 C 607.664 1.867 0.280786 0
M  V30 6184 O 607.021 1.38249 1.19136 0
M  V30 6185 C 607.072 3.11222 -1.83911 0
M  V30 6186 O 606.793 2.96398 -3.22614 0
M  V30 6187 C 608.294 4.05541 -1.79028 0
M  V30 6188 H 605.514 0.535499 -0.404328 0
M  V30 6189 H 608.058 1.16492 -1.68077 0
M  V30 6190 H 606.213 3.6274 -1.36009 0
M  V30 6191 H 606.627 3.8494 -3.56261 0
M  V30 6192 H 608.101 5.01351 -2.30978 0
M  V30 6193 H 608.578 4.32589 -0.759168 0
M  V30 6194 H 609.184 3.59947 -2.26535 0
M  V30 6195 N 607.499 1.09233 1.13605 0
M  V30 6196 C 608.776 0.739633 1.81077 0
M  V30 6197 C 609.156 -0.775595 1.96336 0
M  V30 6198 O 608.504 -1.69726 1.52988 0
M  V30 6199 C 608.714 1.47636 3.16235 0
M  V30 6200 C 610.062 1.64087 3.91613 0
M  V30 6201 O 611.086 1.43871 3.25852 0
M  V30 6202 O 609.945 1.97511 5.0956 0
M  V30 6203 H 607.039 0.265464 0.783236 0
M  V30 6204 H 609.585 1.19441 1.20549 0
M  V30 6205 H 608.357 2.50818 3.00344 0
M  V30 6206 H 607.98 1.01362 3.84462 0
M  V30 6207 N 608.977 -1.30795 0.87923 0
M  V30 6208 C 610.224 -1.96362 0.494786 0
M  V30 6209 C 610.552 -1.69448 -0.954868 0
M  V30 6210 O 609.807 -0.988711 -1.68888 0
M  V30 6211 C 610.106 -3.50287 0.709476 0
M  V30 6212 C 609.772 -3.9724 2.13333 0
M  V30 6213 C 608.434 -4.09772 2.52271 0
M  V30 6214 C 610.786 -4.21807 3.06151 0
M  V30 6215 C 608.114 -4.44227 3.83248 0
M  V30 6216 C 610.466 -4.5773 4.36654 0
M  V30 6217 C 609.13 -4.68469 4.75492 0
M  V30 6218 H 608.4 -0.71854 0.181055 0
M  V30 6219 H 611.047 -1.55764 1.11399 0
M  V30 6220 H 609.352 -3.91799 0.0072 0
M  V30 6221 H 611.049 -3.99082 0.391703 0
M  V30 6222 H 607.639 -3.87988 1.82107 0
M  V30 6223 H 611.823 -4.11611 2.77291 0
M  V30 6224 H 607.079 -4.50741 4.13089 0
M  V30 6225 H 611.253 -4.7569 5.08617 0
M  V30 6226 H 608.88 -4.94923 5.77022 0
M  V30 6227 N 610.455 -0.639598 -1.44038 0
M  V30 6228 C 611.418 0.0506628 -2.29144 0
M  V30 6229 C 612.418 0.764001 -1.41491 0
M  V30 6230 O 613.608 0.607309 -1.63271 0
M  V30 6231 C 610.74 1.0824 -3.2326 0
M  V30 6232 H 611.933 -0.697987 -2.91664 0
M  V30 6233 H 609.486 -0.400146 -1.51091 0
M  V30 6234 H 610.221 1.86075 -2.65606 0
M  V30 6235 H 610.006 0.574725 -3.87865 0
M  V30 6236 H 611.496 1.56487 -3.87171 0
M  V30 6237 N 611.933 1.52934 -0.380664 0
M  V30 6238 C 612.843 2.29921 0.466192 0
M  V30 6239 C 613.859 1.36488 1.07922 0
M  V30 6240 O 615.035 1.69553 1.0869 0
M  V30 6241 C 612.1 3.08468 1.58266 0
M  V30 6242 C 611.161 4.17595 0.995627 0
M  V30 6243 C 610.394 4.92387 2.05889 0
M  V30 6244 O 610.617 4.67184 3.27254 0
M  V30 6245 O 609.551 5.77949 1.68102 0
M  V30 6246 H 613.377 3.03274 -0.160735 0
M  V30 6247 H 610.962 1.48698 -0.144617 0
M  V30 6248 H 612.844 3.57469 2.23145 0
M  V30 6249 H 611.519 2.37937 2.19471 0
M  V30 6250 H 610.426 3.72811 0.310332 0
M  V30 6251 H 611.759 4.90336 0.427918 0
M  V30 6252 N 613.412 0.11024 1.57214 0
M  V30 6253 C 614.66 -0.548783 1.94506 0
M  V30 6254 C 614.981 -1.67772 0.99386 0
M  V30 6255 O 614.251 -1.9584 0.0485841 0
M  V30 6256 H 612.831 -0.205715 0.718116 0
M  V30 6257 H 615.493 0.177127 1.94093 0
M  V30 6258 H 614.589 -0.949096 2.97319 0
M  V30 6259 N 614.89 -1.56749 -0.16351 0
M  V30 6260 C 615.82 -2.00042 -1.20438 0
M  V30 6261 C 616.801 -0.877256 -1.45733 0
M  V30 6262 O 617.986 -1.1439 -1.56935 0
M  V30 6263 C 615.116 -2.36697 -2.54149 0
M  V30 6264 C 614.07 -3.52046 -2.43408 0
M  V30 6265 C 613.396 -3.74466 -3.81679 0
M  V30 6266 C 614.696 -4.85247 -1.93216 0
M  V30 6267 H 616.39 -2.87244 -0.844477 0
M  V30 6268 H 613.936 -1.38194 -0.40478 0
M  V30 6269 H 615.889 -2.65582 -3.27176 0
M  V30 6270 H 614.613 -1.46414 -2.91943 0
M  V30 6271 H 613.272 -3.23301 -1.72834 0
M  V30 6272 H 612.92 -2.81461 -4.1688 0
M  V30 6273 H 612.62 -4.52084 -3.75359 0
M  V30 6274 H 614.144 -4.0576 -4.5628 0
M  V30 6275 H 615.558 -5.12957 -2.56023 0
M  V30 6276 H 613.955 -5.66556 -1.97825 0
M  V30 6277 H 615.025 -4.7672 -0.88689 0
M  V30 6278 N 616.368 0.432326 -1.51554 0
M  V30 6279 C 617.779 1.01202 -1.56892 0
M  V30 6280 C 618.13 1.92175 -0.395394 0
M  V30 6281 O 617.255 2.10844 0.487198 0
M  V30 6282 C 617.85 1.84217 -2.8434 0
M  V30 6283 C 616.409 2.37228 -2.92233 0
M  V30 6284 C 615.556 1.16576 -2.51606 0
M  V30 6285 H 618.507 0.213407 -1.57259 0
M  V30 6286 H 618.528 2.69721 -2.68385 0
M  V30 6287 H 618.04 1.17979 -3.69733 0
M  V30 6288 H 616.141 3.06905 -2.11282 0
M  V30 6289 H 616.254 2.69682 -3.95991 0
M  V30 6290 H 614.618 1.51263 -2.04919 0
M  V30 6291 H 615.401 0.519404 -3.39348 0
M  V30 6292 N 617.846 1.41785 0.688094 0
M  V30 6293 C 618.793 1.44221 1.80191 0
M  V30 6294 C 619.763 0.295688 1.63447 0
M  V30 6295 O 620.948 0.49783 1.84191 0
M  V30 6296 C 618.088 1.33743 3.1813 0
M  V30 6297 C 617.201 2.58325 3.46254 0
M  V30 6298 C 616.336 2.40086 4.73848 0
M  V30 6299 C 615.375 3.60107 4.94964 0
M  V30 6300 N 614.512 3.40892 6.13789 0
M  V30 6301 H 619.352 2.39411 1.77444 0
M  V30 6302 H 616.889 1.18876 0.866423 0
M  V30 6303 H 618.847 1.25669 3.97823 0
M  V30 6304 H 617.477 0.42157 3.20035 0
M  V30 6305 H 616.529 2.7682 2.60912 0
M  V30 6306 H 617.841 3.4758 3.57756 0
M  V30 6307 H 616.995 2.29522 5.61609 0
M  V30 6308 H 615.734 1.483 4.64606 0
M  V30 6309 H 614.739 3.71118 4.05649 0
M  V30 6310 H 615.964 4.52857 5.06061 0
M  V30 6311 H 613.91 2.51812 6.05745 0
M  V30 6312 H 613.827 4.23727 6.26092 0
M  V30 6313 H 615.095 3.34114 7.04264 0
M  V30 6314 N 619.324 -0.923095 1.27737 0
M  V30 6315 C 620.601 -1.64989 1.05062 0
M  V30 6316 C 620.981 -2.07018 -0.413124 0
M  V30 6317 O 620.329 -1.80797 -1.39731 0
M  V30 6318 C 620.539 -2.84847 2.01652 0
M  V30 6319 C 621.887 -3.56083 2.31279 0
M  V30 6320 O 622.911 -2.94981 1.99662 0
M  V30 6321 O 621.77 -4.66182 2.85196 0
M  V30 6322 H 618.864 -0.723357 0.400853 0
M  V30 6323 H 621.41 -0.973224 1.3902 0
M  V30 6324 H 620.182 -2.50814 3.00347 0
M  V30 6325 H 619.805 -3.60231 1.68284 0
M  V30 6326 N 620.802 -1.09834 -1.13024 0
M  V30 6327 C 622.03 -0.858902 -1.8823 0
M  V30 6328 C 622.445 0.590164 -1.79339 0
M  V30 6329 O 621.802 1.4065 -1.16292 0
M  V30 6330 C 621.853 -1.29066 -3.37675 0
M  V30 6331 O 621.574 -2.6829 -3.46341 0
M  V30 6332 C 623.075 -1.08421 -4.29837 0
M  V30 6333 H 620.295 -0.308713 -0.595766 0
M  V30 6334 H 622.839 -1.4614 -1.4305 0
M  V30 6335 H 620.994 -0.731961 -3.80422 0
M  V30 6336 H 621.408 -2.86598 -4.39274 0
M  V30 6337 H 622.882 -1.43553 -5.33007 0
M  V30 6338 H 623.359 -0.0223315 -4.39194 0
M  V30 6339 H 623.965 -1.62907 -3.92863 0
M  V30 6340 N 622.28 1.30327 -0.886154 0
M  V30 6341 C 623.526 1.96388 -0.505941 0
M  V30 6342 C 623.859 1.69784 0.942712 0
M  V30 6343 O 623.134 1.00322 1.6663 0
M  V30 6344 C 623.417 3.51488 -0.782826 0
M  V30 6345 C 623.27 3.87603 -2.28219 0
M  V30 6346 C 624.589 4.39331 -0.260128 0
M  V30 6347 H 621.708 0.713327 -0.185292 0
M  V30 6348 H 624.35 1.54178 -1.11036 0
M  V30 6349 H 622.5 3.87572 -0.268399 0
M  V30 6350 H 624.172 3.61537 -2.86512 0
M  V30 6351 H 622.415 3.3563 -2.74837 0
M  V30 6352 H 623.086 4.95806 -2.42653 0
M  V30 6353 H 625.562 4.10162 -0.700444 0
M  V30 6354 H 624.438 5.46769 -0.483179 0
M  V30 6355 H 624.699 4.34072 0.838674 0
M  V30 6356 N 623.758 0.647228 1.43697 0
M  V30 6357 C 625.007 0.155552 2.01099 0
M  V30 6358 C 625.32 -1.23569 1.51624 0
M  V30 6359 O 626.526 -1.82226 2.01261 0
M  V30 6360 C 624.982 0.227296 3.59182 0
M  V30 6361 C 624.59 1.62086 4.17651 0
M  V30 6362 C 626.334 -0.207085 4.23995 0
M  V30 6363 C 624.241 1.64685 5.68008 0
M  V30 6364 H 623.171 0.0543895 0.752036 0
M  V30 6365 H 625.822 0.808386 1.64734 0
M  V30 6366 H 624.204 -0.492937 3.9292 0
M  V30 6367 H 625.378 2.36597 3.95422 0
M  V30 6368 H 623.693 2.0007 3.65186 0
M  V30 6369 H 626.29 -0.207426 5.34298 0
M  V30 6370 H 626.633 -1.23742 3.97484 0
M  V30 6371 H 627.166 0.461193 3.95118 0
M  V30 6372 H 623.905 2.65608 5.99277 0
M  V30 6373 H 623.425 0.944914 5.9231 0
M  V30 6374 H 625.104 1.38792 6.31938 0
M  V30 6375 N 625.236 -1.5273 0.388769 0
M  V30 6376 C 626.166 -2.29353 -0.438111 0
M  V30 6377 C 627.147 -1.32719 -1.06394 0
M  V30 6378 O 628.332 -1.61612 -1.07681 0
M  V30 6379 C 625.462 -3.09995 -1.56589 0
M  V30 6380 C 624.416 -4.14509 -1.06613 0
M  V30 6381 C 623.742 -4.83372 -2.28594 0
M  V30 6382 C 625.042 -5.22127 -0.134459 0
M  V30 6383 H 626.736 -2.98723 0.201206 0
M  V30 6384 H 624.282 -1.43665 0.0982089 0
M  V30 6385 H 626.235 -3.62357 -2.15118 0
M  V30 6386 H 624.959 -2.38357 -2.23279 0
M  V30 6387 H 623.618 -3.63128 -0.503383 0
M  V30 6388 H 623.266 -4.08283 -2.93792 0
M  V30 6389 H 622.966 -5.54012 -1.95817 0
M  V30 6390 H 624.49 -5.38538 -2.87766 0
M  V30 6391 H 625.904 -5.69851 -0.627914 0
M  V30 6392 H 624.301 -6.00011 0.103534 0
M  V30 6393 H 625.371 -4.77971 0.816798 0
M  V30 6394 N 626.714 -0.118576 -1.57153 0
M  V30 6395 C 627.942 0.54726 -1.99531 0
M  V30 6396 C 628.357 1.60251 -0.998246 0
M  V30 6397 O 627.714 1.82498 0.00893106 0
M  V30 6398 C 627.765 1.17378 -3.41913 0
M  V30 6399 O 627.486 0.160703 -4.37805 0
M  V30 6400 C 628.987 1.92297 -3.9942 0
M  V30 6401 H 626.207 0.144919 -0.655164 0
M  V30 6402 H 628.751 -0.20479 -2.03472 0
M  V30 6403 H 626.906 1.87661 -3.38913 0
M  V30 6404 H 627.32 0.61586 -5.20872 0
M  V30 6405 H 628.794 2.31462 -5.01128 0
M  V30 6406 H 629.271 2.79801 -3.38538 0
M  V30 6407 H 629.877 1.26777 -4.05965 0
M  V30 6408 N 628.193 1.56834 0.155195 0
M  V30 6409 C 629.156 1.96748 1.17571 0
M  V30 6410 C 630.156 0.853006 1.3631 0
M  V30 6411 O 631.346 1.11978 1.33441 0
M  V30 6412 C 628.478 2.27631 2.53765 0
M  V30 6413 H 629.671 2.88085 0.833498 0
M  V30 6414 H 627.224 1.51141 0.398242 0
M  V30 6415 H 627.959 1.39059 2.92973 0
M  V30 6416 H 627.744 3.0888 2.41527 0
M  V30 6417 H 629.234 2.59377 3.27282 0
M  V30 6418 N 629.671 -0.424282 1.51781 0
M  V30 6419 C 630.919 -1.17028 1.64769 0
M  V30 6420 C 631.24 -1.91409 0.372523 0
M  V30 6421 O 630.51 -1.86091 -0.612108 0
M  V30 6422 H 629.09 -0.434992 0.607282 0
M  V30 6423 H 631.752 -0.485169 1.88765 0
M  V30 6424 H 630.848 -1.8927 2.4816 0
M  V30 6425 N 631.149 -1.42148 -0.680565 0
M  V30 6426 C 632.389 -1.4379 -1.45271 0
M  V30 6427 C 632.753 -0.0504426 -1.91934 0
M  V30 6428 O 633.954 0.0583916 -2.68737 0
M  V30 6429 C 632.225 -2.42904 -2.62168 0
M  V30 6430 S 633.784 -2.63201 -3.51099 0
M  V30 6431 H 630.602 -0.509185 -0.496237 0
M  V30 6432 H 633.204 -1.78706 -0.792744 0
M  V30 6433 H 631.908 -3.4249 -2.26116 0
M  V30 6434 H 631.439 -2.09394 -3.33043 0
M  V30 6435 H 633.454 -1.91068 -4.57938 0
M  V30 6436 N 632.627 0.916307 -1.28225 0
M  V30 6437 C 633.59 1.99996 -1.11957 0
M  V30 6438 C 634.59 1.60688 -0.0600152 0
M  V30 6439 O 635.78 1.71499 -0.30558 0
M  V30 6440 C 632.912 3.33458 -0.708411 0
M  V30 6441 H 634.105 2.15858 -2.08196 0
M  V30 6442 H 631.658 1.09863 -1.11175 0
M  V30 6443 H 632.393 3.23297 0.254859 0
M  V30 6444 H 632.178 3.63349 -1.47377 0
M  V30 6445 H 633.668 4.13014 -0.617164 0
M  V30 6446 N 634.105 1.10431 1.1244 0
M  V30 6447 C 635.052 0.753103 2.18167 0
M  V30 6448 C 636.022 -0.270549 1.63882 0
M  V30 6449 O 637.207 -0.149837 1.90211 0
M  V30 6450 C 634.347 0.191046 3.44571 0
M  V30 6451 C 633.46 1.26999 4.12911 0
M  V30 6452 C 632.595 0.669586 5.26963 0
M  V30 6453 C 631.634 1.72912 5.87169 0
M  V30 6454 N 630.771 1.14898 6.92635 0
M  V30 6455 H 635.611 1.65892 2.47556 0
M  V30 6456 H 633.148 0.828631 1.21541 0
M  V30 6457 H 635.106 -0.152712 4.1692 0
M  V30 6458 H 633.736 -0.677997 3.15599 0
M  V30 6459 H 632.788 1.73087 3.3874 0
M  V30 6460 H 634.1 2.07204 4.53727 0
M  V30 6461 H 633.254 0.275274 6.06075 0
M  V30 6462 H 631.993 -0.163895 4.87425 0
M  V30 6463 H 630.998 2.13286 5.06744 0
M  V30 6464 H 632.223 2.56544 6.28778 0
M  V30 6465 H 630.169 0.336956 6.55134 0
M  V30 6466 H 630.086 1.88786 7.32049 0
M  V30 6467 H 631.354 0.78121 7.75576 0
M  V30 6468 N 635.583 -1.29855 0.893053 0
M  V30 6469 C 636.813 -1.99686 0.530019 0
M  V30 6470 C 637.221 -1.67066 -0.888012 0
M  V30 6471 O 636.564 -0.908366 -1.5967 0
M  V30 6472 C 636.626 -3.53855 0.63457 0
M  V30 6473 C 636.29 -4.10013 2.01837 0
M  V30 6474 C 637.287 -4.25406 2.98874 0
M  V30 6475 C 634.972 -4.45202 2.32595 0
M  V30 6476 C 636.966 -4.7521 4.24799 0
M  V30 6477 C 634.653 -4.94704 3.58763 0
M  V30 6478 C 635.651 -5.09662 4.5468 0
M  V30 6479 O 635.339 -5.58093 5.78608 0
M  V30 6480 H 635.071 -0.644913 0.20264 0
M  V30 6481 H 637.625 -1.66518 1.20253 0
M  V30 6482 H 635.855 -3.86583 -0.0949477 0
M  V30 6483 H 637.544 -4.04922 0.281648 0
M  V30 6484 H 638.31 -3.98515 2.76425 0
M  V30 6485 H 634.189 -4.32822 1.58701 0
M  V30 6486 H 637.733 -4.86801 4.99671 0
M  V30 6487 H 633.63 -5.21032 3.81046 0
M  V30 6488 H 634.398 -5.7642 5.81104 0
M  V30 6489 N 637.061 -0.65484 -1.43351 0
M  V30 6490 C 638.477 -0.32255 -1.56307 0
M  V30 6491 C 638.677 1.17324 -1.63821 0
M  V30 6492 O 637.733 1.95813 -1.59417 0
M  V30 6493 C 639.046 -1.03533 -2.82314 0
M  V30 6494 C 640.594 -1.01574 -2.9606 0
M  V30 6495 C 641.069 -1.70945 -4.24902 0
M  V30 6496 N 642.56 -1.67716 -4.3177 0
M  V30 6497 C 643.295 -2.18265 -5.30234 0
M  V30 6498 N 642.791 -2.7711 -6.34966 0
M  V30 6499 N 644.584 -2.08756 -5.21898 0
M  V30 6500 H 636.735 -1.62549 -1.36717 0
M  V30 6501 H 638.998 -0.683676 -0.656727 0
M  V30 6502 H 638.704 -2.09045 -2.8283 0
M  V30 6503 H 638.578 -0.587913 -3.7259 0
M  V30 6504 H 640.965 0.0309834 -2.95084 0
M  V30 6505 H 641.046 -1.50186 -2.07069 0
M  V30 6506 H 640.69 -2.75574 -4.26639 0
M  V30 6507 H 640.62 -1.19797 -5.12793 0
M  V30 6508 H 643.111 -1.24777 -3.56706 0
M  V30 6509 H 643.424 -3.13353 -7.06421 0
M  V30 6510 H 641.769 -2.81171 -6.35585 0
M  V30 6511 H 644.96 -1.62488 -4.38994 0
M  V30 6512 H 645.133 -2.48459 -5.98475 0
M  V30 6513 N 638.539 1.52521 -0.396863 0
M  V30 6514 C 639.769 2.05792 0.182485 0
M  V30 6515 C 640.177 1.26784 1.40436 0
M  V30 6516 O 639.52 0.309617 1.81072 0
M  V30 6517 C 639.582 3.54291 0.609781 0
M  V30 6518 C 639.246 4.5426 -0.499674 0
M  V30 6519 C 640.243 5.01812 -1.35944 0
M  V30 6520 C 637.928 4.97827 -0.668864 0
M  V30 6521 C 639.922 5.91562 -2.37346 0
M  V30 6522 C 637.609 5.87376 -1.68621 0
M  V30 6523 C 638.607 6.34137 -2.53692 0
M  V30 6524 O 638.295 7.21915 -3.53686 0
M  V30 6525 H 638.027 0.675362 0.0293583 0
M  V30 6526 H 640.581 1.97539 -0.56281 0
M  V30 6527 H 638.811 3.60188 1.40717 0
M  V30 6528 H 640.5 3.90267 1.11565 0
M  V30 6529 H 641.266 4.68879 -1.24008 0
M  V30 6530 H 637.145 4.60997 -0.0163971 0
M  V30 6531 H 640.689 6.27983 -3.03782 0
M  V30 6532 H 636.586 6.19723 -1.80593 0
M  V30 6533 H 637.354 7.39996 -3.49784 0
M  V30 6534 N 640.017 0.126909 1.57088 0
M  V30 6535 C 640.965 -0.837618 2.16995 0
M  V30 6536 C 641.959 -1.26974 1.12133 0
M  V30 6537 O 643.165 -1.24056 1.30423 0
M  V30 6538 H 639.54 -0.288256 0.694559 0
M  V30 6539 H 641.511 -0.307957 2.96807 0
M  V30 6540 C 640.26 -2.07474 2.79016 0
M  V30 6541 H 639.583 -1.75117 3.59408 0
M  V30 6542 H 641.023 -2.72949 3.24461 0
M  V30 6543 C 639.482 -2.86967 1.76498 0
M  V30 6544 O 640.012 -3.82625 1.22316 0
M  V30 6545 N 638.218 -2.51111 1.46258 0
M  V30 6546 H 637.765 -1.73389 1.90509 0
M  V30 6547 H 637.723 -3.04594 0.779085 0
M  V30 6548 N 641.495 -1.56914 -0.146875 0
M  V30 6549 C 642.442 -1.98275 -1.18134 0
M  V30 6550 C 643.412 -0.850367 -1.42681 0
M  V30 6551 O 644.597 -1.11244 -1.55014 0
M  V30 6552 C 641.737 -2.36861 -2.5098 0
M  V30 6553 C 640.85 -3.63391 -2.33605 0
M  V30 6554 C 639.985 -3.91079 -3.59486 0
M  V30 6555 C 639.024 -5.10879 -3.37149 0
M  V30 6556 N 638.161 -5.34577 -4.55161 0
M  V30 6557 H 643.001 -2.8645 -0.821622 0
M  V30 6558 H 640.538 -1.41718 -0.394248 0
M  V30 6559 H 642.496 -2.57262 -3.28439 0
M  V30 6560 H 641.126 -1.51766 -2.84898 0
M  V30 6561 H 640.178 -3.50766 -1.47199 0
M  V30 6562 H 641.49 -4.51007 -2.13059 0
M  V30 6563 H 640.644 -4.11979 -4.45374 0
M  V30 6564 H 639.383 -3.01885 -3.83036 0
M  V30 6565 H 638.388 -4.89853 -2.49649 0
M  V30 6566 H 639.613 -6.01626 -3.14997 0
M  V30 6567 H 637.559 -4.48337 -4.78884 0
M  V30 6568 H 637.476 -6.16463 -4.37618 0
M  V30 6569 H 638.744 -5.59975 -5.42263 0
M  V30 6570 N 642.974 0.416227 -1.52004 0
M  V30 6571 C 643.904 1.51365 -1.77795 0
M  V30 6572 C 644.885 1.58059 -0.628601 0
M  V30 6573 O 646.07 1.73447 -0.873478 0
M  V30 6574 C 643.2 2.89256 -1.92219 0
M  V30 6575 C 642.154 2.97415 -3.0778 0
M  V30 6576 C 641.48 4.37492 -3.07417 0
M  V30 6577 C 642.78 2.69551 -4.47369 0
M  V30 6578 H 644.474 1.30033 -2.69688 0
M  V30 6579 H 642.02 0.624112 -1.29772 0
M  V30 6580 H 643.973 3.66008 -2.08845 0
M  V30 6581 H 642.697 3.11866 -0.969917 0
M  V30 6582 H 641.356 2.23107 -2.90893 0
M  V30 6583 H 641.004 4.571 -2.09925 0
M  V30 6584 H 640.704 4.43877 -3.85029 0
M  V30 6585 H 642.228 5.16188 -3.26162 0
M  V30 6586 H 643.642 3.36028 -4.64497 0
M  V30 6587 H 642.039 2.87321 -5.26846 0
M  V30 6588 H 643.109 1.65029 -4.55953 0
M  V30 6589 N 644.452 1.42507 0.673017 0
M  V30 6590 C 645.4 1.46362 1.80779 0
M  V30 6591 C 646.394 0.339166 1.6597 0
M  V30 6592 O 647.6 0.512262 1.72557 0
M  V30 6593 H 643.975 0.458433 0.596107 0
M  V30 6594 H 645.946 2.41953 1.74646 0
M  V30 6595 C 644.695 1.38462 3.18941 0
M  V30 6596 H 644.018 2.24283 3.30964 0
M  V30 6597 H 645.458 1.45221 3.98355 0
M  V30 6598 C 643.917 0.0996354 3.36753 0
M  V30 6599 O 644.447 -0.846894 3.92671 0
M  V30 6600 N 642.653 0.016211 2.90595 0
M  V30 6601 H 642.2 0.78725 2.45276 0
M  V30 6602 H 642.158 -0.84291 3.0289 0
M  V30 6603 N 645.93 -0.909495 1.28709 0
M  V30 6604 C 646.86 -2.0291 1.15542 0
M  V30 6605 C 647.841 -1.7002 0.0521017 0
M  V30 6606 O 649.026 -1.92835 0.229849 0
M  V30 6607 C 646.156 -3.37458 0.820935 0
M  V30 6608 C 645.11 -3.84524 1.87949 0
M  V30 6609 C 644.436 -5.16086 1.39854 0
M  V30 6610 C 645.736 -4.05918 3.28676 0
M  V30 6611 H 647.43 -2.14183 2.09203 0
M  V30 6612 H 644.976 -1.02913 1.00722 0
M  V30 6613 H 646.929 -4.1528 0.715571 0
M  V30 6614 H 645.653 -3.26249 -0.151374 0
M  V30 6615 H 644.312 -3.08911 1.97408 0
M  V30 6616 H 643.96 -5.01284 0.41518 0
M  V30 6617 H 643.66 -5.48547 2.1064 0
M  V30 6618 H 645.184 -5.96459 1.30649 0
M  V30 6619 H 646.598 -4.74252 3.22115 0
M  V30 6620 H 644.995 -4.49717 3.97334 0
M  V30 6621 H 646.065 -3.10583 3.72379 0
M  V30 6622 N 647.408 -1.11026 -1.11852 0
M  V30 6623 C 648.656 -0.854769 -1.83134 0
M  V30 6624 C 648.977 0.621375 -1.84835 0
M  V30 6625 O 648.247 1.45129 -1.31584 0
M  V30 6626 H 646.827 -0.313229 -0.678157 0
M  V30 6627 H 649.489 -1.40178 -1.35411 0
M  V30 6628 H 648.585 -1.22311 -2.87135 0
M  V30 6629 N 648.886 1.2938 -0.899927 0
M  V30 6630 C 650.163 1.9046 -0.445443 0
M  V30 6631 C 650.543 1.81683 1.07492 0
M  V30 6632 O 649.891 1.24371 1.91688 0
M  V30 6633 C 650.101 3.35529 -0.960279 0
M  V30 6634 C 651.449 4.12556 -1.00412 0
M  V30 6635 O 652.473 3.44434 -0.907965 0
M  V30 6636 O 651.332 5.34294 -1.14857 0
M  V30 6637 H 648.426 0.815253 -0.138893 0
M  V30 6638 H 650.972 1.37844 -0.989808 0
M  V30 6639 H 649.744 3.36074 -2.00425 0
M  V30 6640 H 649.367 3.95624 -0.395939 0
M  V30 6641 N 650.364 0.662433 1.43002 0
M  V30 6642 C 651.613 0.176873 2.00923 0
M  V30 6643 C 651.926 -1.21954 1.52927 0
M  V30 6644 O 653.132 -1.80081 2.03182 0
M  V30 6645 C 651.588 0.265379 3.5892 0
M  V30 6646 C 651.196 1.66507 4.15908 0
M  V30 6647 C 652.94 -0.162103 4.2419 0
M  V30 6648 C 650.847 1.707 5.66229 0
M  V30 6649 H 649.777 0.0623627 0.751417 0
M  V30 6650 H 652.428 0.825813 1.63868 0
M  V30 6651 H 650.81 -0.451235 3.93421 0
M  V30 6652 H 651.984 2.40777 3.92891 0
M  V30 6653 H 650.299 2.03932 3.63044 0
M  V30 6654 H 652.896 -0.150745 5.34487 0
M  V30 6655 H 653.239 -1.19519 3.98774 0
M  V30 6656 H 653.772 0.503075 3.94606 0
M  V30 6657 H 650.511 2.7195 5.96426 0
M  V30 6658 H 650.031 1.00768 5.91275 0
M  V30 6659 H 651.71 1.45487 6.3043 0
M  V30 6660 N 651.842 -1.52309 0.404946 0
M  V30 6661 C 653.09 -2.01368 -0.17186 0
M  V30 6662 C 653.411 -1.29261 -1.46002 0
M  V30 6663 O 652.681 -0.41729 -1.91404 0
M  V30 6664 H 651.261 -0.744034 -0.0664993 0
M  V30 6665 H 653.923 -1.87263 0.540228 0
M  V30 6666 H 653.019 -3.09888 -0.370957 0
M  V30 6667 N 653.32 -0.135238 -1.57019 0
M  V30 6668 C 654.568 0.51777 -1.95355 0
M  V30 6669 C 654.889 1.6617 -1.02042 0
M  V30 6670 O 654.159 1.95738 -0.0797343 0
M  V30 6671 H 652.739 0.194264 -0.721298 0
M  V30 6672 H 655.401 -0.207983 -1.93787 0
M  V30 6673 H 654.497 0.901675 -2.98791 0
M  V30 6674 N 654.798 1.5699 0.138552 0
M  V30 6675 C 656.047 1.82998 0.848205 0
M  V30 6676 C 656.36 0.717829 1.81952 0
M  V30 6677 O 657.566 0.863756 2.57394 0
M  V30 6678 C 656.022 3.24379 1.55904 0
M  V30 6679 C 655.63 4.43552 0.62971 0
M  V30 6680 C 657.374 3.59654 2.25498 0
M  V30 6681 C 655.281 5.75957 1.34266 0
M  V30 6682 H 654.211 0.682495 0.320495 0
M  V30 6683 H 656.862 1.83222 0.100924 0
M  V30 6684 H 655.244 3.18567 2.35226 0
M  V30 6685 H 656.418 4.6062 -0.128882 0
M  V30 6686 H 654.733 4.16379 0.0417526 0
M  V30 6687 H 657.33 4.55837 2.79493 0
M  V30 6688 H 657.673 2.86124 3.02388 0
M  V30 6689 H 658.206 3.67164 1.53087 0
M  V30 6690 H 654.945 6.52604 0.615441 0
M  V30 6691 H 654.465 5.62811 2.07375 0
M  V30 6692 H 656.144 6.19046 1.88126 0
M  V30 6693 N 656.276 -0.40816 1.52223 0
M  V30 6694 C 657.687 -0.986929 1.58482 0
M  V30 6695 C 658.038 -1.91521 0.425917 0
M  V30 6696 O 657.163 -2.11593 -0.453593 0
M  V30 6697 C 657.758 -1.7967 2.87235 0
M  V30 6698 C 656.317 -2.32549 2.9597 0
M  V30 6699 C 655.464 -1.12558 2.53428 0
M  V30 6700 H 658.415 -0.188362 1.57578 0
M  V30 6701 H 658.436 -2.65417 2.72642 0
M  V30 6702 H 657.948 -1.12082 3.71563 0
M  V30 6703 H 656.049 -3.03505 2.16137 0
M  V30 6704 H 656.162 -2.63348 4.00231 0
M  V30 6705 H 654.526 -1.47984 2.07299 0
M  V30 6706 H 655.309 -0.465351 3.40131 0
M  V30 6707 N 657.755 -1.42862 -0.66545 0
M  V30 6708 C 659.171 -1.25993 -0.979687 0
M  V30 6709 C 659.371 -0.170831 -2.00775 0
M  V30 6710 O 658.427 0.454827 -2.4837 0
M  V30 6711 C 659.74 -2.62005 -1.47559 0
M  V30 6712 C 661.288 -2.69437 -1.59288 0
M  V30 6713 C 661.763 -4.05838 -2.12272 0
M  V30 6714 N 663.254 -4.0784 -2.19592 0
M  V30 6715 C 663.989 -5.10205 -2.61684 0
M  V30 6716 N 663.485 -6.22949 -3.03161 0
M  V30 6717 N 665.278 -4.9756 -2.61516 0
M  V30 6718 H 657.429 -2.12395 0.0150493 0
M  V30 6719 H 659.692 -0.946355 -0.0558187 0
M  V30 6720 H 659.398 -3.42605 -0.794654 0
M  V30 6721 H 659.272 -2.86566 -2.45275 0
M  V30 6722 H 661.659 -1.89178 -2.26486 0
M  V30 6723 H 661.74 -2.48655 -0.600374 0
M  V30 6724 H 661.384 -4.86559 -1.4568 0
M  V30 6725 H 661.314 -4.23977 -3.12331 0
M  V30 6726 H 663.805 -3.26452 -1.90361 0
M  V30 6727 H 664.118 -6.96899 -3.33993 0
M  V30 6728 H 662.463 -6.2644 -3.00995 0
M  V30 6729 H 665.654 -4.08551 -2.28481 0
M  V30 6730 H 665.827 -5.77468 -2.93999 0
M  V30 6731 N 659.233 0.902656 -1.29189 0
M  V30 6732 C 660.479 1.65532 -1.17163 0
M  V30 6733 C 660.812 1.92216 0.276879 0
M  V30 6734 O 660.087 1.53048 1.20027 0
M  V30 6735 C 660.37 3.00629 -1.98228 0
M  V30 6736 C 660.223 2.81029 -3.51202 0
M  V30 6737 C 661.542 4.01321 -1.80635 0
M  V30 6738 H 658.661 0.60071 -0.426985 0
M  V30 6739 H 661.303 1.04578 -1.5863 0
M  V30 6740 H 659.453 3.52656 -1.62991 0
M  V30 6741 H 661.125 2.35927 -3.96404 0
M  V30 6742 H 659.368 2.1587 -3.76275 0
M  V30 6743 H 660.039 3.77014 -4.03192 0
M  V30 6744 H 662.515 3.58394 -2.11406 0
M  V30 6745 H 661.391 4.93792 -2.3971 0
M  V30 6746 H 661.652 4.35505 -0.760754 0
M  V30 6747 N 660.711 1.11618 1.11262 0
M  V30 6748 C 661.641 0.79846 2.19424 0
M  V30 6749 C 662.622 -0.234003 1.68483 0
M  V30 6750 O 663.807 -0.0970704 1.93957 0
M  V30 6751 C 660.937 0.242892 3.4645 0
M  V30 6752 C 659.891 1.20744 4.10615 0
M  V30 6753 C 659.217 0.512494 5.32238 0
M  V30 6754 C 660.517 2.55884 4.55325 0
M  V30 6755 H 662.211 1.70286 2.46258 0
M  V30 6756 H 659.757 0.820195 1.18359 0
M  V30 6757 H 661.71 0.00840447 4.21399 0
M  V30 6758 H 660.434 -0.696811 3.1908 0
M  V30 6759 H 659.093 1.42759 3.37662 0
M  V30 6760 H 658.741 -0.432075 5.01141 0
M  V30 6761 H 658.441 1.15583 5.7612 0
M  V30 6762 H 659.965 0.286842 6.09926 0
M  V30 6763 H 661.379 2.37946 5.21588 0
M  V30 6764 H 659.776 3.16216 5.10027 0
M  V30 6765 H 660.846 3.14968 3.68678 0
M  V30 6766 N 662.189 -1.289 0.906776 0
M  V30 6767 C 663.466 -1.90221 0.455537 0
M  V30 6768 C 663.846 -1.82251 -1.06527 0
M  V30 6769 O 663.194 -1.25385 -1.91026 0
M  V30 6770 C 663.404 -3.35015 0.97806 0
M  V30 6771 C 664.752 -4.12018 1.02598 0
M  V30 6772 O 665.776 -3.43947 0.926218 0
M  V30 6773 O 664.635 -5.33677 1.17689 0
M  V30 6774 H 661.729 -0.814505 0.143214 0
M  V30 6775 H 664.275 -1.37317 0.997104 0
M  V30 6776 H 663.047 -3.35006 2.02204 0
M  V30 6777 H 662.67 -3.95408 0.416914 0
M  V30 6778 N 663.667 -0.670007 -1.42649 0
M  V30 6779 C 664.63 0.00204659 -2.292 0
M  V30 6780 C 665.63 0.733817 -1.4308 0
M  V30 6781 O 666.82 0.57254 -1.64522 0
M  V30 6782 C 663.952 1.01359 -3.25483 0
M  V30 6783 H 665.145 -0.759696 -2.90118 0
M  V30 6784 H 662.698 -0.432105 -1.50208 0
M  V30 6785 H 663.433 1.80399 -2.69493 0
M  V30 6786 H 663.218 0.492323 -3.88997 0
M  V30 6787 H 664.708 1.4824 -3.90403 0
M  V30 6788 N 665.145 1.52092 -0.413018 0
M  V30 6789 C 666.393 2.01456 0.161178 0
M  V30 6790 C 666.714 1.30034 1.45314 0
M  V30 6791 O 665.984 0.427435 1.9118 0
M  V30 6792 H 664.564 0.744376 0.0625526 0
M  V30 6793 H 667.226 1.86974 -0.550151 0
M  V30 6794 H 666.322 3.1008 0.354517 0
M  V30 6795 N 666.623 0.143563 1.56945 0
M  V30 6796 C 667.555 -0.828353 2.13708 0
M  V30 6797 C 668.568 -1.21313 1.08568 0
M  V30 6798 O 669.757 -1.1578 1.35857 0
M  V30 6799 C 666.857 -2.12248 2.64204 0
M  V30 6800 C 666.03 -1.90561 3.93707 0
M  V30 6801 C 665.089 -3.03931 4.29549 0
M  V30 6802 O 664.115 -2.75772 4.97934 0
M  V30 6803 N 665.317 -4.31016 3.88852 0
M  V30 6804 H 668.082 -0.343242 2.97728 0
M  V30 6805 H 665.643 -0.0401152 1.6185 0
M  V30 6806 H 667.635 -2.87132 2.85197 0
M  V30 6807 H 666.205 -2.52033 1.84928 0
M  V30 6808 H 665.425 -0.997327 3.81375 0
M  V30 6809 H 666.713 -1.73405 4.78339 0
M  V30 6810 H 666.111 -4.56762 3.33743 0
M  V30 6811 H 664.668 -5.02691 4.14903 0
M  V30 6812 N 668.101 -1.57061 -0.130224 0
M  V30 6813 C 669.341 -1.86071 -0.845993 0
M  V30 6814 C 669.705 -0.73009 -1.77577 0
M  V30 6815 O 670.906 -0.901663 -2.53226 0
M  V30 6816 C 669.177 -3.20293 -1.58579 0
M  V30 6817 S 670.736 -3.70905 -2.34467 0
M  V30 6818 H 667.554 -0.652434 -0.282579 0
M  V30 6819 H 670.156 -1.95218 -0.10498 0
M  V30 6820 H 668.86 -4.00533 -0.894509 0
M  V30 6821 H 668.391 -3.14195 -2.36739 0
M  V30 6822 H 670.406 -3.41509 -3.59981 0
M  V30 6823 N 669.579 0.400081 -1.52437 0
M  V30 6824 C 670.527 1.50851 -1.7705 0
M  V30 6825 C 671.521 1.56928 -0.637969 0
M  V30 6826 O 672.727 1.60226 -0.820212 0
M  V30 6827 H 669.102 0.50186 -0.560036 0
M  V30 6828 H 671.073 1.27281 -2.69893 0
M  V30 6829 C 669.822 2.88117 -1.94638 0
M  V30 6830 H 669.145 2.84187 -2.81208 0
M  V30 6831 H 670.585 3.64942 -2.15855 0
M  V30 6832 C 669.044 3.29206 -0.715899 0
M  V30 6833 O 669.574 4.01544 0.111944 0
M  V30 6834 N 667.78 2.85363 -0.549191 0
M  V30 6835 H 667.327 2.26664 -1.22397 0
M  V30 6836 H 667.285 3.13214 0.27278 0
M  V30 6837 N 671.057 1.43213 0.657864 0
M  V30 6838 C 672.334 1.35063 1.41483 0
M  V30 6839 C 672.714 -0.0038314 2.111 0
M  V30 6840 O 672.062 -1.02018 2.04462 0
M  V30 6841 C 672.272 2.53061 2.40335 0
M  V30 6842 C 673.62 2.9594 3.04474 0
M  V30 6843 O 674.644 2.53074 2.50663 0
M  V30 6844 O 673.503 3.70184 4.02027 0
M  V30 6845 H 670.597 0.533517 0.631893 0
M  V30 6846 H 673.143 1.55253 0.685162 0
M  V30 6847 H 671.915 3.43283 1.87809 0
M  V30 6848 H 671.538 2.34945 3.20759 0
M  V30 6849 N 672.536 -0.895792 1.29666 0
M  V30 6850 C 673.761 -1.68528 1.20885 0
M  V30 6851 C 674.186 -1.8673 -0.226595 0
M  V30 6852 O 673.544 -1.39044 -1.16347 0
M  V30 6853 C 673.592 -3.04512 1.93144 0
M  V30 6854 O 672.696 -3.92963 1.25115 0
M  V30 6855 H 672.037 -0.515371 0.418675 0
M  V30 6856 H 674.567 -1.11878 1.71302 0
M  V30 6857 H 674.577 -3.54628 2.0175 0
M  V30 6858 H 673.252 -2.90582 2.97548 0
M  V30 6859 H 671.829 -3.51399 1.24794 0
M  V30 6860 N 674.014 -1.12206 -1.10668 0
M  V30 6861 C 675.244 -0.897332 -1.86095 0
M  V30 6862 C 675.652 0.556778 -1.80822 0
M  V30 6863 O 674.995 1.39658 -1.19337 0
M  V30 6864 C 675.057 -1.29095 -3.35522 0
M  V30 6865 C 674.721 -2.75586 -3.64556 0
M  V30 6866 C 675.718 -3.73785 -3.6136 0
M  V30 6867 C 673.403 -3.12432 -3.93309 0
M  V30 6868 C 675.397 -5.06845 -3.86506 0
M  V30 6869 C 673.084 -4.45675 -4.18111 0
M  V30 6870 C 674.082 -5.42691 -4.147 0
M  V30 6871 O 673.77 -6.73532 -4.38873 0
M  V30 6872 H 673.502 -0.320704 -0.595084 0
M  V30 6873 H 676.056 -1.49517 -1.40833 0
M  V30 6874 H 674.286 -0.636299 -3.81429 0
M  V30 6875 H 675.975 -1.04073 -3.92331 0
M  V30 6876 H 676.741 -3.46664 -3.39189 0
M  V30 6877 H 672.62 -2.3753 -3.95096 0
M  V30 6878 H 676.164 -5.82559 -3.83758 0
M  V30 6879 H 672.061 -4.72526 -4.39761 0
M  V30 6880 H 672.829 -6.79442 -4.564 0
M  V30 6881 N 675.492 1.28418 -0.913599 0
M  V30 6882 C 676.717 1.99643 -0.561899 0
M  V30 6883 C 677.142 1.67819 0.849608 0
M  V30 6884 O 676.5 0.910503 1.56779 0
M  V30 6885 C 676.548 3.52116 -0.777622 0
M  V30 6886 O 675.652 4.12076 0.163457 0
M  V30 6887 H 674.993 0.627229 -0.217898 0
M  V30 6888 H 677.523 1.63575 -1.229 0
M  V30 6889 H 677.533 4.02163 -0.687666 0
M  V30 6890 H 676.208 3.74613 -1.8066 0
M  V30 6891 H 674.785 3.72892 0.0247827 0
M  V30 6892 N 676.97 0.677563 1.42291 0
M  V30 6893 C 677.9 0.014968 2.33495 0
M  V30 6894 C 678.881 -0.786376 1.50831 0
M  V30 6895 O 680.066 -0.742975 1.79426 0
M  V30 6896 C 677.196 -0.935023 3.34477 0
M  V30 6897 C 676.15 -0.242074 4.27315 0
M  V30 6898 C 675.476 -1.30519 5.18526 0
M  V30 6899 C 676.776 0.880604 5.14823 0
M  V30 6900 H 678.47 0.776671 2.89151 0
M  V30 6901 H 676.016 0.37494 1.39033 0
M  V30 6902 H 677.969 -1.40766 3.97194 0
M  V30 6903 H 676.693 -1.72818 2.77131 0
M  V30 6904 H 675.352 0.210351 3.65996 0
M  V30 6905 H 675 -2.09041 4.57505 0
M  V30 6906 H 674.7 -0.846652 5.81468 0
M  V30 6907 H 676.224 -1.7787 5.84119 0
M  V30 6908 H 677.638 0.489062 5.7121 0
M  V30 6909 H 676.035 1.26511 5.86613 0
M  V30 6910 H 677.105 1.72818 4.53059 0
M  V30 6911 N 678.448 -1.51871 0.421078 0
M  V30 6912 C 679.411 -2.25914 -0.386712 0
M  V30 6913 C 680.411 -1.28733 -0.963555 0
M  V30 6914 O 681.601 -1.52579 -0.840556 0
M  V30 6915 C 678.733 -3.03853 -1.54551 0
M  V30 6916 H 679.926 -2.98754 0.261978 0
M  V30 6917 H 677.479 -1.5533 0.173862 0
M  V30 6918 H 678.214 -2.35392 -2.23072 0
M  V30 6919 H 677.999 -3.75215 -1.13824 0
M  V30 6920 H 679.489 -3.59984 -2.11663 0
M  V30 6921 N 679.926 -0.151884 -1.56866 0
M  V30 6922 C 681.172 0.498742 -1.96572 0
M  V30 6923 C 681.505 1.64194 -1.03702 0
M  V30 6924 O 680.78 1.94334 -0.0803432 0
M  V30 6925 C 681.063 1.00027 -3.45929 0
M  V30 6926 C 680.916 -0.141767 -4.49577 0
M  V30 6927 C 682.235 1.88044 -3.97904 0
M  V30 6928 H 679.354 0.17982 -0.714726 0
M  V30 6929 H 681.996 -0.234097 -1.88552 0
M  V30 6930 H 680.146 1.62476 -3.52894 0
M  V30 6931 H 681.818 -0.778269 -4.54687 0
M  V30 6932 H 680.061 -0.80019 -4.26356 0
M  V30 6933 H 680.732 0.250947 -5.51429 0
M  V30 6934 H 683.208 1.35416 -3.93449 0
M  V30 6935 H 682.084 2.20043 -5.02864 0
M  V30 6936 H 682.345 2.81916 -3.40552 0
M  V30 6937 N 681.404 1.57128 0.121893 0
M  V30 6938 C 682.653 1.83888 0.828748 0
M  V30 6939 C 682.966 0.737087 1.81181 0
M  V30 6940 O 684.172 0.891007 2.56463 0
M  V30 6941 C 682.628 3.26014 1.52455 0
M  V30 6942 C 682.236 4.44195 0.58263 0
M  V30 6943 C 683.98 3.62025 2.21671 0
M  V30 6944 C 681.887 5.77349 1.28149 0
M  V30 6945 H 680.817 0.685856 0.313238 0
M  V30 6946 H 683.468 1.83319 0.0814851 0
M  V30 6947 H 681.85 3.21044 2.31834 0
M  V30 6948 H 683.024 4.60457 -0.177729 0
M  V30 6949 H 681.339 4.164 -0.00241228 0
M  V30 6950 H 683.936 4.58776 2.74643 0
M  V30 6951 H 684.279 2.89315 2.99337 0
M  V30 6952 H 684.812 3.68767 1.49184 0
M  V30 6953 H 681.551 6.53221 0.546189 0
M  V30 6954 H 681.071 5.64978 2.01394 0
M  V30 6955 H 682.75 6.21006 1.81549 0
M  V30 6956 N 682.882 -0.391992 1.52647 0
M  V30 6957 C 683.845 -1.46135 1.7657 0
M  V30 6958 C 684.845 -1.47701 0.635698 0
M  V30 6959 O 686.035 -1.48924 0.903728 0
M  V30 6960 C 683.167 -2.85443 1.86374 0
M  V30 6961 H 684.36 -1.26208 2.72051 0
M  V30 6962 H 681.913 -0.623549 1.43323 0
M  V30 6963 H 682.648 -3.10718 0.928685 0
M  V30 6964 H 682.433 -2.85708 2.68539 0
M  V30 6965 H 683.923 -3.62933 2.06566 0
M  V30 6966 N 684.36 -1.4356 -0.65026 0
M  V30 6967 C 685.29 -1.51758 -1.77459 0
M  V30 6968 C 686.271 -0.372019 -1.65982 0
M  V30 6969 O 687.456 -0.589627 -1.85033 0
M  V30 6970 C 684.586 -1.44302 -3.15902 0
M  V30 6971 C 683.54 -2.57138 -3.42146 0
M  V30 6972 C 682.866 -2.34735 -4.8042 0
M  V30 6973 C 684.166 -3.99373 -3.36598 0
M  V30 6974 H 685.86 -2.45863 -1.70855 0
M  V30 6975 H 683.406 -1.18333 -0.820566 0
M  V30 6976 H 685.359 -1.48641 -3.94314 0
M  V30 6977 H 684.083 -0.467026 -3.23244 0
M  V30 6978 H 682.742 -2.52157 -2.66106 0
M  V30 6979 H 682.39 -1.35372 -4.84441 0
M  V30 6980 H 682.09 -3.10375 -4.9894 0
M  V30 6981 H 683.614 -2.40862 -5.61086 0
M  V30 6982 H 685.028 -4.05826 -4.04942 0
M  V30 6983 H 683.425 -4.75063 -3.66654 0
M  V30 6984 H 684.495 -4.243 -2.34729 0
M  V30 6985 N 685.838 0.888903 -1.30139 0
M  V30 6986 C 686.785 1.99422 -1.16188 0
M  V30 6987 C 687.755 1.66017 -0.0523869 0
M  V30 6988 O 688.94 1.89506 -0.221864 0
M  V30 6989 C 686.08 3.34325 -0.855612 0
M  V30 6990 C 685.193 3.80445 -2.0466 0
M  V30 6991 C 684.328 5.03975 -1.67876 0
M  V30 6992 C 683.367 5.42492 -2.83493 0
M  V30 6993 N 682.504 6.57206 -2.47032 0
M  V30 6994 H 687.344 2.10687 -2.10749 0
M  V30 6995 H 684.881 1.03165 -1.04859 0
M  V30 6996 H 686.839 4.11968 -0.658681 0
M  V30 6997 H 685.469 3.22756 0.0531155 0
M  V30 6998 H 684.521 2.98745 -2.3549 0
M  V30 6999 H 685.833 4.04933 -2.91257 0
M  V30 7000 H 684.987 5.89232 -1.44535 0
M  V30 7001 H 683.726 4.8135 -0.784431 0
M  V30 7002 H 682.731 4.55764 -3.07505 0
M  V30 7003 H 683.956 5.67093 -3.73607 0
M  V30 7004 H 681.902 6.36164 -1.601 0
M  V30 7005 H 681.819 6.81543 -3.27161 0
M  V30 7006 H 683.087 7.45704 -2.27038 0
M  V30 7007 N 687.317 1.12792 1.10072 0
M  V30 7008 C 688.247 0.821688 2.18565 0
M  V30 7009 C 689.228 -0.21612 1.68721 0
M  V30 7010 O 690.413 -0.0764932 1.94049 0
M  V30 7011 C 687.543 0.279624 3.46172 0
M  V30 7012 C 686.497 1.25092 4.09312 0
M  V30 7013 C 685.823 0.568916 5.31665 0
M  V30 7014 C 687.123 2.60699 4.52585 0
M  V30 7015 H 688.817 1.72888 2.44438 0
M  V30 7016 H 686.363 0.832702 1.17482 0
M  V30 7017 H 688.316 0.053099 4.21367 0
M  V30 7018 H 687.04 -0.662929 3.19801 0
M  V30 7019 H 685.699 1.46332 3.36129 0
M  V30 7020 H 685.347 -0.378898 5.01571 0
M  V30 7021 H 685.047 1.21687 5.74862 0
M  V30 7022 H 686.571 0.351517 6.09587 0
M  V30 7023 H 687.985 2.43465 5.19035 0
M  V30 7024 H 686.382 3.21608 5.06644 0
M  V30 7025 H 687.452 3.1886 3.65317 0
M  V30 7026 N 688.795 -1.27931 0.920396 0
M  V30 7027 C 689.742 -2.27085 0.412422 0
M  V30 7028 C 690.712 -1.57858 -0.516725 0
M  V30 7029 O 691.897 -1.85717 -0.437475 0
M  V30 7030 C 689.037 -3.43466 -0.335399 0
M  V30 7031 C 688.15 -4.27425 0.627017 0
M  V30 7032 C 687.285 -5.31016 -0.139916 0
M  V30 7033 C 686.324 -6.06641 0.815683 0
M  V30 7034 N 685.461 -7.02052 0.0818439 0
M  V30 7035 H 690.301 -2.69913 1.26298 0
M  V30 7036 H 687.838 -1.32732 0.634076 0
M  V30 7037 H 689.796 -4.09744 -0.785226 0
M  V30 7038 H 688.426 -3.01611 -1.15025 0
M  V30 7039 H 687.478 -3.6113 1.19537 0
M  V30 7040 H 688.79 -4.79969 1.35763 0
M  V30 7041 H 687.944 -6.03208 -0.649998 0
M  V30 7042 H 686.683 -4.79257 -0.903543 0
M  V30 7043 H 685.688 -5.33294 1.33708 0
M  V30 7044 H 686.913 -6.60489 1.57897 0
M  V30 7045 H 684.859 -6.52634 -0.663671 0
M  V30 7046 H 684.776 -7.52249 0.752163 0
M  V30 7047 H 686.044 -7.78432 -0.407825 0
M  V30 7048 N 690.273 -0.685099 -1.4193 0
M  V30 7049 C 691.183 -0.013404 -2.34596 0
M  V30 7050 C 692.199 0.777589 -1.55658 0
M  V30 7051 O 693.375 0.717553 -1.88184 0
M  V30 7052 C 690.44 0.919031 -3.34297 0
M  V30 7053 C 689.501 0.121417 -4.29128 0
M  V30 7054 C 688.734 1.00944 -5.24067 0
M  V30 7055 O 688.957 2.24898 -5.24192 0
M  V30 7056 O 687.891 0.464724 -6.00103 0
M  V30 7057 H 691.717 -0.776978 -2.93593 0
M  V30 7058 H 689.302 -0.445379 -1.42607 0
M  V30 7059 H 691.184 1.45402 -3.9552 0
M  V30 7060 H 689.859 1.66228 -2.77759 0
M  V30 7061 H 688.766 -0.45792 -3.71287 0
M  V30 7062 H 690.099 -0.582937 -4.88736 0
M  V30 7063 N 691.751 1.51645 -0.429126 0
M  V30 7064 C 692.997 2.02314 0.140286 0
M  V30 7065 C 693.33 1.31314 1.43074 0
M  V30 7066 O 692.605 0.425531 1.89788 0
M  V30 7067 C 692.888 3.5822 0.36749 0
M  V30 7068 C 692.741 4.39846 -0.941039 0
M  V30 7069 C 694.06 4.25055 1.14089 0
M  V30 7070 H 691.179 0.735335 0.0495112 0
M  V30 7071 H 693.821 1.81358 -0.566514 0
M  V30 7072 H 691.971 3.76207 0.969556 0
M  V30 7073 H 693.643 4.33527 -1.57646 0
M  V30 7074 H 691.886 4.05259 -1.54751 0
M  V30 7075 H 692.557 5.47069 -0.73621 0
M  V30 7076 H 695.033 4.11288 0.630986 0
M  V30 7077 H 693.909 5.34038 1.26863 0
M  V30 7078 H 694.17 3.85358 2.16683 0
M  V30 7079 N 693.229 0.160201 1.56784 0
M  V30 7080 C 694.476 -0.487588 1.96542 0
M  V30 7081 C 694.804 -1.63999 1.04569 0
M  V30 7082 O 694.059 -1.95546 0.0775211 0
M  V30 7083 C 694.358 -1.02259 3.42459 0
M  V30 7084 C 694.024 0.0127436 4.50898 0
M  V30 7085 C 692.686 0.297318 4.80281 0
M  V30 7086 C 695.038 0.716078 5.16257 0
M  V30 7087 C 692.366 1.29081 5.72324 0
M  V30 7088 C 694.718 1.69847 6.09372 0
M  V30 7089 C 693.382 1.99061 6.37127 0
M  V30 7090 H 692.652 -0.178421 0.719199 0
M  V30 7091 H 695.299 0.249818 1.89864 0
M  V30 7092 H 693.604 -1.8376 3.46034 0
M  V30 7093 H 695.301 -1.53261 3.70556 0
M  V30 7094 H 691.891 -0.219235 4.28039 0
M  V30 7095 H 696.075 0.509428 4.93679 0
M  V30 7096 H 691.331 1.52344 5.92116 0
M  V30 7097 H 695.505 2.2489 6.59088 0
M  V30 7098 H 693.132 2.76194 7.08252 0
M  V30 7099 N 694.707 -1.5719 -0.113559 0
M  V30 7100 C 695.955 -1.84772 -0.818761 0
M  V30 7101 C 696.276 -0.746196 -1.80158 0
M  V30 7102 O 695.546 0.229305 -1.94553 0
M  V30 7103 H 694.126 -0.681737 -0.305359 0
M  V30 7104 H 696.788 -1.94645 -0.0995845 0
M  V30 7105 H 695.884 -2.80878 -1.36067 0
M  V30 7106 N 696.185 0.383891 -1.52853 0
M  V30 7107 C 697.115 1.47559 -1.80965 0
M  V30 7108 C 698.096 1.5669 -0.661986 0
M  V30 7109 O 699.281 1.71556 -0.910072 0
M  V30 7110 C 696.411 2.85114 -1.98312 0
M  V30 7111 C 695.365 2.9082 -3.14019 0
M  V30 7112 C 694.691 4.30873 -3.16627 0
M  V30 7113 C 695.991 2.60001 -4.52986 0
M  V30 7114 H 697.685 1.24283 -2.72386 0
M  V30 7115 H 695.231 0.596445 -1.31067 0
M  V30 7116 H 697.184 3.61496 -2.16561 0
M  V30 7117 H 695.908 3.09738 -1.03585 0
M  V30 7118 H 694.567 2.16886 -2.9556 0
M  V30 7119 H 694.215 4.52545 -2.19573 0
M  V30 7120 H 693.915 4.3561 -3.94357 0
M  V30 7121 H 695.439 5.09154 -3.37038 0
M  V30 7122 H 696.853 3.261 -4.71521 0
M  V30 7123 H 695.25 2.76081 -5.32822 0
M  V30 7124 H 696.32 1.5532 -4.59351 0
M  V30 7125 N 697.663 1.43903 0.642637 0
M  V30 7126 C 698.573 1.52349 1.78401 0
M  V30 7127 C 699.589 0.409869 1.69104 0
M  V30 7128 O 700.765 0.665548 1.90085 0
M  V30 7129 C 697.83 1.45408 3.14734 0
M  V30 7130 C 696.891 2.67528 3.35749 0
M  V30 7131 C 696.124 2.60909 4.65577 0
M  V30 7132 O 696.347 1.6627 5.45628 0
M  V30 7133 O 695.281 3.5158 4.88544 0
M  V30 7134 H 699.107 2.48752 1.7423 0
M  V30 7135 H 696.692 1.26021 0.802439 0
M  V30 7136 H 698.574 1.44019 3.96026 0
M  V30 7137 H 697.249 0.521437 3.19473 0
M  V30 7138 H 696.156 2.74487 2.5418 0
M  V30 7139 H 697.489 3.598 3.35864 0
M  V30 7140 N 699.141 -0.881989 1.30609 0
M  V30 7141 C 700.418 -1.61563 1.10258 0
M  V30 7142 C 700.798 -2.08228 -0.347053 0
M  V30 7143 O 700.146 -1.85151 -1.33908 0
M  V30 7144 C 700.356 -2.78287 2.10612 0
M  V30 7145 C 701.704 -3.48545 2.4249 0
M  V30 7146 O 702.728 -2.88479 2.08945 0
M  V30 7147 O 701.587 -4.56873 2.99883 0
M  V30 7148 H 698.681 -0.710238 0.423663 0
M  V30 7149 H 701.227 -0.928503 1.42045 0
M  V30 7150 H 699.999 -2.41131 3.08174 0
M  V30 7151 H 699.622 -3.54695 1.79659 0
M  V30 7152 N 700.619 -1.13374 -1.09472 0
M  V30 7153 C 701.865 -0.896516 -1.81908 0
M  V30 7154 C 702.198 0.575933 -1.85463 0
M  V30 7155 O 701.473 1.42618 -1.32251 0
M  V30 7156 C 701.756 -1.48445 -3.28079 0
M  V30 7157 C 701.609 -3.02598 -3.32798 0
M  V30 7158 C 702.928 -1.15226 -4.24748 0
M  V30 7159 H 700.047 -0.327127 -0.660422 0
M  V30 7160 H 702.689 -1.40195 -1.2824 0
M  V30 7161 H 700.839 -1.0546 -3.73912 0
M  V30 7162 H 702.511 -3.54335 -2.95372 0
M  V30 7163 H 700.754 -3.37613 -2.72397 0
M  V30 7164 H 701.425 -3.38835 -4.3577 0
M  V30 7165 H 703.901 -1.52369 -3.87199 0
M  V30 7166 H 702.777 -1.59012 -5.25363 0
M  V30 7167 H 703.038 -0.0658891 -4.42051 0
M  V30 7168 N 702.098 1.27442 -0.927168 0
M  V30 7169 C 703.046 2.28844 -0.416333 0
M  V30 7170 C 704.04 1.61882 0.499057 0
M  V30 7171 O 705.246 1.75969 0.378817 0
M  V30 7172 H 701.621 0.742989 -0.116065 0
M  V30 7173 H 703.592 2.69344 -1.28438 0
M  V30 7174 C 702.341 3.4626 0.316107 0
M  V30 7175 H 701.664 3.97999 -0.379082 0
M  V30 7176 H 703.104 4.19173 0.637975 0
M  V30 7177 C 701.563 3.00211 1.5289 0
M  V30 7178 O 702.093 3.03837 2.62766 0
M  V30 7179 N 700.299 2.55713 1.38054 0
M  V30 7180 H 699.846 2.52962 0.4866 0
M  V30 7181 H 699.804 2.25264 2.19325 0
M  V30 7182 N 703.576 0.692616 1.41565 0
M  V30 7183 C 704.853 0.150496 1.9502 0
M  V30 7184 C 705.233 -1.33881 1.63215 0
M  V30 7185 O 704.581 -2.08378 0.937598 0
M  V30 7186 C 704.791 0.438636 3.46233 0
M  V30 7187 C 706.139 0.364777 4.2303 0
M  V30 7188 O 707.163 0.373383 3.54238 0
M  V30 7189 O 706.022 0.32234 5.45549 0
M  V30 7190 H 703.116 0.0132454 0.826894 0
M  V30 7191 H 705.662 0.768574 1.51298 0
M  V30 7192 H 704.434 1.46962 3.62654 0
M  V30 7193 H 704.057 -0.210562 3.97042 0
M  V30 7194 N 705.054 -1.51416 0.437162 0
M  V30 7195 C 705.984 -2.30631 -0.364922 0
M  V30 7196 C 706.965 -1.36037 -1.02118 0
M  V30 7197 O 708.15 -1.64956 -1.02485 0
M  V30 7198 C 705.28 -3.1482 -1.46648 0
M  V30 7199 C 704.234 -4.17691 -0.933717 0
M  V30 7200 C 703.56 -4.904 -2.13101 0
M  V30 7201 C 704.86 -5.2229 0.0317201 0
M  V30 7202 H 706.554 -2.97932 0.29614 0
M  V30 7203 H 704.1 -1.4328 0.143865 0
M  V30 7204 H 706.053 -3.69017 -2.03481 0
M  V30 7205 H 704.777 -2.4534 -2.15583 0
M  V30 7206 H 703.436 -3.64545 -0.387602 0
M  V30 7207 H 703.084 -4.17423 -2.80654 0
M  V30 7208 H 702.784 -5.59962 -1.78092 0
M  V30 7209 H 704.308 -5.4742 -2.70487 0
M  V30 7210 H 705.722 -5.7156 -0.446302 0
M  V30 7211 H 704.119 -5.99378 0.29437 0
M  V30 7212 H 705.189 -4.75131 0.968447 0
M  V30 7213 N 706.532 -0.168513 -1.56696 0
M  V30 7214 C 707.943 0.348694 -1.83415 0
M  V30 7215 C 708.294 1.63257 -1.0882 0
M  V30 7216 O 707.419 2.13707 -0.340333 0
M  V30 7217 C 708.014 0.639423 -3.32711 0
M  V30 7218 C 706.573 1.10108 -3.59935 0
M  V30 7219 C 705.72 0.135464 -2.76969 0
M  V30 7220 H 708.671 -0.392829 -1.53761 0
M  V30 7221 H 708.692 1.49179 -3.50037 0
M  V30 7222 H 708.204 -0.295173 -3.86976 0
M  V30 7223 H 706.305 2.05088 -3.11079 0
M  V30 7224 H 706.418 1.01218 -4.68286 0
M  V30 7225 H 704.782 0.632286 -2.46727 0
M  V30 7226 H 705.565 -0.793104 -3.34013 0
M  V30 7227 N 708.01 1.57248 0.105221 0
M  V30 7228 C 709.259 1.84756 0.809198 0
M  V30 7229 C 709.572 0.756262 1.80389 0
M  V30 7230 O 710.778 0.918158 2.55504 0
M  V30 7231 C 709.234 3.27613 1.48989 0
M  V30 7232 C 708.842 4.44788 0.535484 0
M  V30 7233 C 710.586 3.64356 2.17819 0
M  V30 7234 C 708.493 5.78676 1.22019 0
M  V30 7235 H 707.423 0.689139 0.305946 0
M  V30 7236 H 710.074 1.83395 0.0620371 0
M  V30 7237 H 708.456 3.23485 2.28415 0
M  V30 7238 H 709.63 4.60243 -0.226557 0
M  V30 7239 H 707.945 4.16374 -0.0465769 0
M  V30 7240 H 710.542 4.61663 2.69761 0
M  V30 7241 H 710.885 2.92474 2.96251 0
M  V30 7242 H 711.418 3.70328 1.45264 0
M  V30 7243 H 708.157 6.53763 0.476875 0
M  V30 7244 H 707.677 5.67083 1.9539 0
M  V30 7245 H 709.356 6.22897 1.74952 0
M  V30 7246 N 709.488 -0.375779 1.53054 0
M  V30 7247 C 710.734 -1.12114 1.68992 0
M  V30 7248 C 711.067 -1.8926 0.435238 0
M  V30 7249 O 710.342 -1.86044 -0.567278 0
M  V30 7250 C 710.625 -2.08867 2.93337 0
M  V30 7251 C 710.478 -1.35397 4.28938 0
M  V30 7252 C 711.797 -3.09124 3.13257 0
M  V30 7253 H 708.916 -0.406207 0.614951 0
M  V30 7254 H 711.558 -0.403054 1.85676 0
M  V30 7255 H 709.708 -2.70102 2.79244 0
M  V30 7256 H 711.38 -0.770242 4.54824 0
M  V30 7257 H 709.623 -0.655801 4.28814 0
M  V30 7258 H 710.294 -2.06161 5.12056 0
M  V30 7259 H 712.77 -2.57987 3.26469 0
M  V30 7260 H 711.646 -3.74054 4.01715 0
M  V30 7261 H 711.907 -3.78729 2.28072 0
M  V30 7262 N 710.966 -1.44241 -0.634997 0
M  V30 7263 C 712.196 -1.50078 -1.41987 0
M  V30 7264 C 712.604 -0.123072 -1.88799 0
M  V30 7265 O 711.947 0.880552 -1.6122 0
M  V30 7266 C 712.009 -2.40033 -2.67628 0
M  V30 7267 C 711.673 -3.87268 -2.42637 0
M  V30 7268 C 712.67 -4.77902 -2.04708 0
M  V30 7269 C 710.355 -4.31933 -2.56396 0
M  V30 7270 C 712.349 -6.11202 -1.80862 0
M  V30 7271 C 710.036 -5.65281 -2.32164 0
M  V30 7272 C 711.034 -6.54734 -1.94455 0
M  V30 7273 O 710.722 -7.85613 -1.7049 0
M  V30 7274 H 710.454 -0.51146 -0.442023 0
M  V30 7275 H 713.008 -1.89843 -0.784138 0
M  V30 7276 H 711.238 -1.95188 -3.33824 0
M  V30 7277 H 712.927 -2.36863 -3.29622 0
M  V30 7278 H 713.693 -4.44668 -1.93638 0
M  V30 7279 H 709.572 -3.62569 -2.84719 0
M  V30 7280 H 713.116 -6.80983 -1.51353 0
M  V30 7281 H 709.013 -5.98078 -2.42843 0
M  V30 7282 H 709.781 -7.97373 -1.84767 0
M  V30 7283 N 712.444 0.87505 -1.31075 0
M  V30 7284 C 713.392 2.00317 -1.18219 0
M  V30 7285 C 714.386 1.69152 -0.0916872 0
M  V30 7286 O 715.592 1.7821 -0.253229 0
M  V30 7287 H 711.967 0.656981 -0.365895 0
M  V30 7288 H 713.938 2.08293 -2.13674 0
M  V30 7289 C 712.687 3.35821 -0.901095 0
M  V30 7290 H 712.01 3.6032 -1.73233 0
M  V30 7291 H 713.45 4.15366 -0.851295 0
M  V30 7292 C 711.909 3.34563 0.396114 0
M  V30 7293 O 712.439 3.75971 1.41452 0
M  V30 7294 N 710.645 2.87681 0.410832 0
M  V30 7295 H 710.192 2.54179 -0.418415 0
M  V30 7296 H 710.15 2.87223 1.27869 0
M  V30 7297 N 713.922 1.13953 1.08869 0
M  V30 7298 C 715.171 0.899431 1.80536 0
M  V30 7299 C 715.484 -0.575781 1.86933 0
M  V30 7300 O 716.69 -0.932988 2.54966 0
M  V30 7301 C 715.146 1.55963 3.24351 0
M  V30 7302 C 714.754 3.07077 3.26202 0
M  V30 7303 C 716.498 1.40046 4.00733 0
M  V30 7304 C 714.405 3.65955 4.64576 0
M  V30 7305 H 713.335 0.332849 0.676556 0
M  V30 7306 H 715.986 1.3679 1.22314 0
M  V30 7307 H 714.368 1.01883 3.82669 0
M  V30 7308 H 715.542 3.67785 2.77617 0
M  V30 7309 H 713.857 3.22576 2.63312 0
M  V30 7310 H 716.454 1.81441 5.02974 0
M  V30 7311 H 716.797 0.345993 4.1486 0
M  V30 7312 H 717.33 1.91137 3.48872 0
M  V30 7313 H 714.069 4.71234 4.55652 0
M  V30 7314 H 713.589 3.10027 5.13462 0
M  V30 7315 H 715.268 3.65968 5.33551 0
M  V30 7316 N 715.4 -1.26948 0.933913 0
M  V30 7317 C 716.363 -2.24889 0.442457 0
M  V30 7318 C 717.363 -1.54594 -0.442426 0
M  V30 7319 O 718.553 -1.72502 -0.242629 0
M  V30 7320 C 715.685 -3.3896 -0.363173 0
M  V30 7321 H 716.878 -2.69879 1.30787 0
M  V30 7322 H 714.431 -1.38978 0.715187 0
M  V30 7323 H 715.166 -2.99361 -1.24714 0
M  V30 7324 H 714.951 -3.9116 0.271366 0
M  V30 7325 H 716.441 -4.11739 -0.697186 0
M  V30 7326 N 716.879 -0.700114 -1.41195 0
M  V30 7327 C 718.125 -0.242122 -2.01954 0
M  V30 7328 C 718.48 1.14697 -1.54475 0
M  V30 7329 O 717.773 1.76392 -0.748095 0
M  V30 7330 C 717.967 -0.243986 -3.56566 0
M  V30 7331 C 717.796 -1.63172 -4.19053 0
M  V30 7332 C 716.566 -2.23566 -4.53152 0
M  V30 7333 C 718.764 -2.57916 -4.44954 0
M  V30 7334 N 716.746 -3.54856 -5.00949 0
M  V30 7335 C 718.117 -3.73892 -4.94576 0
M  V30 7336 C 720.172 -2.56125 -4.26971 0
M  V30 7337 C 718.875 -4.88363 -5.28104 0
M  V30 7338 C 720.901 -3.69712 -4.61592 0
M  V30 7339 C 720.263 -4.84418 -5.11389 0
M  V30 7340 H 716.362 -0.134088 -0.770418 0
M  V30 7341 H 718.946 -0.918576 -1.71669 0
M  V30 7342 H 717.117 0.401971 -3.86314 0
M  V30 7343 H 718.849 0.229261 -4.0405 0
M  V30 7344 H 715.604 -1.75809 -4.39759 0
M  V30 7345 H 716.028 -4.22167 -5.29249 0
M  V30 7346 H 720.67 -1.68656 -3.87705 0
M  V30 7347 H 718.388 -5.76488 -5.66292 0
M  V30 7348 H 721.974 -3.69583 -4.49332 0
M  V30 7349 H 720.854 -5.70855 -5.37675 0
M  V30 7350 N 718.357 1.51182 -0.445186 0
M  V30 7351 C 719.587 2.06269 0.116922 0
M  V30 7352 C 719.995 1.31188 1.36332 0
M  V30 7353 O 719.338 0.367067 1.79995 0
M  V30 7354 C 719.4 3.56051 0.496757 0
M  V30 7355 C 719.064 4.52441 -0.64394 0
M  V30 7356 C 720.061 4.97233 -1.5184 0
M  V30 7357 C 717.746 4.95447 -0.826905 0
M  V30 7358 C 719.74 5.83712 -2.56046 0
M  V30 7359 C 717.427 5.81714 -1.87222 0
M  V30 7360 C 718.425 6.25745 -2.73738 0
M  V30 7361 O 718.113 7.10298 -3.76474 0
M  V30 7362 H 717.845 0.675954 0.00785733 0
M  V30 7363 H 720.399 1.95648 -0.625371 0
M  V30 7364 H 718.629 3.64483 1.29187 0
M  V30 7365 H 720.318 3.93618 0.990928 0
M  V30 7366 H 721.084 4.64696 -1.38862 0
M  V30 7367 H 716.963 4.60712 -0.163052 0
M  V30 7368 H 720.507 6.18 -3.23607 0
M  V30 7369 H 716.404 6.13664 -2.00218 0
M  V30 7370 H 717.172 7.28493 -3.73149 0
M  V30 7371 N 719.835 0.176821 1.56605 0
M  V30 7372 C 720.745 -0.763682 2.21822 0
M  V30 7373 C 721.761 -1.24889 1.21156 0
M  V30 7374 O 722.937 -1.29987 1.53836 0
M  V30 7375 C 720.002 -1.97352 2.8505 0
M  V30 7376 C 719.063 -1.53466 4.00932 0
M  V30 7377 C 718.296 -2.68682 4.61135 0
M  V30 7378 O 718.519 -3.85694 4.20234 0
M  V30 7379 O 717.453 -2.42442 5.50913 0
M  V30 7380 H 721.279 -0.238363 3.02763 0
M  V30 7381 H 718.864 -0.0516331 1.49311 0
M  V30 7382 H 720.746 -2.68096 3.25119 0
M  V30 7383 H 719.421 -2.48779 2.07101 0
M  V30 7384 H 718.328 -0.796551 3.65521 0
M  V30 7385 H 719.661 -1.06724 4.8049 0
M  V30 7386 N 721.313 -1.57302 -0.09688 0
M  V30 7387 C 722.245 -1.98618 -1.14384 0
M  V30 7388 C 723.258 -0.888483 -1.36418 0
M  V30 7389 O 724.447 -1.16661 -1.35101 0
M  V30 7390 C 721.547 -2.28838 -2.49973 0
M  V30 7391 C 720.72 -3.60132 -2.48241 0
M  V30 7392 C 719.779 -3.7831 -3.65743 0
M  V30 7393 O 718.805 -4.50183 -3.48316 0
M  V30 7394 N 720.007 -3.18752 -4.85157 0
M  V30 7395 H 722.772 -2.8904 -0.792202 0
M  V30 7396 H 720.333 -1.59356 -0.285883 0
M  V30 7397 H 722.325 -2.38193 -3.27179 0
M  V30 7398 H 720.895 -1.44431 -2.77233 0
M  V30 7399 H 720.115 -3.61763 -1.56593 0
M  V30 7400 H 721.403 -4.46389 -2.4416 0
M  V30 7401 H 720.801 -2.60368 -5.0222 0
M  V30 7402 H 719.358 -3.33595 -5.59962 0
M  V30 7403 N 722.791 0.367657 -1.53252 0
M  V30 7404 C 723.738 1.45028 -1.79543 0
M  V30 7405 C 724.708 1.53288 -0.63969 0
M  V30 7406 O 725.893 1.69209 -0.881653 0
M  V30 7407 C 723.033 2.82 -1.98923 0
M  V30 7408 C 722.146 2.82722 -3.26638 0
M  V30 7409 C 721.281 4.11257 -3.36216 0
M  V30 7410 C 720.32 4.06113 -4.57972 0
M  V30 7411 N 719.457 5.26293 -4.64715 0
M  V30 7412 H 724.297 1.21908 -2.71923 0
M  V30 7413 H 721.834 0.591011 -1.34705 0
M  V30 7414 H 723.792 3.61568 -2.08146 0
M  V30 7415 H 722.422 3.03523 -1.09881 0
M  V30 7416 H 721.474 1.95399 -3.26379 0
M  V30 7417 H 722.786 2.74794 -4.16281 0
M  V30 7418 H 721.94 4.99239 -3.44739 0
M  V30 7419 H 720.679 4.21935 -2.44586 0
M  V30 7420 H 719.684 3.16517 -4.49552 0
M  V30 7421 H 720.909 3.97039 -5.50942 0
M  V30 7422 H 718.855 5.37561 -3.75985 0
M  V30 7423 H 718.772 5.20526 -5.4826 0
M  V30 7424 H 720.04 6.16113 -4.77519 0
M  V30 7425 N 724.269 1.44576 0.627338 0
M  V30 7426 C 725.232 1.51372 1.72102 0
M  V30 7427 C 726.232 0.395329 1.55865 0
M  V30 7428 O 727.422 0.658094 1.61291 0
M  V30 7429 C 724.554 1.39129 3.11217 0
M  V30 7430 H 725.747 2.48798 1.6745 0
M  V30 7431 H 723.3 1.31724 0.841336 0
M  V30 7432 H 724.035 0.428114 3.21462 0
M  V30 7433 H 723.82 2.20229 3.24409 0
M  V30 7434 H 725.31 1.46874 3.90919 0
M  V30 7435 N 725.747 -0.868086 1.31537 0
M  V30 7436 C 726.993 -1.62367 1.2151 0
M  V30 7437 C 727.326 -1.92883 -0.225819 0
M  V30 7438 O 726.601 -1.56176 -1.15927 0
M  V30 7439 C 726.884 -2.95268 2.06129 0
M  V30 7440 C 726.737 -2.71619 3.58529 0
M  V30 7441 C 728.056 -3.96391 1.91212 0
M  V30 7442 H 725.175 -0.589178 0.442762 0
M  V30 7443 H 727.817 -1.00336 1.61347 0
M  V30 7444 H 725.967 -3.4821 1.72284 0
M  V30 7445 H 727.639 -2.25334 4.0252 0
M  V30 7446 H 725.882 -2.05817 3.81866 0
M  V30 7447 H 726.553 -3.66192 4.13047 0
M  V30 7448 H 729.029 -3.52663 2.20834 0
M  V30 7449 H 727.905 -4.87263 2.52718 0
M  V30 7450 H 728.166 -4.33335 0.875953 0
M  V30 7451 N 727.225 -1.14528 -1.08264 0
M  V30 7452 C 728.474 -0.908992 -1.80056 0
M  V30 7453 C 728.787 0.565859 -1.87236 0
M  V30 7454 O 729.993 0.919454 -2.55457 0
M  V30 7455 C 728.449 -1.57681 -3.23519 0
M  V30 7456 C 728.057 -3.08803 -3.24569 0
M  V30 7457 C 729.801 -1.4217 -3.99985 0
M  V30 7458 C 727.708 -3.68414 -4.62629 0
M  V30 7459 H 726.638 -0.336432 -0.674781 0
M  V30 7460 H 729.289 -1.37437 -1.21587 0
M  V30 7461 H 727.671 -1.03911 -3.82124 0
M  V30 7462 H 728.845 -3.69252 -2.75663 0
M  V30 7463 H 727.16 -3.23968 -2.61598 0
M  V30 7464 H 729.757 -1.84106 -5.02005 0
M  V30 7465 H 730.1 -0.367989 -4.1467 0
M  V30 7466 H 730.633 -1.92984 -3.47853 0
M  V30 7467 H 727.372 -4.73644 -4.53147 0
M  V30 7468 H 726.892 -3.12746 -5.11811 0
M  V30 7469 H 728.571 -3.68793 -5.31602 0
M  V30 7470 N 728.703 1.26451 -0.940633 0
M  V30 7471 C 729.949 1.94065 -0.58878 0
M  V30 7472 C 730.282 1.7363 0.869853 0
M  V30 7473 O 729.557 1.073 1.62225 0
M  V30 7474 C 729.84 3.47852 -0.931199 0
M  V30 7475 C 729.693 3.77575 -2.44453 0
M  V30 7476 C 731.012 4.37832 -0.446229 0
M  V30 7477 H 728.131 0.704827 -0.21538 0
M  V30 7478 H 730.773 1.4933 -1.17475 0
M  V30 7479 H 728.923 3.86085 -0.432539 0
M  V30 7480 H 730.595 3.49059 -3.01588 0
M  V30 7481 H 728.838 3.23671 -2.88825 0
M  V30 7482 H 729.509 4.85068 -2.63464 0
M  V30 7483 H 731.985 4.06822 -0.873778 0
M  V30 7484 H 730.861 5.44228 -0.714648 0
M  V30 7485 H 731.122 4.37239 0.653815 0
M  V30 7486 N 730.181 0.707592 1.40822 0
M  V30 7487 C 731.111 0.0644925 2.33411 0
M  V30 7488 C 732.092 -0.754205 1.52466 0
M  V30 7489 O 733.277 -0.704749 1.80961 0
M  V30 7490 C 730.407 -0.863865 3.36385 0
M  V30 7491 C 729.361 -0.15138 4.27732 0
M  V30 7492 C 728.687 -1.19491 5.21177 0
M  V30 7493 C 729.987 0.989607 5.12839 0
M  V30 7494 H 731.681 0.837829 2.87438 0
M  V30 7495 H 729.227 0.404346 1.38207 0
M  V30 7496 H 731.18 -1.32309 4.0009 0
M  V30 7497 H 729.904 -1.66901 2.80734 0
M  V30 7498 H 728.563 0.287937 3.65467 0
M  V30 7499 H 728.211 -1.9929 4.61836 0
M  V30 7500 H 727.911 -0.723123 5.83134 0
M  V30 7501 H 729.435 -1.6544 5.8776 0
M  V30 7502 H 730.849 0.610114 5.70044 0
M  V30 7503 H 729.246 1.38926 5.83798 0
M  V30 7504 H 730.316 1.82389 4.49291 0
M  V30 7505 N 731.66 -1.50943 0.453197 0
M  V30 7506 C 732.59 -2.31005 -0.34044 0
M  V30 7507 C 733.571 -1.37112 -1.00669 0
M  V30 7508 O 734.756 -1.66033 -1.0073 0
M  V30 7509 C 731.886 -3.16358 -1.433 0
M  V30 7510 C 730.84 -4.18658 -0.889363 0
M  V30 7511 C 730.166 -4.92633 -2.07887 0
M  V30 7512 C 731.466 -5.22227 0.0871142 0
M  V30 7513 H 733.16 -2.97601 0.327723 0
M  V30 7514 H 730.706 -1.43119 0.159054 0
M  V30 7515 H 732.659 -3.71155 -1.99555 0
M  V30 7516 H 731.383 -2.47613 -2.12968 0
M  V30 7517 H 730.042 -3.64936 -0.348915 0
M  V30 7518 H 729.69 -4.20376 -2.76211 0
M  V30 7519 H 729.39 -5.61819 -1.72143 0
M  V30 7520 H 730.914 -5.50258 -2.64666 0
M  V30 7521 H 732.328 -5.72001 -0.385656 0
M  V30 7522 H 730.725 -5.99032 0.357926 0
M  V30 7523 H 731.795 -4.74077 1.01879 0
M  V30 7524 N 733.138 -0.185124 -1.56509 0
M  V30 7525 C 734.101 0.72591 -2.17401 0
M  V30 7526 C 735.101 1.14819 -1.12575 0
M  V30 7527 O 736.291 1.0629 -1.38015 0
M  V30 7528 C 733.423 1.98979 -2.76803 0
M  V30 7529 H 734.616 0.195588 -2.99262 0
M  V30 7530 H 732.169 0.0644772 -1.56167 0
M  V30 7531 H 732.904 2.56287 -1.98714 0
M  V30 7532 H 732.689 1.69583 -3.53531 0
M  V30 7533 H 734.179 2.63966 -3.23592 0
M  V30 7534 N 734.616 1.57351 0.0885366 0
M  V30 7535 C 735.546 2.05561 1.10757 0
M  V30 7536 C 736.527 0.945789 1.41382 0
M  V30 7537 O 737.712 1.21747 1.51299 0
M  V30 7538 C 734.842 2.48554 2.42566 0
M  V30 7539 C 733.796 3.63259 2.26334 0
M  V30 7540 C 733.122 3.9225 3.63378 0
M  V30 7541 C 734.422 4.93913 1.69844 0
M  V30 7542 H 736.116 2.90946 0.706468 0
M  V30 7543 H 733.662 1.39968 0.338385 0
M  V30 7544 H 735.615 2.8089 3.14132 0
M  V30 7545 H 734.339 1.60176 2.84625 0
M  V30 7546 H 732.998 3.31179 1.57213 0
M  V30 7547 H 732.646 3.0103 4.02976 0
M  V30 7548 H 732.346 4.69478 3.53362 0
M  V30 7549 H 733.87 4.27067 4.36401 0
M  V30 7550 H 735.284 5.24588 2.31258 0
M  V30 7551 H 733.681 5.75349 1.70569 0
M  V30 7552 H 734.751 4.80409 0.65843 0
M  V30 7553 N 736.094 -0.359525 1.53444 0
M  V30 7554 C 737.024 -1.44662 1.8329 0
M  V30 7555 C 738.005 -1.55617 0.68683 0
M  V30 7556 O 739.19 -1.70086 0.93725 0
M  V30 7557 C 736.32 -2.81923 2.02822 0
M  V30 7558 C 735.274 -2.85787 3.18606 0
M  V30 7559 C 734.6 -4.25781 3.23442 0
M  V30 7560 C 735.9 -2.52762 4.57065 0
M  V30 7561 H 737.594 -1.19934 2.74329 0
M  V30 7562 H 735.14 -0.575517 1.31999 0
M  V30 7563 H 737.093 -3.58005 2.22285 0
M  V30 7564 H 735.817 -3.08051 1.085 0
M  V30 7565 H 734.476 -2.12157 2.98973 0
M  V30 7566 H 734.124 -4.48994 2.26745 0
M  V30 7567 H 733.824 -4.29281 4.01238 0
M  V30 7568 H 735.348 -5.03727 3.45096 0
M  V30 7569 H 736.762 -3.18557 4.76649 0
M  V30 7570 H 735.159 -2.67569 5.37147 0
M  V30 7571 H 736.229 -1.47993 4.61764 0
M  V30 7572 N 737.572 -1.44907 -0.619662 0
M  V30 7573 C 738.797 -1.52021 -1.41083 0
M  V30 7574 C 739.222 -0.14976 -1.87503 0
M  V30 7575 O 738.58 0.863303 -1.59426 0
M  V30 7576 C 738.628 -2.49911 -2.59955 0
M  V30 7577 O 737.732 -2.00857 -3.60181 0
M  V30 7578 H 737.073 -0.512912 -0.421684 0
M  V30 7579 H 739.603 -1.90149 -0.755282 0
M  V30 7580 H 739.613 -2.68323 -3.07354 0
M  V30 7581 H 738.288 -3.4945 -2.25516 0
M  V30 7582 H 736.865 -1.92265 -3.19513 0
M  V30 7583 N 739.05 0.861098 -1.31996 0
M  V30 7584 C 739.98 1.98482 -1.22993 0
M  V30 7585 C 740.961 1.6971 -0.115168 0
M  V30 7586 O 742.146 1.91849 -0.30126 0
M  V30 7587 C 739.276 3.34179 -0.945615 0
M  V30 7588 C 738.23 3.77284 -2.02091 0
M  V30 7589 C 737.556 5.1054 -1.58912 0
M  V30 7590 C 738.856 3.93439 -3.43515 0
M  V30 7591 H 740.55 2.06271 -2.17008 0
M  V30 7592 H 738.096 0.991043 -1.04472 0
M  V30 7593 H 740.049 4.12338 -0.869206 0
M  V30 7594 H 738.773 3.26586 0.0301849 0
M  V30 7595 H 737.432 3.01371 -2.08737 0
M  V30 7596 H 737.08 4.99397 -0.600942 0
M  V30 7597 H 736.78 5.40352 -2.30854 0
M  V30 7598 H 738.304 5.91199 -1.52696 0
M  V30 7599 H 739.718 4.6197 -3.39495 0
M  V30 7600 H 738.115 4.34661 -4.13751 0
M  V30 7601 H 739.185 2.96548 -3.8365 0
M  V30 7602 N 740.528 1.15101 1.07655 0
M  V30 7603 C 741.776 0.922149 1.79836 0
M  V30 7604 C 742.097 -0.552346 1.87014 0
M  V30 7605 O 741.367 -1.40145 1.3688 0
M  V30 7606 H 739.947 0.338182 0.666064 0
M  V30 7607 H 742.609 1.45107 1.30115 0
M  V30 7608 H 741.705 1.32883 2.82398 0
M  V30 7609 N 742.006 -1.2595 0.947325 0
M  V30 7610 C 743.252 -1.9375 0.599064 0
M  V30 7611 C 743.585 -1.74088 -0.860632 0
M  V30 7612 O 742.86 -1.08158 -1.61654 0
M  V30 7613 C 743.143 -3.47353 0.949634 0
M  V30 7614 C 742.996 -3.76273 2.46452 0
M  V30 7615 C 744.315 -4.37589 0.469442 0
M  V30 7616 H 741.434 -0.703674 0.219115 0
M  V30 7617 H 744.076 -1.48705 1.18266 0
M  V30 7618 H 742.226 -3.8585 0.453008 0
M  V30 7619 H 743.898 -3.47455 3.03435 0
M  V30 7620 H 742.141 -3.22135 2.90537 0
M  V30 7621 H 742.812 -4.83664 2.66032 0
M  V30 7622 H 745.288 -4.06353 0.89534 0
M  V30 7623 H 744.164 -5.43841 0.7435 0
M  V30 7624 H 744.425 -4.37579 -0.630618 0
M  V30 7625 N 743.484 -0.715051 -1.40445 0
M  V30 7626 C 744.431 -0.0621393 -2.30716 0
M  V30 7627 C 745.401 0.750871 -1.48159 0
M  V30 7628 O 746.586 0.714928 -1.76899 0
M  V30 7629 C 743.726 0.854036 -3.34365 0
M  V30 7630 C 742.839 0.0305565 -4.31989 0
M  V30 7631 C 741.974 0.946162 -5.22706 0
M  V30 7632 C 741.013 0.116741 -6.11989 0
M  V30 7633 N 740.15 0.987194 -6.95125 0
M  V30 7634 H 744.99 -0.83764 -2.85985 0
M  V30 7635 H 742.527 -0.424759 -1.40834 0
M  V30 7636 H 744.485 1.39946 -3.93028 0
M  V30 7637 H 743.115 1.59572 -2.806 0
M  V30 7638 H 742.167 -0.632044 -3.75112 0
M  V30 7639 H 743.479 -0.611615 -4.95036 0
M  V30 7640 H 742.633 1.56014 -5.86297 0
M  V30 7641 H 741.372 1.62216 -4.59932 0
M  V30 7642 H 740.377 -0.510176 -5.47428 0
M  V30 7643 H 741.602 -0.555742 -6.76822 0
M  V30 7644 H 739.548 1.64885 -6.3494 0
M  V30 7645 H 739.465 0.401046 -7.54936 0
M  V30 7646 H 740.733 1.58737 -7.63166 0
M  V30 7647 N 744.962 1.50701 -0.461195 0
M  V30 7648 C 745.91 2.29918 0.352231 0
M  V30 7649 C 746.904 1.36778 0.999403 0
M  V30 7650 O 748.11 1.54015 0.931639 0
M  V30 7651 H 744.485 0.740249 0.132423 0
M  V30 7652 H 746.456 2.96497 -0.336424 0
M  V30 7653 C 745.205 3.17052 1.42736 0
M  V30 7654 H 744.528 3.88623 0.938747 0
M  V30 7655 H 745.968 3.75493 1.96928 0
M  V30 7656 C 744.427 2.3399 2.42384 0
M  V30 7657 O 744.957 2.01608 3.47444 0
M  V30 7658 N 743.163 1.96758 2.13857 0
M  V30 7659 H 742.71 2.23292 1.28447 0
M  V30 7660 H 742.668 1.41484 2.80766 0
M  V30 7661 N 746.441 0.193421 1.56409 0
M  V30 7662 C 747.69 -0.445995 1.96707 0
M  V30 7663 C 748.003 -1.62876 1.08309 0
M  V30 7664 O 749.209 -2.33586 1.38383 0
M  V30 7665 C 747.665 -0.844863 3.49843 0
M  V30 7666 C 747.273 0.31352 4.46902 0
M  V30 7667 C 749.017 -1.45146 3.98915 0
M  V30 7668 C 746.924 -0.106214 5.91305 0
M  V30 7669 H 745.854 -0.170398 0.734493 0
M  V30 7670 H 748.505 0.285172 1.81271 0
M  V30 7671 H 746.887 -1.63265 3.60778 0
M  V30 7672 H 748.061 1.09103 4.47698 0
M  V30 7673 H 746.376 0.8315 4.08014 0
M  V30 7674 H 748.973 -1.77792 5.04276 0
M  V30 7675 H 749.316 -2.35734 3.43126 0
M  V30 7676 H 749.849 -0.727675 3.91088 0
M  V30 7677 H 746.588 0.765442 6.51016 0
M  V30 7678 H 746.108 -0.848623 5.93766 0
M  V30 7679 H 747.787 -0.542588 6.44721 0
M  V30 7680 N 747.919 -1.57396 -0.0801906 0
M  V30 7681 C 748.869 -1.9955 -1.10289 0
M  V30 7682 C 749.853 -0.876234 -1.34948 0
M  V30 7683 O 751.045 -1.14012 -1.35389 0
M  V30 7684 C 748.174 -2.43596 -2.419 0
M  V30 7685 C 747.26 -3.6224 -2.20551 0
M  V30 7686 N 747.651 -4.76693 -1.69109 0
M  V30 7687 C 745.949 -3.68627 -2.51059 0
M  V30 7688 C 746.65 -5.58577 -1.62379 0
M  V30 7689 N 745.626 -5.02178 -2.0813 0
M  V30 7690 H 749.428 -2.85483 -0.698335 0
M  V30 7691 H 746.942 -1.59837 -0.287395 0
M  V30 7692 H 748.939 -2.72031 -3.15919 0
M  V30 7693 H 747.599 -1.59047 -2.8308 0
M  V30 7694 H 748.61 -4.9915 -1.38092 0
M  V30 7695 H 745.287 -2.94772 -2.95661 0
M  V30 7696 H 746.677 -6.60447 -1.2353 0
M  V30 7697 N 749.397 0.351382 -1.53633 0
M  V30 7698 C 750.327 1.43688 -1.84055 0
M  V30 7699 C 751.308 1.55251 -0.695073 0
M  V30 7700 O 752.493 1.69587 -0.946257 0
M  V30 7701 C 749.623 2.80843 -2.04315 0
M  V30 7702 C 748.577 2.84094 -3.20117 0
M  V30 7703 C 747.903 4.2406 -3.25696 0
M  V30 7704 C 749.203 2.50334 -4.58399 0
M  V30 7705 H 750.897 1.18478 -2.74961 0
M  V30 7706 H 748.443 0.568509 -1.32303 0
M  V30 7707 H 750.396 3.56821 -2.2418 0
M  V30 7708 H 749.12 3.07471 -1.10132 0
M  V30 7709 H 747.779 2.10568 -3.00094 0
M  V30 7710 H 747.427 4.47785 -2.29123 0
M  V30 7711 H 747.127 4.27147 -4.03509 0
M  V30 7712 H 748.651 5.0189 -3.47762 0
M  V30 7713 H 750.065 3.16025 -4.78332 0
M  V30 7714 H 748.462 2.64717 -5.38558 0
M  V30 7715 H 749.532 1.45542 -4.62543 0
M  V30 7716 N 750.875 1.45233 0.611969 0
M  V30 7717 C 752.123 1.48727 1.36838 0
M  V30 7718 C 752.444 0.128616 1.94575 0
M  V30 7719 O 751.714 -0.84149 1.76906 0
M  V30 7720 H 750.294 0.547695 0.507976 0
M  V30 7721 H 752.956 1.81156 0.718925 0
M  V30 7722 H 752.052 2.2236 2.19003 0
M  V30 7723 N 752.353 -0.854086 1.3245 0
M  V30 7724 C 753.764 -1.42427 1.20712 0
M  V30 7725 C 754.115 -1.95371 -0.18013 0
M  V30 7726 O 753.24 -1.87587 -1.07889 0
M  V30 7727 C 753.835 -2.58897 2.18536 0
M  V30 7728 C 752.394 -3.11913 2.10683 0
M  V30 7729 C 751.541 -1.84661 2.06871 0
M  V30 7730 H 754.492 -0.661192 1.4427 0
M  V30 7731 H 754.513 -3.36074 1.78422 0
M  V30 7732 H 754.025 -2.20333 3.19492 0
M  V30 7733 H 752.126 -3.55059 1.12977 0
M  V30 7734 H 752.239 -3.73119 3.00532 0
M  V30 7735 H 750.603 -2.04285 1.52118 0
M  V30 7736 H 751.386 -1.48314 3.09609 0
M  V30 7737 N 753.831 -1.1567 -1.07043 0
M  V30 7738 C 755.059 -0.957471 -1.83412 0
M  V30 7739 C 755.474 0.494271 -1.82215 0
M  V30 7740 O 754.831 1.34288 -1.23584 0
M  V30 7741 C 754.882 -1.46784 -3.30359 0
M  V30 7742 O 754.603 -2.86271 -3.31633 0
M  V30 7743 C 756.104 -1.31054 -4.23485 0
M  V30 7744 H 753.324 -0.33986 -0.578564 0
M  V30 7745 H 755.868 -1.53518 -1.35102 0
M  V30 7746 H 754.023 -0.932586 -3.76007 0
M  V30 7747 H 754.437 -3.0948 -4.23465 0
M  V30 7748 H 755.911 -1.71605 -5.24648 0
M  V30 7749 H 756.388 -0.255107 -4.38458 0
M  V30 7750 H 756.994 -1.83503 -3.83676 0
M  V30 7751 N 755.309 1.25446 -0.953992 0
M  V30 7752 C 756.239 2.28264 -0.491717 0
M  V30 7753 C 757.22 1.63717 0.461617 0
M  V30 7754 O 758.405 1.90821 0.36071 0
M  V30 7755 C 755.535 3.46525 0.231915 0
M  V30 7756 C 754.489 4.23247 -0.636098 0
M  V30 7757 C 753.815 5.34254 0.218238 0
M  V30 7758 C 755.115 4.85971 -1.91389 0
M  V30 7759 H 756.809 2.67183 -1.35106 0
M  V30 7760 H 754.355 1.2844 -0.651095 0
M  V30 7761 H 756.308 4.17576 0.566439 0
M  V30 7762 H 755.032 3.06594 1.12551 0
M  V30 7763 H 753.691 3.53978 -0.953696 0
M  V30 7764 H 753.339 4.90564 1.11156 0
M  V30 7765 H 753.039 5.86501 -0.359232 0
M  V30 7766 H 754.563 6.08138 0.547743 0
M  V30 7767 H 755.977 5.49168 -1.64581 0
M  V30 7768 H 754.374 5.48391 -2.43696 0
M  V30 7769 H 755.444 4.08192 -2.61738 0
M  V30 7770 N 756.787 0.722489 1.40064 0
M  V30 7771 C 758.198 0.336507 1.83642 0
M  V30 7772 C 758.549 -1.13002 1.6039 0
M  V30 7773 O 757.674 -1.87036 1.08842 0
M  V30 7774 C 758.269 0.603985 3.33373 0
M  V30 7775 C 756.828 0.271637 3.75419 0
M  V30 7776 C 755.975 0.872898 2.63203 0
M  V30 7777 H 758.926 0.921108 1.29233 0
M  V30 7778 H 758.947 -0.128471 3.80283 0
M  V30 7779 H 758.459 1.67141 3.50265 0
M  V30 7780 H 756.56 -0.790455 3.64119 0
M  V30 7781 H 756.673 0.745457 4.73265 0
M  V30 7782 H 755.037 0.300431 2.52922 0
M  V30 7783 H 755.82 1.94473 2.82905 0
M  V30 7784 N 758.265 -1.50454 0.469181 0
M  V30 7785 C 759.228 -2.2703 -0.314643 0
M  V30 7786 C 760.228 -1.31734 -0.922111 0
M  V30 7787 O 761.418 -1.55176 -0.791588 0
M  V30 7788 C 758.55 -3.08616 -1.44806 0
M  V30 7789 H 759.743 -2.97769 0.356892 0
M  V30 7790 H 757.296 -1.54698 0.223191 0
M  V30 7791 H 758.031 -2.42369 -2.1547 0
M  V30 7792 H 757.816 -3.78647 -1.01829 0
M  V30 7793 H 759.306 -3.66536 -2.00103 0
M  V30 7794 N 759.743 -0.201713 -1.56304 0
M  V30 7795 C 760.99 0.435307 -1.97766 0
M  V30 7796 C 761.318 1.61169 -1.0888 0
M  V30 7797 O 760.573 1.95272 -0.12934 0
M  V30 7798 C 760.872 0.931432 -3.45049 0
M  V30 7799 C 760.538 -0.132287 -4.50706 0
M  V30 7800 C 759.2 -0.424552 -4.79323 0
M  V30 7801 C 761.552 -0.852703 -5.14177 0
M  V30 7802 C 758.88 -1.4421 -5.68701 0
M  V30 7803 C 761.232 -1.85944 -6.04655 0
M  V30 7804 C 759.896 -2.15884 -6.31625 0
M  V30 7805 H 759.166 0.15929 -0.723676 0
M  V30 7806 H 761.813 -0.300069 -1.89134 0
M  V30 7807 H 760.118 1.7452 -3.50785 0
M  V30 7808 H 761.815 1.43383 -3.74489 0
M  V30 7809 H 758.405 0.105671 -4.2847 0
M  V30 7810 H 762.589 -0.640139 -4.92154 0
M  V30 7811 H 757.845 -1.6799 -5.87869 0
M  V30 7812 H 762.019 -2.42286 -6.52894 0
M  V30 7813 H 759.646 -2.94875 -7.0068 0
M  V30 7814 N 761.222 1.57436 0.0718424 0
M  V30 7815 C 762.152 2.06724 1.08571 0
M  V30 7816 C 763.133 0.960731 1.40371 0
M  V30 7817 O 764.318 1.23345 1.49999 0
M  V30 7818 C 761.448 2.51112 2.39916 0
M  V30 7819 C 760.402 3.65639 2.22469 0
M  V30 7820 C 759.728 3.96082 3.59198 0
M  V30 7821 C 761.028 4.95687 1.64596 0
M  V30 7822 H 762.722 2.91679 0.675569 0
M  V30 7823 H 760.268 1.40319 0.32352 0
M  V30 7824 H 762.221 2.84206 3.11135 0
M  V30 7825 H 760.945 1.63186 2.8291 0
M  V30 7826 H 759.604 3.32828 1.53691 0
M  V30 7827 H 759.252 3.05287 3.99761 0
M  V30 7828 H 758.952 4.73199 3.48362 0
M  V30 7829 H 760.476 4.31672 4.31847 0
M  V30 7830 H 761.89 5.27011 2.25681 0
M  V30 7831 H 760.287 5.77126 1.64457 0
M  V30 7832 H 761.357 4.8108 0.60744 0
M  V30 7833 N 762.7 -0.34323 1.53817 0
M  V30 7834 C 763.925 -1.1079 1.75329 0
M  V30 7835 C 764.35 -1.81571 0.491293 0
M  V30 7836 O 763.708 -1.72561 -0.556089 0
M  V30 7837 C 763.756 -2.09681 2.9337 0
M  V30 7838 O 762.86 -3.17207 2.63541 0
M  V30 7839 H 762.201 -0.320402 0.581583 0
M  V30 7840 H 764.731 -0.393525 2.0078 0
M  V30 7841 H 764.741 -2.52897 3.20168 0
M  V30 7842 H 763.416 -1.5756 3.84899 0
M  V30 7843 H 761.993 -2.78806 2.47632 0
M  V30 7844 N 764.178 -1.45556 -0.604258 0
M  V30 7845 C 765.589 -1.44171 -1.18624 0
M  V30 7846 C 765.94 -0.171081 -1.95453 0
M  V30 7847 O 765.065 0.727156 -2.03817 0
M  V30 7848 C 765.66 -2.61193 -2.15786 0
M  V30 7849 C 764.219 -2.62918 -2.69353 0
M  V30 7850 C 763.366 -2.36479 -1.4482 0
M  V30 7851 H 766.317 -1.53747 -0.393381 0
M  V30 7852 H 766.338 -2.35481 -2.98879 0
M  V30 7853 H 765.85 -3.53656 -1.59841 0
M  V30 7854 H 763.951 -1.7447 -3.29228 0
M  V30 7855 H 764.064 -3.6224 -3.13559 0
M  V30 7856 H 762.428 -1.86103 -1.73891 0
M  V30 7857 H 763.211 -3.31091 -0.907376 0
M  V30 7858 N 765.656 0.84705 -1.32902 0
M  V30 7859 C 766.604 1.97765 -1.22441 0
M  V30 7860 C 767.598 1.68919 -0.127546 0
M  V30 7861 O 768.804 1.77633 -0.290973 0
M  V30 7862 H 765.179 0.649072 -0.379748 0
M  V30 7863 H 767.15 2.03713 -2.18044 0
M  V30 7864 C 765.899 3.33834 -0.972125 0
M  V30 7865 H 765.222 3.56564 -1.80837 0
M  V30 7866 H 766.662 4.13467 -0.939209 0
M  V30 7867 C 765.121 3.35328 0.325059 0
M  V30 7868 O 765.651 3.78887 1.33445 0
M  V30 7869 N 763.857 2.88488 0.349718 0
M  V30 7870 H 763.404 2.53234 -0.472236 0
M  V30 7871 H 763.362 2.8987 1.21748 0
M  V30 7872 N 767.134 1.16236 1.06428 0
M  V30 7873 C 768.38 0.944431 1.79467 0
M  V30 7874 C 768.713 -0.526558 1.86925 0
M  V30 7875 O 767.988 -1.39061 1.35986 0
M  V30 7876 C 768.271 1.57092 3.24028 0
M  V30 7877 C 768.124 3.11315 3.24658 0
M  V30 7878 C 769.443 1.26447 4.21544 0
M  V30 7879 H 766.562 0.344521 0.651517 0
M  V30 7880 H 769.204 1.43545 1.24478 0
M  V30 7881 H 767.354 1.15337 3.70985 0
M  V30 7882 H 769.026 3.62042 2.85873 0
M  V30 7883 H 767.269 3.44716 2.6335 0
M  V30 7884 H 767.94 3.50269 4.26633 0
M  V30 7885 H 770.416 1.62581 3.83023 0
M  V30 7886 H 769.292 1.72885 5.20963 0
M  V30 7887 H 769.553 0.183068 4.41721 0
M  V30 7888 N 768.612 -1.24939 0.960631 0
M  V30 7889 C 769.575 -2.239 0.49006 0
M  V30 7890 C 770.575 -1.55497 -0.409535 0
M  V30 7891 O 771.765 -1.72978 -0.205984 0
M  V30 7892 C 768.897 -3.39654 -0.291193 0
M  V30 7893 H 770.09 -2.67044 1.36482 0
M  V30 7894 H 767.643 -1.37429 0.744505 0
M  V30 7895 H 768.378 -3.01939 -1.18336 0
M  V30 7896 H 768.163 -3.90496 0.354276 0
M  V30 7897 H 769.653 -4.13125 -0.609693 0
M  V30 7898 N 770.09 -0.729906 -1.39679 0
M  V30 7899 C 771.037 -0.0866063 -2.30637 0
M  V30 7900 C 772.007 0.735115 -1.48947 0
M  V30 7901 O 773.192 0.696125 -1.77648 0
M  V30 7902 C 770.332 0.818524 -3.35252 0
M  V30 7903 C 769.445 -0.0152635 -4.31997 0
M  V30 7904 C 768.58 0.890669 -5.2368 0
M  V30 7905 C 767.619 0.0518246 -6.12078 0
M  V30 7906 N 766.756 0.913411 -6.96133 0
M  V30 7907 H 771.596 -0.867925 -2.85081 0
M  V30 7908 H 769.133 -0.439673 -1.40376 0
M  V30 7909 H 771.091 1.3577 -3.9449 0
M  V30 7910 H 769.721 1.56587 -2.82277 0
M  V30 7911 H 768.773 -0.671794 -3.74421 0
M  V30 7912 H 770.085 -0.664086 -4.9436 0
M  V30 7913 H 769.239 1.49787 -5.87919 0
M  V30 7914 H 767.978 1.57328 -4.61627 0
M  V30 7915 H 766.983 -0.568209 -5.46856 0
M  V30 7916 H 768.208 -0.627497 -6.76195 0
M  V30 7917 H 766.154 1.58141 -6.36653 0
M  V30 7918 H 766.071 0.320952 -7.55318 0
M  V30 7919 H 767.339 1.50633 -7.64807 0
M  V30 7920 N 771.568 1.50203 -0.477153 0
M  V30 7921 C 772.814 2.02658 0.0758507 0
M  V30 7922 C 773.147 1.358 1.38824 0
M  V30 7923 O 772.422 0.485696 1.88338 0
M  V30 7924 C 772.705 3.59208 0.253339 0
M  V30 7925 C 772.558 4.36629 -1.0805 0
M  V30 7926 C 773.877 4.28469 1.00509 0
M  V30 7927 H 770.996 0.736538 0.0260921 0
M  V30 7928 H 773.638 1.79464 -0.623925 0
M  V30 7929 H 771.788 3.79101 0.849378 0
M  V30 7930 H 773.46 4.28292 -1.71358 0
M  V30 7931 H 771.703 4.0013 -1.67566 0
M  V30 7932 H 772.374 5.44449 -0.909883 0
M  V30 7933 H 774.85 4.13087 0.499818 0
M  V30 7934 H 773.726 5.37804 1.09808 0
M  V30 7935 H 773.987 3.92057 2.04314 0
M  V30 7936 N 773.046 0.209999 1.56195 0
M  V30 7937 C 773.976 -0.699746 2.22769 0
M  V30 7938 C 774.957 -1.20993 1.1956 0
M  V30 7939 O 776.142 -1.25605 1.48112 0
M  V30 7940 C 773.272 -1.91302 2.89863 0
M  V30 7941 C 772.226 -1.53715 3.99444 0
M  V30 7942 C 771.552 -2.82826 4.53777 0
M  V30 7943 C 772.852 -0.735836 5.17091 0
M  V30 7944 H 774.546 -0.144716 2.9905 0
M  V30 7945 H 772.092 -0.0681645 1.43839 0
M  V30 7946 H 774.045 -2.5548 3.35124 0
M  V30 7947 H 772.769 -2.49283 2.11011 0
M  V30 7948 H 771.428 -0.918892 3.54897 0
M  V30 7949 H 771.076 -3.38927 3.71669 0
M  V30 7950 H 770.776 -2.58415 5.27727 0
M  V30 7951 H 772.3 -3.47966 5.01749 0
M  V30 7952 H 773.714 -1.28105 5.58804 0
M  V30 7953 H 772.111 -0.589272 5.972 0
M  V30 7954 H 773.181 0.260004 4.84202 0
M  V30 7955 N 774.524 -1.57472 -0.0634922 0
M  V30 7956 C 775.77 -1.87932 -0.762194 0
M  V30 7957 C 776.103 -0.803377 -1.76804 0
M  V30 7958 O 775.378 0.185468 -1.93614 0
M  V30 7959 C 775.661 -3.29053 -1.46275 0
M  V30 7960 C 775.514 -4.47309 -0.472755 0
M  V30 7961 C 776.833 -3.68537 -2.40558 0
M  V30 7962 H 773.952 -0.683521 -0.275624 0
M  V30 7963 H 776.594 -1.89983 -0.0252651 0
M  V30 7964 H 774.744 -3.27435 -2.0909 0
M  V30 7965 H 776.416 -4.61053 0.150828 0
M  V30 7966 H 774.659 -4.33286 0.211187 0
M  V30 7967 H 775.33 -5.42853 -1.00072 0
M  V30 7968 H 777.806 -3.71302 -1.87814 0
M  V30 7969 H 776.682 -4.68152 -2.86574 0
M  V30 7970 H 776.943 -2.98917 -3.25731 0
M  V30 7971 N 776.003 0.335068 -1.53997 0
M  V30 7972 C 776.913 1.43511 -1.85585 0
M  V30 7973 C 777.929 1.57162 -0.746726 0
M  V30 7974 O 779.105 1.72477 -1.03988 0
M  V30 7975 C 776.17 2.78386 -2.06646 0
M  V30 7976 C 775.231 2.74007 -3.30483 0
M  V30 7977 C 774.464 4.02449 -3.50529 0
M  V30 7978 O 774.687 5.00147 -2.74242 0
M  V30 7979 O 773.621 4.06405 -4.4398 0
M  V30 7980 H 777.447 1.19731 -2.79102 0
M  V30 7981 H 775.032 0.528033 -1.39758 0
M  V30 7982 H 776.914 3.58247 -2.21894 0
M  V30 7983 H 775.589 3.0208 -1.16317 0
M  V30 7984 H 774.496 1.92736 -3.2063 0
M  V30 7985 H 775.829 2.55267 -4.20832 0
M  V30 7986 N 777.481 1.45874 0.596531 0
M  V30 7987 C 778.413 1.51408 1.7207 0
M  V30 7988 C 779.426 0.403738 1.57714 0
M  V30 7989 O 780.615 0.671384 1.65393 0
M  V30 7990 C 777.715 1.3652 3.10186 0
M  V30 7991 C 776.888 2.61428 3.50677 0
M  V30 7992 C 775.947 2.40937 4.67799 0
M  V30 7993 O 774.973 3.14602 4.74357 0
M  V30 7994 N 776.175 1.4621 5.61785 0
M  V30 7995 H 778.94 2.48333 1.67782 0
M  V30 7996 H 776.501 1.41755 0.782129 0
M  V30 7997 H 778.493 1.20606 3.86311 0
M  V30 7998 H 777.063 0.478302 3.08919 0
M  V30 7999 H 776.283 2.92381 2.644 0
M  V30 8000 H 777.571 3.44432 3.74491 0
M  V30 8001 H 776.969 0.854382 5.59211 0
M  V30 8002 H 775.526 1.36264 6.37397 0
M  V30 8003 N 778.959 -0.83999 1.33349 0
M  V30 8004 C 780.206 -1.59517 1.24742 0
M  V30 8005 C 780.534 -1.93598 -0.187077 0
M  V30 8006 O 779.789 -1.58782 -1.14398 0
M  V30 8007 C 780.088 -2.91571 2.06691 0
M  V30 8008 C 779.754 -2.76856 3.55895 0
M  V30 8009 C 778.416 -2.72551 3.96572 0
M  V30 8010 C 780.768 -2.61741 4.50712 0
M  V30 8011 C 778.096 -2.51028 5.30285 0
M  V30 8012 C 780.448 -2.41752 5.84584 0
M  V30 8013 C 779.112 -2.35848 6.24445 0
M  V30 8014 H 778.382 -0.583714 0.456463 0
M  V30 8015 H 781.029 -0.973261 1.64924 0
M  V30 8016 H 779.334 -3.57961 1.59284 0
M  V30 8017 H 781.031 -3.49053 1.9739 0
M  V30 8018 H 777.621 -2.81039 3.23597 0
M  V30 8019 H 781.805 -2.64102 4.20195 0
M  V30 8020 H 777.061 -2.44903 5.60208 0
M  V30 8021 H 781.235 -2.2904 6.57658 0
M  V30 8022 H 778.862 -2.18931 7.27993 0
M  V30 8023 N 780.437 -1.16799 -1.0581 0
M  V30 8024 C 781.385 -0.875111 -2.1551 0
M  V30 8025 C 782.379 0.157781 -1.68664 0
M  V30 8026 O 783.585 0.011297 -1.79996 0
M  V30 8027 H 779.96 -0.26542 -0.703602 0
M  V30 8028 H 781.931 -1.8076 -2.37421 0
M  V30 8029 C 780.68 -0.39802 -3.45414 0
M  V30 8030 H 780.003 -1.18425 -3.81858 0
M  V30 8031 H 781.443 -0.231913 -4.23365 0
M  V30 8032 C 779.902 0.88327 -3.25115 0
M  V30 8033 O 780.432 1.95145 -3.51114 0
M  V30 8034 N 778.638 0.828961 -2.78526 0
M  V30 8035 H 778.185 -0.0405029 -2.57568 0
M  V30 8036 H 778.143 1.68673 -2.65324 0
M  V30 8037 N 781.915 1.24427 -0.967243 0
M  V30 8038 C 783.164 1.91789 -0.624478 0
M  V30 8039 C 783.477 1.76448 0.844129 0
M  V30 8040 O 784.683 2.38495 1.2974 0
M  V30 8041 C 783.139 3.43743 -1.06626 0
M  V30 8042 C 782.747 3.67771 -2.55829 0
M  V30 8043 C 784.491 4.16958 -0.79662 0
M  V30 8044 C 782.398 5.13293 -2.93742 0
M  V30 8045 H 781.328 0.71811 -0.229856 0
M  V30 8046 H 783.979 1.41081 -1.17339 0
M  V30 8047 H 782.361 3.93484 -0.445663 0
M  V30 8048 H 783.535 3.28631 -3.23015 0
M  V30 8049 H 781.85 3.07841 -2.80398 0
M  V30 8050 H 784.447 5.24171 -1.05589 0
M  V30 8051 H 784.79 4.15442 0.267163 0
M  V30 8052 H 785.323 3.73164 -1.37816 0
M  V30 8053 H 782.062 5.19931 -3.9919 0
M  V30 8054 H 781.582 5.53433 -2.3124 0
M  V30 8055 H 783.261 5.81521 -2.83623 0
M  V30 8056 N 783.393 0.737304 1.3929 0
M  V30 8057 C 784.641 0.285691 2.00071 0
M  V30 8058 C 784.962 -1.13169 1.58801 0
M  V30 8059 O 784.232 -1.77104 0.837308 0
M  V30 8060 H 782.812 0.102638 0.739915 0
M  V30 8061 H 785.474 0.947775 1.70303 0
M  V30 8062 H 784.57 0.335906 3.10287 0
M  V30 8063 N 784.871 -1.49948 0.485112 0
M  V30 8064 C 786.119 -2.01996 -0.0648775 0
M  V30 8065 C 786.44 -1.36819 -1.38945 0
M  V30 8066 O 785.71 -0.518163 -1.88923 0
M  V30 8067 H 784.29 -0.746513 -0.0269662 0
M  V30 8068 H 786.952 -1.84136 0.638733 0
M  V30 8069 H 786.048 -3.11418 -0.20617 0
M  V30 8070 N 786.349 -0.21828 -1.56081 0
M  V30 8071 C 787.598 0.414644 -1.97392 0
M  V30 8072 C 787.911 1.61132 -1.10887 0
M  V30 8073 O 789.117 2.31355 -1.42082 0
M  V30 8074 C 787.573 0.789099 -3.51143 0
M  V30 8075 C 787.181 -0.384578 -4.46346 0
M  V30 8076 C 788.925 1.38781 -4.01173 0
M  V30 8077 C 786.832 0.0121288 -5.91399 0
M  V30 8078 H 785.762 0.158691 -0.737111 0
M  V30 8079 H 788.413 -0.313974 -1.80794 0
M  V30 8080 H 786.795 1.57505 -3.6333 0
M  V30 8081 H 787.969 -1.16212 -4.45905 0
M  V30 8082 H 786.284 -0.896306 -4.06639 0
M  V30 8083 H 788.881 1.69746 -5.07041 0
M  V30 8084 H 789.224 2.30245 -3.46833 0
M  V30 8085 H 789.757 0.665364 -3.92196 0
M  V30 8086 H 786.496 -0.868917 -6.49715 0
M  V30 8087 H 786.016 0.754053 -5.95041 0
M  V30 8088 H 787.695 0.439949 -6.45502 0
M  V30 8089 N 787.827 1.57504 0.0551401 0
M  V30 8090 C 789.055 1.92294 0.76358 0
M  V30 8091 C 789.47 0.815774 1.70266 0
M  V30 8092 O 788.827 -0.209772 1.8129 0
M  V30 8093 C 788.878 3.26914 1.54302 0
M  V30 8094 O 788.599 4.33375 0.641666 0
M  V30 8095 C 790.1 3.75825 2.35097 0
M  V30 8096 H 787.32 0.635229 0.216159 0
M  V30 8097 H 789.864 2.0449 0.0204385 0
M  V30 8098 H 788.019 3.16196 2.23828 0
M  V30 8099 H 788.433 5.10927 1.1855 0
M  V30 8100 H 789.907 4.72603 2.8522 0
M  V30 8101 H 790.384 3.0568 3.15367 0
M  V30 8102 H 790.99 3.89542 1.70696 0
M  V30 8103 N 789.305 -0.326896 1.54172 0
M  V30 8104 C 790.53 -1.08924 1.76494 0
M  V30 8105 C 790.955 -1.81039 0.510523 0
M  V30 8106 O 790.313 -1.73141 -0.537756 0
M  V30 8107 C 790.361 -2.06558 2.95578 0
M  V30 8108 O 789.465 -3.14394 2.6689 0
M  V30 8109 H 788.806 -0.314216 0.584948 0
M  V30 8110 H 791.336 -0.372207 2.01186 0
M  V30 8111 H 791.346 -2.49487 3.22832 0
M  V30 8112 H 790.021 -1.53469 3.86549 0
M  V30 8113 H 788.598 -2.76164 2.50576 0
M  V30 8114 N 790.784 -1.46188 -0.588786 0
M  V30 8115 C 792.195 -1.45421 -1.17088 0
M  V30 8116 C 792.546 -0.191801 -1.9526 0
M  V30 8117 O 791.671 0.705497 -2.04577 0
M  V30 8118 C 792.266 -2.63467 -2.13004 0
M  V30 8119 C 790.825 -2.6576 -2.6655 0
M  V30 8120 C 789.972 -2.38002 -1.42304 0
M  V30 8121 H 792.923 -1.54156 -0.377052 0
M  V30 8122 H 792.944 -2.38638 -2.96365 0
M  V30 8123 H 792.456 -3.55331 -1.56081 0
M  V30 8124 H 790.557 -1.77952 -3.27359 0
M  V30 8125 H 790.67 -3.65545 -3.09699 0
M  V30 8126 H 789.034 -1.87936 -1.71907 0
M  V30 8127 H 789.817 -3.32035 -0.872209 0
M  V30 8128 N 792.262 0.832906 -1.33792 0
M  V30 8129 C 793.194 1.95042 -1.2038 0
M  V30 8130 C 794.207 1.62253 -0.133299 0
M  V30 8131 O 795.396 1.74315 -0.384261 0
M  V30 8132 C 792.496 3.287 -0.825215 0
M  V30 8133 C 791.669 3.89581 -1.98861 0
M  V30 8134 C 790.728 5.01602 -1.59003 0
M  V30 8135 O 789.754 5.20431 -2.30522 0
M  V30 8136 N 790.956 5.78356 -0.498446 0
M  V30 8137 H 793.721 2.07083 -2.16649 0
M  V30 8138 H 791.282 1.00896 -1.26616 0
M  V30 8139 H 793.274 4.01074 -0.540559 0
M  V30 8140 H 791.844 3.12565 0.0469796 0
M  V30 8141 H 791.064 3.09723 -2.43856 0
M  V30 8142 H 792.352 4.26989 -2.76691 0
M  V30 8143 H 791.75 5.65618 0.0963297 0
M  V30 8144 H 790.307 6.51226 -0.273485 0
M  V30 8145 N 793.74 1.17359 1.05189 0
M  V30 8146 C 795.017 0.871914 1.75091 0
M  V30 8147 C 795.397 -0.627821 2.01548 0
M  V30 8148 O 794.745 -1.5791 1.65156 0
M  V30 8149 C 794.955 1.70687 3.04413 0
M  V30 8150 C 796.303 1.92684 3.78362 0
M  V30 8151 O 797.327 1.67645 3.14282 0
M  V30 8152 O 796.186 2.34765 4.93505 0
M  V30 8153 H 793.28 0.322831 0.761386 0
M  V30 8154 H 795.826 1.28054 1.11357 0
M  V30 8155 H 794.598 2.72405 2.80911 0
M  V30 8156 H 794.221 1.29602 3.75884 0
M  V30 8157 N 795.218 -1.23913 0.973828 0
M  V30 8158 C 796.495 -1.87539 0.555729 0
M  V30 8159 C 796.875 -1.87641 -0.967162 0
M  V30 8160 O 796.223 -1.35335 -1.84111 0
M  V30 8161 C 796.433 -3.29359 1.15427 0
M  V30 8162 C 797.781 -4.06 1.24294 0
M  V30 8163 O 798.805 -3.38554 1.10723 0
M  V30 8164 O 797.664 -5.26689 1.45813 0
M  V30 8165 H 794.758 -0.805769 0.186188 0
M  V30 8166 H 797.304 -1.31838 1.06849 0
M  V30 8167 H 796.076 -3.23817 2.19678 0
M  V30 8168 H 795.699 -3.92642 0.625925 0
M  V30 8169 N 796.696 -0.74468 -1.38897 0
M  V30 8170 C 797.626 -0.126355 -2.33158 0
M  V30 8171 C 798.607 0.713517 -1.54412 0
M  V30 8172 O 799.792 0.656523 -1.82766 0
M  V30 8173 C 796.922 0.774375 -3.38557 0
M  V30 8174 C 795.876 0.0379214 -4.27983 0
M  V30 8175 C 795.202 1.05631 -5.24162 0
M  V30 8176 C 796.502 -1.12523 -5.10035 0
M  V30 8177 H 798.196 -0.913744 -2.85116 0
M  V30 8178 H 795.742 -0.440847 -1.37086 0
M  V30 8179 H 797.695 1.21655 -4.03458 0
M  V30 8180 H 796.419 1.59399 -2.85061 0
M  V30 8181 H 795.078 -0.384733 -3.64576 0
M  V30 8182 H 794.726 1.86975 -4.66958 0
M  V30 8183 H 794.426 0.568261 -5.84846 0
M  V30 8184 H 795.95 1.49799 -5.9194 0
M  V30 8185 H 797.364 -0.761037 -5.68226 0
M  V30 8186 H 795.761 -1.54355 -5.79909 0
M  V30 8187 H 796.831 -1.94237 -4.44297 0
M  V30 8188 N 798.174 1.49689 -0.493057 0
M  V30 8189 C 799.121 2.28976 0.28959 0
M  V30 8190 C 800.091 1.35011 0.967536 0
M  V30 8191 O 801.276 1.63964 0.975736 0
M  V30 8192 C 798.416 3.1748 1.35279 0
M  V30 8193 C 797.529 4.26496 0.687418 0
M  V30 8194 C 796.664 5.02226 1.73038 0
M  V30 8195 C 795.703 6.03089 1.04645 0
M  V30 8196 N 794.84 6.72014 2.03325 0
M  V30 8197 H 799.68 2.954 -0.392798 0
M  V30 8198 H 797.217 1.45657 -0.205554 0
M  V30 8199 H 799.175 3.67162 1.98111 0
M  V30 8200 H 797.805 2.53057 2.00405 0
M  V30 8201 H 796.857 3.80362 -0.0540001 0
M  V30 8202 H 798.169 4.98578 0.14864 0
M  V30 8203 H 797.323 5.55737 2.43395 0
M  V30 8204 H 796.062 4.29899 2.303 0
M  V30 8205 H 795.067 5.48817 0.328606 0
M  V30 8206 H 796.292 6.77398 0.480428 0
M  V30 8207 H 794.238 6.02464 2.59564 0
M  V30 8208 H 794.155 7.40046 1.54492 0
M  V30 8209 H 795.423 7.30133 2.72995 0
M  V30 8210 N 799.652 0.226554 1.55963 0
M  V30 8211 C 800.615 -0.668015 2.19249 0
M  V30 8212 C 801.615 -1.11794 1.1558 0
M  V30 8213 O 802.805 -1.02593 1.40784 0
M  V30 8214 C 799.937 -1.91571 2.81981 0
M  V30 8215 H 801.13 -0.116175 2.99675 0
M  V30 8216 H 798.683 -0.0230497 1.56283 0
M  V30 8217 H 799.418 -2.50929 2.05439 0
M  V30 8218 H 799.203 -1.6015 3.57903 0
M  V30 8219 H 800.693 -2.55294 3.30477 0
M  V30 8220 N 801.13 -1.57531 -0.0467866 0
M  V30 8221 C 802.377 -1.88451 -0.74112 0
M  V30 8222 C 802.705 -0.821592 -1.76296 0
M  V30 8223 O 801.96 0.179585 -1.94874 0
M  V30 8224 C 802.259 -3.26091 -1.46285 0
M  V30 8225 C 801.925 -4.47171 -0.578669 0
M  V30 8226 C 800.587 -4.80032 -0.335083 0
M  V30 8227 C 802.939 -5.2119 0.0328809 0
M  V30 8228 C 800.267 -5.84309 0.529121 0
M  V30 8229 C 802.619 -6.26383 0.884684 0
M  V30 8230 C 801.283 -6.57729 1.1379 0
M  V30 8231 H 800.553 -0.68959 -0.271195 0
M  V30 8232 H 803.2 -1.915 -0.00132378 0
M  V30 8233 H 801.505 -3.18948 -2.27551 0
M  V30 8234 H 803.202 -3.47258 -2.00532 0
M  V30 8235 H 799.792 -4.21467 -0.778666 0
M  V30 8236 H 803.976 -4.96096 -0.142375 0
M  V30 8237 H 799.232 -6.06981 0.733794 0
M  V30 8238 H 803.406 -6.82888 1.36516 0
M  V30 8239 H 801.033 -7.38355 1.80929 0
M  V30 8240 N 802.608 0.318715 -1.54344 0
M  V30 8241 C 803.855 1.05608 -1.72781 0
M  V30 8242 C 804.183 1.87854 -0.504083 0
M  V30 8243 O 803.438 1.88826 0.51414 0
M  V30 8244 C 803.737 2.00514 -2.95853 0
M  V30 8245 C 803.403 1.34385 -4.30409 0
M  V30 8246 C 802.065 1.16081 -4.66989 0
M  V30 8247 C 804.417 0.869627 -5.13894 0
M  V30 8248 C 801.745 0.490114 -5.84649 0
M  V30 8249 C 804.097 0.212735 -6.32242 0
M  V30 8250 C 802.761 0.0175882 -6.67498 0
M  V30 8251 H 802.031 0.386449 -0.632249 0
M  V30 8252 H 804.678 0.332729 -1.88587 0
M  V30 8253 H 802.983 2.79317 -2.74753 0
M  V30 8254 H 804.68 2.57605 -3.07312 0
M  V30 8255 H 801.27 1.49634 -4.01631 0
M  V30 8256 H 805.454 0.998809 -4.86146 0
M  V30 8257 H 800.71 0.327767 -6.10521 0
M  V30 8258 H 804.884 -0.162699 -6.9621 0
M  V30 8259 H 802.511 -0.504137 -7.58527 0
M  V30 8260 N 804.086 1.46499 0.581025 0
M  V30 8261 C 805.334 1.51596 1.33653 0
M  V30 8262 C 805.655 0.169859 1.94259 0
M  V30 8263 O 804.925 -0.803776 1.78651 0
M  V30 8264 H 803.505 0.558346 0.496244 0
M  V30 8265 H 806.167 1.8264 0.680338 0
M  V30 8266 H 805.263 2.26956 2.14237 0
M  V30 8267 O 805.603 -0.725332 1.44295 0
M  V30 8268 H 806.294 -1.37566 1.36365 0
M  V30 END ATOM
M  V30 BEGIN BOND
M  V30 END BOND
M  V30 END CTAB
M  END
$$$$
