drugbank_target|Q01726 Melanocyte-stimulating hormone receptor (DB04931; DB05479; DB11653)
 OpenBabel12092120213D

  0  0  0     0  0            999 V3000
M  V30 BEGIN CTAB
M  V30 COUNTS 4996 5045 0 0 0
M  V30 BEGIN ATOM
M  V30 1 H -0.908 1.98254 -0.117106 0
M  V30 2 N 0 1.576 0 0
M  V30 3 C 0.933 2.03868 1.02534 0
M  V30 4 C 1.911 0.928543 1.3348 0
M  V30 5 O 3.095 1.19667 1.45644 0
M  V30 6 C 0.222 2.43627 2.35294 0
M  V30 7 C -0.732 3.65373 2.2001 0
M  V30 8 S 0.101 5.13292 1.52614 0
M  V30 9 C 1.257 5.56322 2.86805 0
M  V30 10 H 1.49 2.90518 0.631377 0
M  V30 11 H -0.977 1.52953 0.210867 0
M  V30 12 H 0.981 2.67203 3.11629 0
M  V30 13 H -0.358 1.57376 2.7183 0
M  V30 14 H -1.165 3.90944 3.18086 0
M  V30 15 H -1.563 3.418 1.51819 0
M  V30 16 H 0.729 5.58782 3.83104 0
M  V30 17 H 1.672 6.56266 2.65933 0
M  V30 18 H 2.08 4.83886 2.90714 0
M  V30 19 N 1.4781 -0.272755 1.55222 0
M  V30 20 C 2.4411 -1.32041 1.87344 0
M  V30 21 C 3.4411 -1.42342 0.74803 0
M  V30 22 O 4.6311 -1.41488 1.0162 0
M  V30 23 C 1.7631 -2.70173 2.07893 0
M  V30 24 H 2.9561 -1.04789 2.80997 0
M  V30 25 H 0.5091 -0.51083 1.47717 0
M  V30 26 H 1.2441 -3.02605 1.16622 0
M  V30 27 H 1.0291 -2.64082 2.89833 0
M  V30 28 H 2.5191 -3.45869 2.34017 0
M  V30 29 N 2.9562 -1.48159 -0.537278 0
M  V30 30 C 4.2022 -1.56035 -1.29541 0
M  V30 31 C 4.5352 -0.230377 -1.92829 0
M  V30 32 O 3.8102 0.762952 -1.78911 0
M  V30 33 C 4.0932 -2.69323 -2.39034 0
M  V30 34 C 3.9462 -4.12002 -1.80485 0
M  V30 35 C 5.2652 -2.78408 -3.40847 0
M  V30 36 H 2.3842 -0.567992 -0.469632 0
M  V30 37 H 5.0262 -1.80302 -0.599277 0
M  V30 38 H 3.1762 -2.48763 -2.98412 0
M  V30 39 H 4.8482 -4.43981 -1.25215 0
M  V30 40 H 3.0912 -4.19344 -1.11055 0
M  V30 41 H 3.7622 -4.87077 -2.59731 0
M  V30 42 H 6.2382 -2.97012 -2.91416 0
M  V30 43 H 5.1142 -3.59416 -4.14863 0
M  V30 44 H 5.3752 -1.86269 -4.00944 0
M  V30 45 N 4.4343 0.785586 -1.36625 0
M  V30 46 C 5.3663 1.90711 -1.2713 0
M  V30 47 C 6.3793 1.61688 -0.189986 0
M  V30 48 O 7.5683 1.72864 -0.445014 0
M  V30 49 C 4.6683 3.25611 -0.939713 0
M  V30 50 C 3.8413 3.82385 -2.12369 0
M  V30 51 C 2.9003 4.95732 -1.76456 0
M  V30 52 O 1.9263 5.12047 -2.48589 0
M  V30 53 N 3.1283 5.76258 -0.700492 0
M  V30 54 H 5.8933 1.99376 -2.23762 0
M  V30 55 H 3.4543 0.964041 -1.30069 0
M  V30 56 H 5.4463 3.98937 -0.680554 0
M  V30 57 H 4.0163 3.12538 -0.0624074 0
M  V30 58 H 3.2363 3.01001 -2.54543 0
M  V30 59 H 4.5243 4.17047 -2.9146 0
M  V30 60 H 3.9223 5.65609 -0.101624 0
M  V30 61 H 2.4793 6.4987 -0.501165 0
M  V30 62 N 5.9124 1.20967 1.01018 0
M  V30 63 C 7.1604 1.02172 1.74371 0
M  V30 64 C 7.4814 -0.446414 1.89821 0
M  V30 65 O 6.7514 -1.32234 1.44537 0
M  V30 66 H 5.3314 0.375066 0.646014 0
M  V30 67 H 7.9934 1.52187 1.21758 0
M  V30 68 H 7.0894 1.48538 2.74487 0
M  V30 69 N 7.3905 -1.2043 1.01659 0
M  V30 70 C 8.6155 -1.94318 0.724942 0
M  V30 71 C 9.0405 -1.74266 -0.708034 0
M  V30 72 O 8.3985 -1.03694 -1.48719 0
M  V30 73 C 8.4465 -3.44486 1.06591 0
M  V30 74 O 7.5505 -4.12017 0.177599 0
M  V30 75 H 6.8915 -0.60708 0.26898 0
M  V30 76 H 9.4215 -1.52861 1.35995 0
M  V30 77 H 9.4315 -3.95106 1.01762 0
M  V30 78 H 8.1065 -3.58404 2.10997 0
M  V30 79 H 6.6835 -3.71821 0.283421 0
M  V30 80 N 8.8686 -0.792821 -1.36206 0
M  V30 81 C 9.8006 -0.151469 -2.28699 0
M  V30 82 C 10.8136 0.641262 -1.49638 0
M  V30 83 O 12.0026 0.475885 -1.72039 0
M  V30 84 C 9.1026 0.808424 -3.29117 0
M  V30 85 C 8.2756 0.0650202 -4.37352 0
M  V30 86 C 7.3346 0.941358 -5.17711 0
M  V30 87 O 6.3606 0.397352 -5.67811 0
M  V30 88 N 7.5626 2.2652 -5.3448 0
M  V30 89 H 10.3276 -0.945982 -2.84379 0
M  V30 90 H 7.8886 -0.647032 -1.48409 0
M  V30 91 H 9.8806 1.3986 -3.79765 0
M  V30 92 H 8.4506 1.5038 -2.74052 0
M  V30 93 H 7.6706 -0.706255 -3.87822 0
M  V30 94 H 8.9586 -0.447847 -5.06825 0
M  V30 95 H 8.3566 2.73128 -4.95396 0
M  V30 96 H 6.9136 2.80493 -5.88359 0
M  V30 97 N 10.3467 1.47872 -0.545128 0
M  V30 98 C 11.7627 1.5829 -0.204032 0
M  V30 99 C 11.9627 1.54529 1.29317 0
M  V30 100 O 11.0187 1.44232 2.07252 0
M  V30 101 C 12.3317 2.89304 -0.819987 0
M  V30 102 C 13.8797 3.02864 -0.790105 0
M  V30 103 C 14.3547 4.3656 -1.38491 0
M  V30 104 N 15.8457 4.43165 -1.34755 0
M  V30 105 C 16.5807 5.45153 -1.77753 0
M  V30 106 N 16.0767 6.54016 -2.2855 0
M  V30 107 N 17.8697 5.36125 -1.68897 0
M  V30 108 H 10.0207 1.4856 -1.51802 0
M  V30 109 H 12.2837 0.706305 -0.632327 0
M  V30 110 H 11.9897 2.97757 -1.87173 0
M  V30 111 H 11.8637 3.75957 -0.305915 0
M  V30 112 H 14.2507 2.94014 0.252913 0
M  V30 113 H 14.3317 2.17782 -1.34181 0
M  V30 114 H 13.9757 4.46164 -2.42693 0
M  V30 115 H 13.9057 5.20353 -0.808754 0
M  V30 116 H 16.3967 3.65083 -0.975855 0
M  V30 117 H 16.7097 7.27994 -2.59314 0
M  V30 118 H 15.0547 6.54938 -2.32553 0
M  V30 119 H 18.2457 4.49975 -1.28998 0
M  V30 120 H 18.4187 6.15472 -2.02726 0
M  V30 121 N 11.8248 0.280983 1.55075 0
M  V30 122 C 13.2408 -0.0729964 1.59433 0
M  V30 123 C 13.4408 -1.5411 1.29817 0
M  V30 124 O 12.4968 -2.29086 1.06187 0
M  V30 125 C 13.8098 0.306921 2.9913 0
M  V30 126 C 15.3578 0.254023 3.11968 0
M  V30 127 C 15.8328 0.608467 4.5394 0
M  V30 128 N 17.3238 0.560241 4.59799 0
M  V30 129 C 18.0588 0.80722 5.6769 0
M  V30 130 N 17.5548 1.11912 6.83701 0
M  V30 131 N 19.3478 0.735623 5.57266 0
M  V30 132 H 11.4988 1.238 1.7259 0
M  V30 133 H 13.7618 0.500547 0.805082 0
M  V30 134 H 13.4678 1.32816 3.25657 0
M  V30 135 H 13.3418 -0.349363 3.75579 0
M  V30 136 H 15.7288 -0.75794 2.852 0
M  V30 137 H 15.8098 0.944649 2.37718 0
M  V30 138 H 15.4538 1.61814 4.81434 0
M  V30 139 H 15.3838 -0.104013 5.26497 0
M  V30 140 H 17.8748 0.329288 3.76463 0
M  V30 141 H 18.1878 1.29409 7.61888 0
M  V30 142 H 16.5328 1.15695 6.85303 0
M  V30 143 H 19.7238 0.491752 4.6551 0
M  V30 144 H 19.8968 0.931482 6.4127 0
M  V30 145 N 13.3029 -1.57598 0.00835791 0
M  V30 146 C 14.2329 -2.1198 -0.979113 0
M  V30 147 C 15.2139 -1.03091 -1.35301 0
M  V30 148 O 16.3989 -1.30818 -1.43528 0
M  V30 149 C 13.5289 -2.62995 -2.26828 0
M  V30 150 C 12.4829 -3.76485 -2.03576 0
M  V30 151 C 11.8089 -4.13846 -3.38579 0
M  V30 152 C 13.1089 -5.0342 -1.39161 0
M  V30 153 H 14.8029 -2.94738 -0.526281 0
M  V30 154 H 12.3489 -1.41783 -0.251704 0
M  V30 155 H 14.3019 -2.99669 -2.96271 0
M  V30 156 H 13.0259 -1.7737 -2.7424 0
M  V30 157 H 11.6849 -3.40217 -1.36557 0
M  V30 158 H 11.3329 -3.25232 -3.83709 0
M  V30 159 H 11.0329 -4.90312 -3.23834 0
M  V30 160 H 12.5569 -4.53086 -4.09323 0
M  V30 161 H 13.9709 -5.37812 -1.98573 0
M  V30 162 H 12.3679 -5.84746 -1.34878 0
M  V30 163 H 13.4379 -4.83548 -0.361868 0
M  V30 164 N 14.781 0.264519 -1.55364 0
M  V30 165 C 15.711 1.33121 -1.91836 0
M  V30 166 C 16.692 1.51101 -0.781192 0
M  V30 167 O 17.877 1.64003 -1.04003 0
M  V30 168 C 15.007 2.68921 -2.19769 0
M  V30 169 C 13.961 2.65661 -3.35571 0
M  V30 170 C 13.287 4.05093 -3.49004 0
M  V30 171 C 14.587 2.24187 -4.71739 0
M  V30 172 H 16.281 1.02844 -2.81182 0
M  V30 173 H 13.827 0.493286 -1.35287 0
M  V30 174 H 15.78 3.43663 -2.43872 0
M  V30 175 H 14.504 3.00799 -1.27231 0
M  V30 176 H 13.163 1.93377 -3.1145 0
M  V30 177 H 12.811 4.34206 -2.53917 0
M  V30 178 H 12.511 4.03804 -4.26868 0
M  V30 179 H 14.035 4.81561 -3.75408 0
M  V30 180 H 15.449 2.88654 -4.9533 0
M  V30 181 H 13.846 2.34044 -5.52579 0
M  V30 182 H 14.916 1.19327 -4.69988 0
M  V30 183 N 16.2591 1.48442 0.529413 0
M  V30 184 C 17.5071 1.56179 1.28267 0
M  V30 185 C 17.8281 0.237721 1.93546 0
M  V30 186 O 17.0981 -0.740779 1.81354 0
M  V30 187 H 15.6781 0.575367 0.476405 0
M  V30 188 H 18.3401 1.84909 0.61602 0
M  V30 189 H 17.4361 2.34312 2.06165 0
M  V30 190 N 17.7372 -0.778329 1.37039 0
M  V30 191 C 18.9622 -1.57248 1.35233 0
M  V30 192 C 19.3872 -1.87999 -0.0615568 0
M  V30 193 O 18.7452 -1.48734 -1.03672 0
M  V30 194 C 18.7932 -2.86353 2.19167 0
M  V30 195 O 17.8972 -3.80442 1.59178 0
M  V30 196 H 17.2382 -0.476569 0.462362 0
M  V30 197 H 19.7682 -0.963853 1.80474 0
M  V30 198 H 19.7782 -3.35519 2.32145 0
M  V30 199 H 18.4532 -2.63299 3.21942 0
M  V30 200 H 17.0302 -3.39067 1.55203 0
M  V30 201 N 19.2153 -1.21501 -1.00376 0
M  V30 202 C 20.1453 -0.999478 -2.11028 0
M  V30 203 C 21.1263 0.0759671 -1.6993 0
M  V30 204 O 22.3113 -0.0841106 -1.94018 0
M  V30 205 C 19.4413 -0.564709 -3.42678 0
M  V30 206 C 18.3953 -1.58486 -3.97576 0
M  V30 207 C 17.7213 -1.00628 -5.25146 0
M  V30 208 C 19.0213 -2.97204 -4.29496 0
M  V30 209 H 20.7153 -1.92495 -2.29317 0
M  V30 210 H 18.2613 -0.92693 -1.102 0
M  V30 211 H 20.2143 -0.401091 -4.19487 0
M  V30 212 H 18.9383 0.396411 -3.24185 0
M  V30 213 H 17.5973 -1.73606 -3.22888 0
M  V30 214 H 17.2453 -0.0368439 -5.02987 0
M  V30 215 H 16.9453 -1.68771 -5.62841 0
M  V30 216 H 18.4693 -0.854015 -6.04598 0
M  V30 217 H 19.8833 -2.8552 -4.97143 0
M  V30 218 H 18.2803 -3.62372 -4.78338 0
M  V30 219 H 19.3503 -3.47956 -3.3772 0
M  V30 220 N 20.6934 1.19889 -1.02296 0
M  V30 221 C 21.6414 2.24938 -0.592081 0
M  V30 222 C 22.6354 1.65257 0.372357 0
M  V30 223 O 23.8414 1.78371 0.241583 0
M  V30 224 H 20.2164 0.731787 -0.173182 0
M  V30 225 H 22.1874 2.58603 -1.48885 0
M  V30 226 C 20.9364 3.47668 0.047351 0
M  V30 227 H 20.2594 3.93875 -0.685772 0
M  V30 228 H 21.6994 4.22852 0.311862 0
M  V30 229 C 20.1584 3.11136 1.29212 0
M  V30 230 O 20.6884 3.2325 2.38479 0
M  V30 231 N 18.8944 2.65625 1.17863 0
M  V30 232 H 18.4414 2.55968 0.289493 0
M  V30 233 H 18.3994 2.41553 2.01245 0
M  V30 234 N 22.1715 0.800033 1.35784 0
M  V30 235 C 23.3965 0.388511 2.03729 0
M  V30 236 C 23.8215 -0.990481 1.5991 0
M  V30 237 O 23.1795 -1.64013 0.772612 0
M  V30 238 C 23.2275 0.4726 3.5749 0
M  V30 239 O 22.3315 -0.51646 4.09153 0
M  V30 240 H 21.6725 0.163271 0.643614 0
M  V30 241 H 24.2025 1.0841 1.73518 0
M  V30 242 H 24.2125 0.34003 4.06581 0
M  V30 243 H 22.8875 1.47848 3.88734 0
M  V30 244 H 21.4645 -0.344673 3.71304 0
M  V30 245 N 23.6496 -1.47581 0.552962 0
M  V30 246 C 24.8776 -2.06875 0.0320556 0
M  V30 247 C 25.2926 -1.40625 -1.25976 0
M  V30 248 O 24.6496 -0.501349 -1.75479 0
M  V30 249 C 24.7006 -3.61092 -0.17167 0
M  V30 250 O 24.4216 -4.24858 1.06899 0
M  V30 251 C 25.9226 -4.37242 -0.730344 0
M  V30 252 H 23.1426 -0.669561 0.043915 0
M  V30 253 H 25.6866 -1.89646 0.765163 0
M  V30 254 H 23.8416 -3.7785 -0.854894 0
M  V30 255 H 24.2556 -5.17334 0.864059 0
M  V30 256 H 25.7296 -5.45842 -0.822203 0
M  V30 257 H 26.2066 -4.03235 -1.74064 0
M  V30 258 H 26.8126 -4.25219 -0.0829543 0
M  V30 259 N 25.1277 -0.289203 -1.54924 0
M  V30 260 C 26.5387 0.205791 -1.85562 0
M  V30 261 C 26.8897 1.54351 -1.2112 0
M  V30 262 O 26.0147 2.10435 -0.504601 0
M  V30 263 C 26.6097 0.380177 -3.3666 0
M  V30 264 C 25.1687 0.819395 -3.67373 0
M  V30 265 C 24.3157 -0.079159 -2.77187 0
M  V30 266 H 27.2667 -0.510577 -1.50262 0
M  V30 267 H 27.2877 1.21659 -3.60526 0
M  V30 268 H 26.7997 -0.593589 -3.83534 0
M  V30 269 H 24.9007 1.80413 -3.26009 0
M  V30 270 H 25.0137 0.646957 -4.74712 0
M  V30 271 H 23.3777 0.439565 -2.50878 0
M  V30 272 H 24.1607 -1.04906 -3.26878 0
M  V30 273 N 26.6058 1.57591 -0.0167156 0
M  V30 274 C 27.8338 1.95575 0.675128 0
M  V30 275 C 28.2488 0.892542 1.6637 0
M  V30 276 O 27.6058 -0.126912 1.82058 0
M  V30 277 C 27.6568 3.33608 1.39239 0
M  V30 278 O 27.3778 4.3585 0.443444 0
M  V30 279 C 28.8788 3.86151 2.17721 0
M  V30 280 H 26.0988 0.644423 0.186978 0
M  V30 281 H 28.6428 2.0437 -0.0728 0
M  V30 282 H 26.7978 3.2607 2.09182 0
M  V30 283 H 27.2118 5.158 0.951358 0
M  V30 284 H 28.6858 4.85114 2.63379 0
M  V30 285 H 29.1628 3.19738 3.01105 0
M  V30 286 H 29.7688 3.96918 1.52761 0
M  V30 287 N 28.0839 -0.256276 1.55502 0
M  V30 288 C 29.0469 -1.30047 1.88734 0
M  V30 289 C 30.0469 -1.4154 0.763086 0
M  V30 290 O 31.2369 -1.40403 1.03115 0
M  V30 291 C 28.3689 -2.67953 2.10747 0
M  V30 292 H 29.5619 -1.01802 2.82093 0
M  V30 293 H 27.1149 -0.495134 1.4825 0
M  V30 294 H 27.8499 -3.01351 1.19825 0
M  V30 295 H 27.6349 -2.60993 2.92617 0
M  V30 296 H 29.1249 -3.43368 2.37673 0
M  V30 297 N 29.562 -1.4872 -0.521534 0
M  V30 298 C 30.811 -1.56419 -1.27341 0
M  V30 299 C 31.124 -0.246805 -1.94037 0
M  V30 300 O 32.33 -0.202122 -2.70747 0
M  V30 301 C 30.786 -2.75896 -2.31105 0
M  V30 302 C 30.394 -4.14311 -1.70441 0
M  V30 303 C 32.138 -2.92913 -3.07249 0
M  V30 304 C 30.045 -5.25038 -2.72194 0
M  V30 305 H 28.975 -0.582344 -0.478949 0
M  V30 306 H 31.626 -1.75071 -0.549779 0
M  V30 307 H 30.008 -2.50697 -3.06541 0
M  V30 308 H 31.182 -4.49564 -1.01136 0
M  V30 309 H 29.497 -4.02482 -1.06759 0
M  V30 310 H 32.094 -3.72805 -3.83302 0
M  V30 311 H 32.437 -2.02689 -3.63625 0
M  V30 312 H 32.97 -3.18054 -2.38928 0
M  V30 313 H 29.709 -6.17255 -2.20627 0
M  V30 314 H 29.229 -4.94263 -3.39801 0
M  V30 315 H 30.908 -5.53508 -3.35019 0
M  V30 316 N 31.0401 0.771051 -1.3745 0
M  V30 317 C 32.4511 1.34737 -1.29239 0
M  V30 318 C 32.8021 1.96109 0.0596908 0
M  V30 319 O 31.9271 1.93865 0.961534 0
M  V30 320 C 32.5221 2.44973 -2.34037 0
M  V30 321 C 31.0811 2.98372 -2.29458 0
M  V30 322 C 30.2281 1.71595 -2.17831 0
M  V30 323 H 33.1791 0.571256 -1.48062 0
M  V30 324 H 33.2001 3.24471 -1.98744 0
M  V30 325 H 32.7121 2.00276 -3.32432 0
M  V30 326 H 30.8131 3.47443 -1.34589 0
M  V30 327 H 30.9261 3.53939 -3.229 0
M  V30 328 H 29.2901 1.94547 -1.64388 0
M  V30 329 H 30.0731 1.29001 -3.18141 0
M  V30 330 N 32.5182 1.22032 0.997298 0
M  V30 331 C 33.4502 0.944263 2.08845 0
M  V30 332 C 34.4632 -0.0754663 1.62625 0
M  V30 333 O 35.6522 0.157994 1.77799 0
M  V30 334 C 32.7522 0.397723 3.36558 0
M  V30 335 C 31.9252 1.47362 4.11829 0
M  V30 336 C 30.9842 0.934951 5.17827 0
M  V30 337 O 30.0102 1.62016 5.45655 0
M  V30 338 N 31.2122 -0.245895 5.79979 0
M  V30 339 H 33.9772 1.88363 2.33109 0
M  V30 340 H 31.5382 1.12661 1.16272 0
M  V30 341 H 33.5302 0.0227771 4.04694 0
M  V30 342 H 32.1002 -0.446646 3.09393 0
M  V30 343 H 31.3202 2.02208 3.38386 0
M  V30 344 H 32.6082 2.19764 4.58891 0
M  V30 345 H 32.0062 -0.819475 5.59733 0
M  V30 346 H 30.5632 -0.562272 6.4937 0
M  V30 347 N 33.9963 -1.19345 1.0293 0
M  V30 348 C 34.9263 -2.2481 0.631105 0
M  V30 349 C 35.9073 -1.66245 -0.360104 0
M  V30 350 O 37.0923 -1.92677 -0.242726 0
M  V30 351 C 34.2223 -3.47295 -0.0184607 0
M  V30 352 C 33.1763 -4.18536 0.895073 0
M  V30 353 C 32.5023 -5.34586 0.110592 0
M  V30 354 C 33.8023 -4.73287 2.209 0
M  V30 355 H 35.4963 -2.58372 1.51275 0
M  V30 356 H 33.0423 -1.24194 0.728818 0
M  V30 357 H 34.9953 -4.20268 -0.308675 0
M  V30 358 H 33.7193 -3.12933 -0.934907 0
M  V30 359 H 32.3783 -3.47446 1.16949 0
M  V30 360 H 32.0263 -4.96469 -0.807902 0
M  V30 361 H 31.7263 -5.83183 0.719087 0
M  V30 362 H 33.2503 -6.10355 -0.172871 0
M  V30 363 H 34.6643 -5.38013 1.98028 0
M  V30 364 H 33.0613 -5.32373 2.76946 0
M  V30 365 H 34.1313 -3.91331 2.86336 0
M  V30 366 N 35.4744 -0.807222 -1.35358 0
M  V30 367 C 36.7224 -0.387122 -1.98358 0
M  V30 368 C 37.0434 1.04942 -1.64354 0
M  V30 369 O 36.3134 1.72615 -0.926339 0
M  V30 370 H 34.8934 -0.140154 -0.733734 0
M  V30 371 H 37.5554 -1.0332 -1.6526 0
M  V30 372 H 36.6514 -0.493352 -3.08176 0
M  V30 373 N 36.9525 1.47285 -0.560781 0
M  V30 374 C 37.8825 2.32857 0.173105 0
M  V30 375 C 38.8635 1.44009 0.905281 0
M  V30 376 O 40.0485 1.7286 0.885046 0
M  V30 377 C 37.1785 3.25861 1.20133 0
M  V30 378 C 36.1325 4.23978 0.585388 0
M  V30 379 C 35.4585 5.06332 1.7185 0
M  V30 380 C 36.7585 5.20242 -0.463178 0
M  V30 381 H 38.4525 2.94466 -0.541307 0
M  V30 382 H 35.9985 1.41601 -0.261764 0
M  V30 383 H 37.9515 3.84569 1.72293 0
M  V30 384 H 36.6755 2.62315 1.94573 0
M  V30 385 H 35.3345 3.66501 0.085054 0
M  V30 386 H 34.9825 4.39186 2.45203 0
M  V30 387 H 34.6825 5.72762 1.31213 0
M  V30 388 H 36.2065 5.67899 2.24329 0
M  V30 389 H 37.6205 5.73293 -0.027502 0
M  V30 390 H 36.0175 5.94896 -0.788627 0
M  V30 391 H 37.0875 4.65504 -1.35773 0
M  V30 392 N 38.4306 0.297415 1.54768 0
M  V30 393 C 39.3936 -0.567375 2.22066 0
M  V30 394 C 40.3936 -1.06409 1.20556 0
M  V30 395 O 41.5836 -0.960691 1.45315 0
M  V30 396 C 38.7156 -1.78517 2.90421 0
M  V30 397 H 39.9086 0.0205534 2.99893 0
M  V30 398 H 37.4616 0.0482163 1.56226 0
M  V30 399 H 38.1966 -2.41303 2.16664 0
M  V30 400 H 37.9816 -1.43669 3.64831 0
M  V30 401 H 39.4716 -2.39964 3.41771 0
M  V30 402 N 39.9087 -1.5758 0.0250728 0
M  V30 403 C 40.8717 -2.08896 -0.943139 0
M  V30 404 C 41.8717 -1.00321 -1.25668 0
M  V30 405 O 43.0617 -1.26495 -1.19769 0
M  V30 406 C 40.1937 -2.55143 -2.26086 0
M  V30 407 H 41.3867 -2.95723 -0.498775 0
M  V30 408 H 38.9397 -1.54703 -0.222888 0
M  V30 409 H 39.6747 -1.71633 -2.75159 0
M  V30 410 H 39.4597 -3.34461 -2.04641 0
M  V30 411 H 40.9497 -2.95083 -2.95492 0
M  V30 412 N 41.3868 0.248026 -1.55636 0
M  V30 413 C 42.3348 1.32683 -1.91045 0
M  V30 414 C 43.3288 1.49883 -0.789401 0
M  V30 415 O 44.5348 1.51371 -0.974007 0
M  V30 416 H 40.9098 0.444272 -0.606734 0
M  V30 417 H 42.8808 1.00085 -2.81115 0
M  V30 418 C 41.6298 2.6755 -2.22064 0
M  V30 419 H 40.9528 2.55114 -3.07826 0
M  V30 420 H 42.3928 3.41912 -2.50743 0
M  V30 421 C 40.8518 3.20556 -1.0366 0
M  V30 422 O 41.3818 4.00695 -0.284016 0
M  V30 423 N 39.5878 2.78568 -0.82753 0
M  V30 424 H 39.1348 2.1351 -1.44123 0
M  V30 425 H 39.0928 3.14378 -0.0369803 0
M  V30 426 N 42.8649 1.48995 0.513639 0
M  V30 427 C 43.7969 1.60836 1.63293 0
M  V30 428 C 44.8099 0.491701 1.55197 0
M  V30 429 O 45.9989 0.763238 1.6136 0
M  V30 430 C 43.0989 1.53731 3.02027 0
M  V30 431 C 42.2719 2.80715 3.35437 0
M  V30 432 C 41.3309 2.66837 4.53525 0
M  V30 433 O 40.3569 3.40753 4.55934 0
M  V30 434 N 41.5589 1.77539 5.52684 0
M  V30 435 H 44.3239 2.57366 1.53566 0
M  V30 436 H 41.8849 1.45925 0.701259 0
M  V30 437 H 43.8769 1.42118 3.78926 0
M  V30 438 H 42.4469 0.651092 3.05744 0
M  V30 439 H 41.6669 3.06772 2.47557 0
M  V30 440 H 42.9549 3.64927 3.54551 0
M  V30 441 H 42.3529 1.16719 5.53528 0
M  V30 442 H 40.9099 1.71856 6.28736 0
M  V30 443 N 44.343 -0.763751 1.37857 0
M  V30 444 C 45.571 -1.55293 1.36718 0
M  V30 445 C 45.986 -1.88745 -0.0455434 0
M  V30 446 O 45.343 -1.52039 -1.00947 0
M  V30 447 C 45.394 -2.85831 2.2132 0
M  V30 448 O 45.115 -2.5381 3.57089 0
M  V30 449 C 46.616 -3.80023 2.28249 0
M  V30 450 H 43.836 -0.480841 0.468009 0
M  V30 451 H 46.38 -0.946009 1.81303 0
M  V30 452 H 44.535 -3.42926 1.80223 0
M  V30 453 H 44.949 -3.37459 4.01524 0
M  V30 454 H 46.423 -4.68599 2.91752 0
M  V30 455 H 46.9 -4.1973 1.2932 0
M  V30 456 H 47.506 -3.28855 2.69693 0
M  V30 457 N 45.8211 -1.22559 -0.990812 0
M  V30 458 C 47.0691 -1.04933 -1.72724 0
M  V30 459 C 47.3901 0.416158 -1.90508 0
M  V30 460 O 46.6601 1.29918 -1.46622 0
M  V30 461 H 45.2401 -0.385296 -0.639965 0
M  V30 462 H 47.9021 -1.54105 -1.19322 0
M  V30 463 H 46.9981 -1.52886 -2.72089 0
M  V30 464 N 47.2992 1.18797 -1.03562 0
M  V30 465 C 48.2622 2.20464 -0.626769 0
M  V30 466 C 49.2622 1.57721 0.313173 0
M  V30 467 O 50.4522 1.73917 0.0992615 0
M  V30 468 C 47.5842 3.40802 0.0818498 0
M  V30 469 H 48.7772 2.58149 -1.5264 0
M  V30 470 H 46.3302 1.32593 -0.827578 0
M  V30 471 H 47.0652 3.08642 0.995518 0
M  V30 472 H 46.8502 3.8758 -0.593652 0
M  V30 473 H 48.3402 4.16092 0.354584 0
M  V30 474 N 48.7773 0.814389 1.34928 0
M  V30 475 C 50.1933 0.499084 1.51596 0
M  V30 476 C 50.3933 -0.978319 1.76157 0
M  V30 477 O 49.4493 -1.76309 1.80752 0
M  V30 478 C 50.7623 1.35121 2.68631 0
M  V30 479 C 52.3103 1.34746 2.82511 0
M  V30 480 C 52.7853 2.18388 4.0258 0
M  V30 481 N 54.2763 2.15966 4.09772 0
M  V30 482 C 55.0113 2.77437 5.01813 0
M  V30 483 N 54.5073 3.47866 5.99134 0
M  V30 484 N 56.3003 2.67037 4.94619 0
M  V30 485 H 48.4513 1.7711 1.17243 0
M  V30 486 H 50.7143 0.754256 0.574284 0
M  V30 487 H 50.4203 2.40001 2.57085 0
M  V30 488 H 50.2943 1.00991 3.63429 0
M  V30 489 H 52.6813 0.30648 2.93504 0
M  V30 490 H 52.7623 1.72869 1.88547 0
M  V30 491 H 52.4063 3.2253 3.92347 0
M  V30 492 H 52.3363 1.77621 4.9574 0
M  V30 493 H 54.8273 1.64729 3.40107 0
M  V30 494 H 55.1403 3.92038 6.65977 0
M  V30 495 H 53.4853 3.51972 5.99284 0
M  V30 496 H 56.6763 2.11597 4.17546 0
M  V30 497 H 56.8493 3.15232 5.66156 0
M  V30 498 N 50.2554 -1.46986 0.568584 0
M  V30 499 C 51.4954 -2.04336 0.0512999 0
M  V30 500 C 51.8594 -1.43214 -1.27881 0
M  V30 501 O 53.0604 -1.91679 -1.88448 0
M  V30 502 C 51.3314 -3.57389 -0.0282328 0
M  V30 503 S 52.8904 -4.36056 -0.489991 0
M  V30 504 H 49.7084 -0.71034 0.0306349 0
M  V30 505 H 52.3104 -1.80212 0.757891 0
M  V30 506 H 51.0144 -3.99395 0.944011 0
M  V30 507 H 50.5454 -3.86028 -0.75803 0
M  V30 508 H 52.5604 -4.6441 -1.74752 0
M  V30 509 N 51.7335 -0.305618 -1.54608 0
M  V30 510 C 52.6635 0.561482 -2.26649 0
M  V30 511 C 53.6445 1.13415 -1.26772 0
M  V30 512 O 54.8295 1.16262 -1.55553 0
M  V30 513 C 51.9595 1.73122 -3.01075 0
M  V30 514 C 50.9135 1.2887 -4.08138 0
M  V30 515 C 50.2395 2.54396 -4.70305 0
M  V30 516 C 51.5395 0.416578 -5.20636 0
M  V30 517 H 53.2335 -0.0393902 -2.99374 0
M  V30 518 H 50.7795 -0.020385 -1.43986 0
M  V30 519 H 52.7325 2.34396 -3.50195 0
M  V30 520 H 51.4565 2.3584 -2.25936 0
M  V30 521 H 50.1155 0.698991 -3.59875 0
M  V30 522 H 49.7635 3.15439 -3.918 0
M  V30 523 H 49.4635 2.25486 -5.42614 0
M  V30 524 H 50.9875 3.16464 -5.2219 0
M  V30 525 H 52.4015 0.935116 -5.65622 0
M  V30 526 H 50.7985 0.221046 -5.99693 0
M  V30 527 H 51.8685 -0.557162 -4.81688 0
M  V30 528 N 53.2116 1.57565 -0.0334293 0
M  V30 529 C 54.1216 2.13943 0.962572 0
M  V30 530 C 55.1376 1.09276 1.35406 0
M  V30 531 O 56.3136 1.41355 1.4346 0
M  V30 532 C 53.3786 2.65887 2.22497 0
M  V30 533 C 52.4396 3.85286 1.8935 0
M  V30 534 C 51.6726 4.34743 3.09571 0
M  V30 535 O 51.8956 3.83352 4.22371 0
M  V30 536 O 50.8296 5.26538 2.91618 0
M  V30 537 H 54.6556 2.99333 0.513169 0
M  V30 538 H 52.2406 1.4822 0.18743 0
M  V30 539 H 54.1226 2.99346 2.96598 0
M  V30 540 H 52.7976 1.83578 2.6661 0
M  V30 541 H 51.7046 3.56746 1.1262 0
M  V30 542 H 53.0376 4.68771 1.5005 0
M  V30 543 N 54.6897 -0.239769 1.55765 0
M  V30 544 C 55.9357 -0.968234 1.78194 0
M  V30 545 C 56.2687 -1.84701 0.599938 0
M  V30 546 O 55.5437 -1.9031 -0.401524 0
M  V30 547 C 55.8267 -1.8227 3.10564 0
M  V30 548 C 55.6797 -0.971633 4.3918 0
M  V30 549 C 56.9987 -2.80388 3.39221 0
M  V30 550 H 54.1177 -0.350572 0.648281 0
M  V30 551 H 56.7597 -0.238259 1.885 0
M  V30 552 H 54.9097 -2.44507 3.01908 0
M  V30 553 H 56.5817 -0.367408 4.59835 0
M  V30 554 H 54.8247 -0.276276 4.32919 0
M  V30 555 H 55.4957 -1.60346 5.28198 0
M  V30 556 H 57.9717 -2.28287 3.47885 0
M  V30 557 H 56.8477 -3.3729 4.33044 0
M  V30 558 H 57.1087 -3.57212 2.60484 0
M  V30 559 N 56.1678 -1.49265 -0.50573 0
M  V30 560 C 57.3928 -1.62478 -1.28902 0
M  V30 561 C 57.8178 -0.294332 -1.85783 0
M  V30 562 O 57.1758 0.737412 -1.65626 0
M  V30 563 C 57.2238 -2.69268 -2.39848 0
M  V30 564 O 56.3278 -2.28113 -3.43567 0
M  V30 565 H 55.6688 -0.54399 -0.380751 0
M  V30 566 H 58.1988 -1.95421 -0.605952 0
M  V30 567 H 58.2088 -2.91291 -2.85681 0
M  V30 568 H 56.8838 -3.65846 -1.97812 0
M  V30 569 H 55.4608 -2.16401 -3.03685 0
M  V30 570 N 57.6459 0.756429 -1.3826 0
M  V30 571 C 58.8949 1.51082 -1.3363 0
M  V30 572 C 59.2079 1.95467 0.0720068 0
M  V30 573 O 60.4139 2.7043 0.240834 0
M  V30 574 C 58.8699 2.72893 -2.34644 0
M  V30 575 C 58.4779 2.35544 -3.81081 0
M  V30 576 C 60.2219 3.50791 -2.39052 0
M  V30 577 C 58.1289 3.53948 -4.73787 0
M  V30 578 H 57.0589 0.56727 -0.49671 0
M  V30 579 H 59.7099 0.827147 -1.638 0
M  V30 580 H 58.0919 3.43227 -1.97513 0
M  V30 581 H 59.2659 1.72894 -4.27135 0
M  V30 582 H 57.5809 1.70786 -3.79764 0
M  V30 583 H 60.1779 4.38823 -3.05513 0
M  V30 584 H 60.5209 3.91745 -1.40861 0
M  V30 585 H 61.0539 2.87467 -2.74968 0
M  V30 586 H 57.7929 3.18064 -5.73163 0
M  V30 587 H 57.3129 4.15651 -4.32428 0
M  V30 588 H 58.9919 4.20566 -4.91663 0
M  V30 589 N 59.124 1.23083 0.984299 0
M  V30 590 C 60.349 1.088 1.76571 0
M  V30 591 C 60.774 -0.356657 1.84688 0
M  V30 592 O 60.132 -1.25788 1.30565 0
M  V30 593 C 60.18 1.71371 3.17277 0
M  V30 594 O 59.284 0.973213 4.00752 0
M  V30 595 H 58.625 0.381599 0.543395 0
M  V30 596 H 61.155 1.63057 1.23587 0
M  V30 597 H 61.165 1.76449 3.67872 0
M  V30 598 H 59.84 2.76493 3.10684 0
M  V30 599 H 58.417 0.999078 3.59267 0
M  V30 600 N 60.6021 -1.18246 1.0419 0
M  V30 601 C 61.8791 -1.84121 0.660208 0
M  V30 602 C 62.2591 -1.92778 -0.860221 0
M  V30 603 O 61.6071 -1.45464 -1.76217 0
M  V30 604 C 61.8171 -3.22355 1.33747 0
M  V30 605 C 63.1651 -3.98376 1.46906 0
M  V30 606 O 64.1891 -3.31799 1.29568 0
M  V30 607 O 63.0481 -5.17665 1.75171 0
M  V30 608 H 60.1421 -0.794036 0.231161 0
M  V30 609 H 62.6881 -1.25628 1.14087 0
M  V30 610 H 61.4601 -3.10964 2.37522 0
M  V30 611 H 61.0831 -3.88506 0.845515 0
M  V30 612 N 62.0802 -0.821533 -1.34494 0
M  V30 613 C 63.3282 -0.408139 -1.97936 0
M  V30 614 C 63.6492 1.03193 -1.65457 0
M  V30 615 O 62.9192 1.71622 -0.944595 0
M  V30 616 H 61.4992 -0.147928 -0.732206 0
M  V30 617 H 64.1612 -1.05067 -1.64155 0
M  V30 618 H 63.2572 -0.52601 -3.07635 0
M  V30 619 N 63.5583 1.46682 -0.576371 0
M  V30 620 C 64.4883 2.33028 0.148397 0
M  V30 621 C 65.4693 1.44961 0.889956 0
M  V30 622 O 66.6543 1.73789 0.866662 0
M  V30 623 C 63.7843 3.27117 1.1667 0
M  V30 624 C 62.7383 4.24575 0.540386 0
M  V30 625 C 62.0643 5.08126 1.6647 0
M  V30 626 C 63.3643 5.19722 -0.518331 0
M  V30 627 H 65.0583 2.93875 -0.572509 0
M  V30 628 H 62.6043 1.41315 -0.276768 0
M  V30 629 H 64.5573 3.86374 1.68204 0
M  V30 630 H 63.2813 2.64364 1.9178 0
M  V30 631 H 61.9403 3.66571 0.0461769 0
M  V30 632 H 61.5883 4.41762 2.40531 0
M  V30 633 H 61.2883 5.74122 1.25131 0
M  V30 634 H 62.8123 5.70246 2.18293 0
M  V30 635 H 64.2263 5.73232 -0.0883058 0
M  V30 636 H 62.6233 5.94026 -0.851679 0
M  V30 637 H 63.6933 4.64037 -1.40703 0
M  V30 638 N 65.0364 0.313813 1.54444 0
M  V30 639 C 66.2834 -0.291675 2.00388 0
M  V30 640 C 66.6114 -1.52904 1.2021 0
M  V30 641 O 65.8664 -1.93833 0.269707 0
M  V30 642 C 66.1654 -0.680386 3.50864 0
M  V30 643 C 65.8314 0.456699 4.48581 0
M  V30 644 C 64.4934 0.768824 4.75018 0
M  V30 645 C 66.8454 1.22098 5.06697 0
M  V30 646 C 64.1734 1.84812 5.56831 0
M  V30 647 C 66.5254 2.29029 5.89685 0
M  V30 648 C 65.1894 2.60834 6.14428 0
M  V30 649 H 64.4594 -0.106732 0.733273 0
M  V30 650 H 67.1064 0.43557 1.86481 0
M  V30 651 H 65.4114 -1.48791 3.62448 0
M  V30 652 H 67.1084 -1.16026 3.83847 0
M  V30 653 H 63.6984 0.203337 4.28117 0
M  V30 654 H 67.8824 0.993096 4.86263 0
M  V30 655 H 63.1384 2.09912 5.74236 0
M  V30 656 H 67.3124 2.887 6.33739 0
M  V30 657 H 64.9394 3.44596 6.77612 0
M  V30 658 N 66.5145 -1.57545 0.0417849 0
M  V30 659 C 67.4445 -2.14009 -0.933929 0
M  V30 660 C 68.4255 -1.05938 -1.33083 0
M  V30 661 O 69.6105 -1.33833 -1.40721 0
M  V30 662 C 66.7405 -2.67747 -2.21199 0
M  V30 663 C 65.6945 -3.80718 -1.95544 0
M  V30 664 C 65.0205 -4.20935 -3.29724 0
M  V30 665 C 66.3205 -5.06258 -1.28452 0
M  V30 666 H 68.0145 -2.95788 -0.463645 0
M  V30 667 H 65.5605 -1.42285 -0.221573 0
M  V30 668 H 67.5135 -3.05886 -2.89848 0
M  V30 669 H 66.2375 -1.83147 -2.70416 0
M  V30 670 H 64.8965 -3.43037 -1.2931 0
M  V30 671 H 64.5445 -3.33298 -3.76724 0
M  V30 672 H 64.2445 -4.9707 -3.13361 0
M  V30 673 H 65.7685 -4.61666 -3.9962 0
M  V30 674 H 67.1825 -5.41903 -1.8712 0
M  V30 675 H 65.5795 -5.87475 -1.22445 0
M  V30 676 H 66.6495 -4.84207 -0.259219 0
M  V30 677 N 67.9926 0.231505 -1.5589 0
M  V30 678 C 69.2176 0.978689 -1.82856 0
M  V30 679 C 69.6426 1.77559 -0.620846 0
M  V30 680 O 69.0006 1.76119 0.430305 0
M  V30 681 C 69.0486 1.87997 -3.07716 0
M  V30 682 O 68.1526 2.97393 -2.85712 0
M  V30 683 H 67.4936 0.277663 -0.603158 0
M  V30 684 H 70.0236 0.24783 -2.03093 0
M  V30 685 H 70.0336 2.2917 -3.37558 0
M  V30 686 H 68.7086 1.29417 -3.95252 0
M  V30 687 H 67.2856 2.60238 -2.67078 0
M  V30 688 N 69.4707 1.49531 0.497807 0
M  V30 689 C 70.4007 1.6935 1.60757 0
M  V30 690 C 71.3817 0.542218 1.61227 0
M  V30 691 O 72.5667 0.778417 1.77917 0
M  V30 692 C 69.6967 1.76298 2.99226 0
M  V30 693 C 68.6507 2.91248 3.13622 0
M  V30 694 C 67.9767 2.83312 4.53474 0
M  V30 695 C 69.2767 4.3214 2.93346 0
M  V30 696 H 70.9707 2.62263 1.44425 0
M  V30 697 H 68.5167 1.26208 0.693367 0
M  V30 698 H 70.4697 1.88749 3.76765 0
M  V30 699 H 69.1937 0.799871 3.16654 0
M  V30 700 H 67.8527 2.78404 2.38509 0
M  V30 701 H 67.5007 1.84902 4.67782 0
M  V30 702 H 67.2007 3.60465 4.64046 0
M  V30 703 H 68.7247 2.97775 5.33069 0
M  V30 704 H 70.1387 4.45649 3.60652 0
M  V30 705 H 68.5357 5.1054 3.15387 0
M  V30 706 H 69.6057 4.46363 1.89441 0
M  V30 707 N 70.9488 -0.749086 1.3866 0
M  V30 708 C 72.1968 -1.50535 1.34847 0
M  V30 709 C 72.5178 -1.94909 -0.0595016 0
M  V30 710 O 71.7878 -1.67973 -1.00806 0
M  V30 711 H 70.3678 -0.558395 0.49619 0
M  V30 712 H 73.0298 -0.890165 1.73384 0
M  V30 713 H 72.1258 -2.39413 2.00219 0
M  V30 714 N 72.4269 -1.23603 -0.977757 0
M  V30 715 C 73.3569 -1.04401 -2.0886 0
M  V30 716 C 74.3379 0.0399052 -1.70053 0
M  V30 717 O 75.5229 -0.125246 -1.93796 0
M  V30 718 C 72.6529 -0.637269 -3.41403 0
M  V30 719 C 71.6069 -1.66883 -3.94124 0
M  V30 720 C 70.9329 -1.11745 -5.22893 0
M  V30 721 C 72.2329 -3.06247 -4.23096 0
M  V30 722 H 73.9269 -1.97316 -2.25182 0
M  V30 723 H 71.4729 -0.950096 -1.08209 0
M  V30 724 H 73.4259 -0.48998 -4.18542 0
M  V30 725 H 72.1499 0.327557 -3.24953 0
M  V30 726 H 70.8089 -1.80416 -3.19133 0
M  V30 727 H 70.4569 -0.143527 -5.02795 0
M  V30 728 H 70.1569 -1.80672 -5.59134 0
M  V30 729 H 71.6809 -0.982067 -6.02651 0
M  V30 730 H 73.0949 -2.96001 -4.90975 0
M  V30 731 H 71.4919 -3.72436 -4.70544 0
M  V30 732 H 72.5619 -3.55041 -3.30263 0
M  V30 733 N 73.905 1.17692 -1.04816 0
M  V30 734 C 75.151 1.88137 -0.75711 0
M  V30 735 C 75.484 1.80604 0.713841 0
M  V30 736 O 74.759 1.21146 1.52164 0
M  V30 737 C 75.042 3.38318 -1.2334 0
M  V30 738 C 74.895 3.54622 -2.76701 0
M  V30 739 C 76.214 4.32214 -0.829415 0
M  V30 740 H 73.333 0.683163 -0.27651 0
M  V30 741 H 75.975 1.38424 -1.30149 0
M  V30 742 H 74.125 3.80787 -0.770286 0
M  V30 743 H 75.797 3.21194 -3.31107 0
M  V30 744 H 74.04 2.97026 -3.16161 0
M  V30 745 H 74.711 4.60028 -3.05088 0
M  V30 746 H 77.187 3.97565 -1.22805 0
M  V30 747 H 76.063 5.35838 -1.19033 0
M  V30 748 H 76.324 4.41294 0.266891 0
M  V30 749 N 75.3831 0.828654 1.34056 0
M  V30 750 C 76.6081 0.431637 2.02859 0
M  V30 751 C 77.0331 -0.956339 1.61975 0
M  V30 752 O 76.3911 -1.62338 0.807228 0
M  V30 753 C 76.4391 0.548323 3.56407 0
M  V30 754 O 75.5431 -0.429556 4.10157 0
M  V30 755 H 74.8841 0.176886 0.640006 0
M  V30 756 H 77.4141 1.12066 1.71179 0
M  V30 757 H 77.4241 0.426196 4.05768 0
M  V30 758 H 76.0991 1.5606 3.8551 0
M  V30 759 H 74.6761 -0.265836 3.71951 0
M  V30 760 N 76.8612 -1.46375 0.584142 0
M  V30 761 C 77.7912 -2.33103 -0.136037 0
M  V30 762 C 78.7722 -1.45431 -0.882255 0
M  V30 763 O 79.9572 -1.74246 -0.857434 0
M  V30 764 C 77.0872 -3.27731 -1.14933 0
M  V30 765 C 76.0412 -4.24855 -0.517862 0
M  V30 766 C 75.3672 -5.09001 -1.63773 0
M  V30 767 C 76.6672 -5.19439 0.545886 0
M  V30 768 H 78.3612 -2.93568 0.588086 0
M  V30 769 H 75.9072 -1.41166 0.284259 0
M  V30 770 H 77.8602 -3.87261 -1.66153 0
M  V30 771 H 76.5842 -2.65377 -1.90375 0
M  V30 772 H 75.2432 -3.6659 -0.0267361 0
M  V30 773 H 74.8912 -4.43031 -2.38185 0
M  V30 774 H 74.5912 -5.74777 -1.22085 0
M  V30 775 H 76.1152 -5.71396 -2.15266 0
M  V30 776 H 77.5292 -5.73177 0.118704 0
M  V30 777 H 75.9262 -5.93566 0.88317 0
M  V30 778 H 76.9962 -4.63285 1.43162 0
M  V30 779 N 78.3393 -0.321999 -1.54275 0
M  V30 780 C 79.5853 0.281461 -2.00837 0
M  V30 781 C 79.9183 1.51909 -1.20985 0
M  V30 782 O 79.1933 1.923 -0.291733 0
M  V30 783 C 79.4763 0.617162 -3.54772 0
M  V30 784 C 79.3293 -0.631064 -4.45351 0
M  V30 785 C 80.6483 1.43542 -4.16033 0
M  V30 786 H 77.7673 0.100826 -0.730071 0
M  V30 787 H 80.4093 -0.438268 -1.84876 0
M  V30 788 H 78.5593 1.23034 -3.68504 0
M  V30 789 H 80.2313 -1.26934 -4.43492 0
M  V30 790 H 78.4743 -1.26025 -4.15091 0
M  V30 791 H 79.1453 -0.351735 -5.50878 0
M  V30 792 H 81.6213 0.917134 -4.05867 0
M  V30 793 H 80.4973 1.63907 -5.23856 0
M  V30 794 H 80.7583 2.43108 -3.69257 0
M  V30 795 N 79.8174 1.5752 -0.0501392 0
M  V30 796 C 80.7274 2.14952 0.939827 0
M  V30 797 C 81.7434 1.10706 1.34239 0
M  V30 798 O 82.9194 1.42869 1.41952 0
M  V30 799 C 79.9844 2.68232 2.19665 0
M  V30 800 C 79.0454 3.87272 1.85253 0
M  V30 801 C 78.2784 4.38002 3.04943 0
M  V30 802 O 78.5014 3.87811 4.18281 0
M  V30 803 O 77.4354 5.29602 2.86017 0
M  V30 804 H 81.2614 2.9986 0.481392 0
M  V30 805 H 78.8464 1.4841 0.171699 0
M  V30 806 H 80.7284 3.02475 2.93406 0
M  V30 807 H 79.4034 1.86395 2.64648 0
M  V30 808 H 78.3104 3.5792 1.0883 0
M  V30 809 H 79.6434 4.70336 1.4507 0
M  V30 810 N 81.2955 -0.223234 1.56011 0
M  V30 811 C 82.2435 -1.29627 1.93131 0
M  V30 812 C 83.2375 -1.48608 0.813146 0
M  V30 813 O 84.4435 -1.49802 0.997966 0
M  V30 814 H 80.8185 -0.434563 0.613726 0
M  V30 815 H 82.7895 -0.955995 2.82672 0
M  V30 816 C 81.5385 -2.63983 2.26292 0
M  V30 817 H 80.8615 -2.50185 3.11846 0
M  V30 818 H 82.3015 -3.3788 2.56151 0
M  V30 819 C 80.7605 -3.18866 1.08747 0
M  V30 820 O 81.2905 -4.00192 0.347727 0
M  V30 821 N 79.4965 -2.77217 0.871743 0
M  V30 822 H 79.0435 -2.1119 1.47501 0
M  V30 823 H 79.0015 -3.1428 0.0869905 0
M  V30 824 N 82.7736 -1.49793 -0.48987 0
M  V30 825 C 83.7366 -1.66752 -1.57246 0
M  V30 826 C 84.7366 -0.538867 -1.51502 0
M  V30 827 O 85.9266 -0.805545 -1.54456 0
M  V30 828 C 83.0586 -1.67528 -2.96896 0
M  V30 829 H 84.2516 -2.63321 -1.43534 0
M  V30 830 H 81.8046 -1.38992 -0.714914 0
M  V30 831 H 82.5396 -0.725837 -3.16073 0
M  V30 832 H 82.3246 -2.49504 -3.02473 0
M  V30 833 H 83.8146 -1.82667 -3.7553 0
M  V30 834 N 84.2517 0.741722 -1.39055 0
M  V30 835 C 85.1817 1.869 -1.39966 0
M  V30 836 C 86.1627 1.6804 -0.26392 0
M  V30 837 O 87.3477 1.88458 -0.468755 0
M  V30 838 C 84.4777 3.24572 -1.23574 0
M  V30 839 C 83.4317 3.58056 -2.34477 0
M  V30 840 C 82.7577 4.94593 -2.0318 0
M  V30 841 C 84.0577 3.61716 -3.76774 0
M  V30 842 H 85.7517 1.86395 -2.34302 0
M  V30 843 H 83.2977 0.895361 -1.1278 0
M  V30 844 H 85.2507 4.031 -1.22834 0
M  V30 845 H 83.9747 3.25587 -0.257045 0
M  V30 846 H 82.6337 2.81854 -2.34423 0
M  V30 847 H 82.2817 4.92181 -1.03765 0
M  V30 848 H 81.9817 5.17964 -2.77465 0
M  V30 849 H 83.5057 5.75486 -2.04079 0
M  V30 850 H 84.9197 4.30335 -3.78794 0
M  V30 851 H 83.3167 3.96603 -4.50362 0
M  V30 852 H 84.3867 2.61672 -4.08235 0
M  V30 853 N 85.7298 1.2412 0.971189 0
M  V30 854 C 86.9758 1.08041 1.71625 0
M  V30 855 C 87.3088 -0.380407 1.90438 0
M  V30 856 O 86.5838 -1.28127 1.46334 0
M  V30 857 C 86.8668 1.81682 3.10908 0
M  V30 858 C 86.7198 3.35493 2.99608 0
M  V30 859 C 88.0388 1.58671 4.10501 0
M  V30 860 H 85.1578 0.39388 0.622919 0
M  V30 861 H 87.7998 1.52743 1.13003 0
M  V30 862 H 85.9498 1.43684 3.60953 0
M  V30 863 H 87.6218 3.83068 2.57015 0
M  V30 864 H 85.8648 3.64052 2.35899 0
M  V30 865 H 86.5358 3.82217 3.98264 0
M  V30 866 H 89.0118 1.91719 3.69301 0
M  V30 867 H 87.8878 2.1266 5.06031 0
M  V30 868 H 88.1488 0.524161 4.38982 0
M  V30 869 N 87.2079 -1.17134 1.05439 0
M  V30 870 C 88.4539 -1.87733 0.767077 0
M  V30 871 C 88.7869 -1.8098 -0.704253 0
M  V30 872 O 88.0619 -1.21951 -1.5152 0
M  V30 873 C 88.3449 -3.37659 1.25133 0
M  V30 874 C 88.1979 -3.53149 2.78578 0
M  V30 875 C 89.5169 -4.31768 0.852324 0
M  V30 876 H 86.6359 -0.681687 0.280129 0
M  V30 877 H 89.2779 -1.37732 1.30881 0
M  V30 878 H 87.4279 -3.80373 0.790469 0
M  V30 879 H 89.0999 -3.19434 3.32806 0
M  V30 880 H 87.3429 -2.95345 3.17732 0
M  V30 881 H 88.0139 -4.58403 3.07523 0
M  V30 882 H 90.4899 -3.96909 1.24911 0
M  V30 883 H 89.3659 -5.35199 1.21873 0
M  V30 884 H 89.6269 -4.41429 -0.243485 0
M  V30 885 N 88.686 -0.835752 -1.33615 0
M  V30 886 C 89.649 -0.272 -2.2758 0
M  V30 887 C 90.649 0.557487 -1.50827 0
M  V30 888 O 91.839 0.37173 -1.70188 0
M  V30 889 C 88.971 0.617173 -3.35267 0
M  V30 890 H 90.164 -1.10111 -2.78954 0
M  V30 891 H 87.717 -0.608594 -1.43965 0
M  V30 892 H 88.452 1.46884 -2.89129 0
M  V30 893 H 88.237 0.0237066 -3.92093 0
M  V30 894 H 89.727 1.005 -4.05326 0
M  V30 895 N 90.1641 1.46063 -0.591896 0
M  V30 896 C 91.3921 2.06717 -0.0868936 0
M  V30 897 C 91.8071 1.43916 1.22203 0
M  V30 898 O 91.1641 0.547698 1.74088 0
M  V30 899 C 91.2151 3.6142 0.0758725 0
M  V30 900 O 90.9361 4.21874 -1.18126 0
M  V30 901 C 92.4371 4.39025 0.61416 0
M  V30 902 H 89.6571 0.668162 -0.0616518 0
M  V30 903 H 92.2011 1.8755 -0.815175 0
M  V30 904 H 90.3561 3.79983 0.754413 0
M  V30 905 H 90.7701 5.14861 -1.00092 0
M  V30 906 H 92.2441 5.4783 0.677193 0
M  V30 907 H 92.7211 4.07708 1.63312 0
M  V30 908 H 93.3271 4.2529 -0.0298142 0
M  V30 909 N 91.6422 0.330177 1.54103 0
M  V30 910 C 92.8912 -0.271336 1.99867 0
M  V30 911 C 93.2042 -1.52723 1.22209 0
M  V30 912 O 94.4102 -2.20515 1.58383 0
M  V30 913 C 92.8662 -0.534032 3.55916 0
M  V30 914 C 92.4742 0.705193 4.42415 0
M  V30 915 C 94.2182 -1.09514 4.1013 0
M  V30 916 C 92.1252 0.414035 5.89949 0
M  V30 917 H 91.0552 -0.105166 0.74663 0
M  V30 918 H 93.7062 0.443429 1.78062 0
M  V30 919 H 92.0882 -1.30915 3.73734 0
M  V30 920 H 93.2622 1.4804 4.36372 0
M  V30 921 H 91.5772 1.18698 3.99124 0
M  V30 922 H 94.1742 -1.3277 5.17954 0
M  V30 923 H 94.5172 -2.04656 3.62521 0
M  V30 924 H 95.0502 -0.381038 3.95971 0
M  V30 925 H 91.7892 1.33481 6.41766 0
M  V30 926 H 91.3092 -0.323336 5.98928 0
M  V30 927 H 92.9882 0.0263105 6.46995 0
M  V30 928 N 93.1203 -1.57491 0.0584922 0
M  V30 929 C 94.0833 -2.1085 -0.898617 0
M  V30 930 C 95.0833 -1.02964 -1.23511 0
M  V30 931 O 96.2733 -1.29007 -1.17059 0
M  V30 932 C 93.4053 -2.59881 -2.20623 0
M  V30 933 H 94.5983 -2.96715 -0.435936 0
M  V30 934 H 92.1513 -1.55141 -0.190023 0
M  V30 935 H 92.8863 -1.77431 -2.71457 0
M  V30 936 H 92.6713 -3.38727 -1.97501 0
M  V30 937 H 94.1613 -3.01285 -2.89166 0
M  V30 938 N 94.5984 0.214957 -1.56127 0
M  V30 939 C 95.5454 1.26642 -1.92952 0
M  V30 940 C 96.5154 1.46244 -0.78753 0
M  V30 941 O 97.7004 1.59704 -1.04399 0
M  V30 942 C 94.8404 2.6104 -2.25726 0
M  V30 943 C 93.9534 2.49183 -3.52891 0
M  V30 944 C 93.0884 3.76149 -3.7508 0
M  V30 945 C 92.1274 3.59041 -4.95738 0
M  V30 946 N 91.2644 4.77972 -5.14283 0
M  V30 947 H 96.1044 0.945384 -2.82607 0
M  V30 948 H 93.6414 0.455489 -1.3987 0
M  V30 949 H 95.5994 3.39313 -2.42739 0
M  V30 950 H 94.2294 2.91227 -1.39236 0
M  V30 951 H 93.2814 1.6231 -3.44034 0
M  V30 952 H 94.5934 2.32466 -4.41318 0
M  V30 953 H 93.7474 4.62865 -3.92226 0
M  V30 954 H 92.4864 3.95799 -2.84947 0
M  V30 955 H 91.4914 2.7071 -4.78535 0
M  V30 956 H 92.7164 3.40856 -5.87362 0
M  V30 957 H 90.6624 4.97923 -4.27093 0
M  V30 958 H 90.5794 4.64006 -5.96853 0
M  V30 959 H 91.8474 5.66096 -5.35869 0
M  V30 960 N 96.0765 1.50051 0.48192 0
M  V30 961 C 97.0245 1.68635 1.60203 0
M  V30 962 C 98.0185 0.552184 1.60148 0
M  V30 963 O 99.2245 0.732377 1.64427 0
M  V30 964 H 95.5995 0.532081 0.531407 0
M  V30 965 H 97.5705 2.62616 1.41688 0
M  V30 966 C 96.3195 1.78775 2.9822 0
M  V30 967 H 95.6425 2.6543 2.98976 0
M  V30 968 H 97.0825 1.95806 3.7608 0
M  V30 969 C 95.5415 0.536849 3.32595 0
M  V30 970 O 96.0715 -0.328897 4.00351 0
M  V30 971 N 94.2775 0.394091 2.87915 0
M  V30 972 H 93.8245 1.09962 2.32951 0
M  V30 973 H 93.7825 -0.441737 3.11281 0
M  V30 974 N 97.5546 -0.734337 1.39446 0
M  V30 975 C 98.9706 -1.03997 1.21065 0
M  V30 976 C 99.1706 -2.01369 0.0727019 0
M  V30 977 O 98.2266 -2.45856 -0.575426 0
M  V30 978 C 99.5396 -1.60163 2.54496 0
M  V30 979 C 101.088 -1.7224 2.61347 0
M  V30 980 C 101.563 -2.31814 3.95002 0
M  V30 981 N 103.054 -2.39223 3.96644 0
M  V30 982 C 103.789 -2.86258 4.96834 0
M  V30 983 N 103.285 -3.33184 6.07421 0
M  V30 984 N 105.078 -2.85473 4.84213 0
M  V30 985 H 97.2286 -0.0885624 2.12215 0
M  V30 986 H 99.4916 -0.10191 0.942506 0
M  V30 987 H 99.1976 -0.960811 3.38321 0
M  V30 988 H 99.0716 -2.5896 2.74262 0
M  V30 989 H 101.459 -2.35443 1.77906 0
M  V30 990 H 101.54 -0.720939 2.4543 0
M  V30 991 H 101.184 -1.69238 4.78875 0
M  V30 992 H 101.114 -3.32638 4.08239 0
M  V30 993 H 103.605 -2.06057 3.16779 0
M  V30 994 H 103.918 -3.67586 6.7978 0
M  V30 995 H 102.263 -3.31191 6.11013 0
M  V30 996 H 105.454 -2.48136 3.96921 0
M  V30 997 H 105.627 -3.21814 5.62441 0
M  V30 998 N 99.0327 -1.24633 -0.964593 0
M  V30 999 C 99.9807 -1.03917 -2.08096 0
M  V30 1000 C 100.975 0.0268581 -1.69379 0
M  V30 1001 O 102.181 -0.127952 -1.79545 0
M  V30 1002 H 98.5557 -0.319044 -0.680966 0
M  V30 1003 H 100.527 -1.98581 -2.22729 0
M  V30 1004 C 99.2757 -0.663983 -3.41301 0
M  V30 1005 H 98.5987 -1.47605 -3.71555 0
M  V30 1006 H 100.039 -0.558663 -4.20303 0
M  V30 1007 C 98.4977 0.629169 -3.30973 0
M  V30 1008 O 99.0277 1.67404 -3.65156 0
M  V30 1009 N 97.2337 0.611057 -2.84103 0
M  V30 1010 H 96.7807 -0.239593 -2.56483 0
M  V30 1011 H 96.7387 1.47647 -2.77575 0
M  V30 1012 N 100.511 1.16574 -1.06058 0
M  V30 1013 C 101.441 2.23057 -0.690488 0
M  V30 1014 C 102.422 1.67141 0.315901 0
M  V30 1015 O 103.607 1.93253 0.191556 0
M  V30 1016 C 100.737 3.47222 -0.073625 0
M  V30 1017 C 99.6908 4.16016 -1.00573 0
M  V30 1018 C 99.0168 5.34104 -0.252289 0
M  V30 1019 C 100.317 4.67264 -2.33371 0
M  V30 1020 H 102.011 2.54271 -1.58072 0
M  V30 1021 H 99.5568 1.22218 -0.76149 0
M  V30 1022 H 101.51 4.20939 0.19714 0
M  V30 1023 H 100.234 3.15302 0.85161 0
M  V30 1024 H 98.8928 3.44223 -1.2612 0
M  V30 1025 H 98.5408 4.98437 0.675988 0
M  V30 1026 H 98.2408 5.81072 -0.873455 0
M  V30 1027 H 99.7648 6.10599 0.0109857 0
M  V30 1028 H 101.179 5.32573 -2.12223 0
M  V30 1029 H 99.5758 5.24843 -2.90963 0
M  V30 1030 H 100.646 3.83602 -2.96611 0
M  V30 1031 N 101.989 0.842826 1.3317 0
M  V30 1032 C 102.939 0.250877 2.26616 0
M  V30 1033 C 103.923 -0.596427 1.49437 0
M  V30 1034 O 105.115 -0.447747 1.71243 0
M  V30 1035 C 102.244 -0.569779 3.38539 0
M  V30 1036 C 101.33 0.289254 4.23112 0
M  V30 1037 N 101.721 1.36987 4.86897 0
M  V30 1038 C 100.019 0.0769631 4.45934 0
M  V30 1039 C 100.72 1.89737 5.49886 0
M  V30 1040 N 99.6959 1.19827 5.30229 0
M  V30 1041 H 103.498 1.07718 2.73448 0
M  V30 1042 H 101.012 0.687693 1.47121 0
M  V30 1043 H 103.009 -1.01018 4.04476 0
M  V30 1044 H 101.669 -1.39401 2.93253 0
M  V30 1045 H 102.68 1.75277 4.87338 0
M  V30 1046 H 99.3569 -0.713507 4.11358 0
M  V30 1047 H 100.747 2.80253 6.10662 0
M  V30 1048 N 103.467 -1.45747 0.599634 0
M  V30 1049 C 104.692 -2.07178 0.0960198 0
M  V30 1050 C 105.117 -1.44268 -1.207 0
M  V30 1051 O 104.475 -0.532503 -1.73303 0
M  V30 1052 C 104.523 -3.60579 -0.0385348 0
M  V30 1053 O 103.627 -3.97713 -1.0908 0
M  V30 1054 H 102.968 -0.660251 0.0704593 0
M  V30 1055 H 105.498 -1.87124 0.827385 0
M  V30 1056 H 105.508 -4.07298 -0.239304 0
M  V30 1057 H 104.183 -4.05756 0.912947 0
M  V30 1058 H 102.76 -3.62678 -0.867135 0
M  V30 1059 N 104.945 -0.338344 -1.53925 0
M  V30 1060 C 106.356 0.146651 -1.86123 0
M  V30 1061 C 106.707 1.5042 -1.2597 0
M  V30 1062 O 105.832 2.08723 -0.571294 0
M  V30 1063 C 106.427 0.272879 -3.37699 0
M  V30 1064 C 104.986 0.702103 -3.69794 0
M  V30 1065 C 104.133 -0.167304 -2.76795 0
M  V30 1066 H 107.084 -0.558123 -1.48562 0
M  V30 1067 H 107.105 1.10128 -3.64214 0
M  V30 1068 H 106.617 -0.715307 -3.81451 0
M  V30 1069 H 104.718 1.6995 -3.31584 0
M  V30 1070 H 104.831 0.495604 -4.7653 0
M  V30 1071 H 103.195 0.359527 -2.5215 0
M  V30 1072 H 103.978 -1.15253 -3.23375 0
M  V30 1073 N 106.423 1.57458 -0.0668435 0
M  V30 1074 C 107.356 2.08033 0.93795 0
M  V30 1075 C 108.334 0.984321 1.29421 0
M  V30 1076 O 109.518 1.25736 1.40437 0
M  V30 1077 C 106.645 2.53388 2.24749 0
M  V30 1078 C 105.691 3.74376 2.04315 0
M  V30 1079 S 106.524 5.19303 1.30706 0
M  V30 1080 C 107.68 5.67986 2.62951 0
M  V30 1081 H 107.913 2.92935 0.50759 0
M  V30 1082 H 105.446 1.5371 0.145804 0
M  V30 1083 H 107.404 2.8018 3.00016 0
M  V30 1084 H 106.065 1.68763 2.64911 0
M  V30 1085 H 105.258 4.04083 3.01218 0
M  V30 1086 H 104.86 3.47931 1.37186 0
M  V30 1087 H 107.152 5.74528 3.5906 0
M  V30 1088 H 108.095 6.66955 2.3786 0
M  V30 1089 H 108.503 4.95781 2.69929 0
M  V30 1090 N 107.901 -0.206675 1.56239 0
M  V30 1091 C 109.131 -0.943975 1.83773 0
M  V30 1092 C 109.539 -1.77841 0.645703 0
M  V30 1093 O 108.882 -1.79403 -0.395008 0
M  V30 1094 C 108.944 -1.899 3.05251 0
M  V30 1095 C 108.608 -1.24764 4.39639 0
M  V30 1096 C 109.605 -0.630216 5.16066 0
M  V30 1097 C 107.29 -1.25496 4.8637 0
M  V30 1098 C 109.284 -0.0287946 6.37393 0
M  V30 1099 C 106.971 -0.649698 6.07637 0
M  V30 1100 C 107.969 -0.0376845 6.8299 0
M  V30 1101 O 107.657 0.55812 8.0196 0
M  V30 1102 H 107.389 -0.281508 0.614597 0
M  V30 1103 H 109.943 -0.222458 2.04192 0
M  V30 1104 H 108.173 -2.6599 2.80689 0
M  V30 1105 H 109.862 -2.5031 3.1953 0
M  V30 1106 H 110.628 -0.616785 4.81062 0
M  V30 1107 H 106.507 -1.72072 4.27683 0
M  V30 1108 H 110.051 0.449518 6.9615 0
M  V30 1109 H 105.948 -0.660592 6.42111 0
M  V30 1110 H 106.716 0.453891 8.17241 0
M  V30 1111 N 109.379 -1.50304 -0.473955 0
M  V30 1112 C 110.619 -1.62786 -1.23612 0
M  V30 1113 C 110.983 -0.319786 -1.89318 0
M  V30 1114 O 112.184 -0.320012 -2.66888 0
M  V30 1115 C 110.455 -2.77351 -2.25414 0
M  V30 1116 S 112.014 -3.09948 -3.10608 0
M  V30 1117 H 108.832 -0.573895 -0.419721 0
M  V30 1118 H 111.434 -1.88076 -0.533623 0
M  V30 1119 H 110.138 -3.70879 -1.75719 0
M  V30 1120 H 109.669 -2.54137 -3.00296 0
M  V30 1121 H 111.684 -2.53553 -4.26527 0
M  V30 1122 N 110.857 0.726932 -1.39834 0
M  V30 1123 C 112.104 1.48664 -1.37496 0
M  V30 1124 C 112.432 1.94482 0.0264678 0
M  V30 1125 O 111.687 1.67692 1.00886 0
M  V30 1126 C 111.986 2.73495 -2.30077 0
M  V30 1127 C 111.652 2.46502 -3.77555 0
M  V30 1128 C 110.314 2.3885 -4.17737 0
M  V30 1129 C 112.666 2.23604 -4.70798 0
M  V30 1130 C 109.994 2.06352 -5.49214 0
M  V30 1131 C 112.346 1.92622 -6.02561 0
M  V30 1132 C 111.01 1.83444 -6.41798 0
M  V30 1133 H 110.28 0.544001 -0.503135 0
M  V30 1134 H 112.927 0.833657 -1.72402 0
M  V30 1135 H 111.232 3.43575 -1.88317 0
M  V30 1136 H 112.929 3.31549 -2.25558 0
M  V30 1137 H 109.519 2.5334 -3.45712 0
M  V30 1138 H 113.703 2.28479 -4.40581 0
M  V30 1139 H 108.959 1.97776 -5.78528 0
M  V30 1140 H 113.133 1.73914 -6.74334 0
M  V30 1141 H 110.76 1.58029 -7.43593 0
M  V30 1142 N 112.336 1.25143 0.95797 0
M  V30 1143 C 113.585 1.0909 1.69654 0
M  V30 1144 C 113.898 -0.368548 1.92097 0
M  V30 1145 O 115.104 -0.649455 2.63618 0
M  V30 1146 C 113.56 1.90395 3.05414 0
M  V30 1147 C 113.168 3.4081 2.90779 0
M  V30 1148 C 114.912 1.82901 3.83076 0
M  V30 1149 C 112.819 4.14423 4.21909 0
M  V30 1150 H 111.749 0.404625 0.636235 0
M  V30 1151 H 114.4 1.4931 1.06672 0
M  V30 1152 H 112.782 1.42996 3.69281 0
M  V30 1153 H 113.956 3.95859 2.35865 0
M  V30 1154 H 112.271 3.49361 2.26575 0
M  V30 1155 H 114.868 2.35196 4.80195 0
M  V30 1156 H 115.211 0.796224 4.08615 0
M  V30 1157 H 115.744 2.28033 3.25954 0
M  V30 1158 H 112.483 5.18102 4.01561 0
M  V30 1159 H 112.003 3.64159 4.76601 0
M  V30 1160 H 113.682 4.21956 4.90471 0
M  V30 1161 N 113.814 -1.1601 1.06675 0
M  V30 1162 C 115.054 -1.88304 0.795037 0
M  V30 1163 C 115.418 -1.80062 -0.666466 0
M  V30 1164 O 116.619 -2.47319 -1.05293 0
M  V30 1165 C 114.89 -3.33664 1.28076 0
M  V30 1166 S 116.449 -4.23768 1.13868 0
M  V30 1167 H 113.267 -0.649928 0.288296 0
M  V30 1168 H 115.869 -1.4001 1.36445 0
M  V30 1169 H 114.573 -3.37203 2.33927 0
M  V30 1170 H 114.104 -3.87009 0.706253 0
M  V30 1171 H 116.119 -4.96148 0.0719668 0
M  V30 1172 N 115.292 -0.849877 -1.32721 0
M  V30 1173 C 116.532 -0.457146 -1.99222 0
M  V30 1174 C 116.896 0.968038 -1.6581 0
M  V30 1175 O 118.097 1.46507 -2.25364 0
M  V30 1176 C 116.368 -0.683966 -3.50794 0
M  V30 1177 S 117.927 -0.388095 -4.3708 0
M  V30 1178 H 114.745 -0.171464 -0.690015 0
M  V30 1179 H 117.347 -1.10155 -1.61512 0
M  V30 1180 H 116.051 -1.72038 -3.726 0
M  V30 1181 H 115.582 -0.0258086 -3.93392 0
M  V30 1182 H 117.597 0.787791 -4.89906 0
M  V30 1183 N 116.77 1.45427 -0.607355 0
M  V30 1184 C 117.7 2.3329 0.0989352 0
M  V30 1185 C 118.681 1.46816 0.859007 0
M  V30 1186 O 119.866 1.75588 0.829604 0
M  V30 1187 C 116.996 3.29518 1.09705 0
M  V30 1188 C 115.95 4.25626 0.450206 0
M  V30 1189 C 115.276 5.11542 1.55655 0
M  V30 1190 C 116.576 5.18505 -0.628455 0
M  V30 1191 H 118.27 2.92595 -0.634716 0
M  V30 1192 H 115.816 1.40696 -0.306681 0
M  V30 1193 H 117.769 3.89855 1.59971 0
M  V30 1194 H 116.493 2.68372 1.86129 0
M  V30 1195 H 115.152 3.66586 -0.0315886 0
M  V30 1196 H 114.8 4.46765 2.31107 0
M  V30 1197 H 114.5 5.76647 1.12925 0
M  V30 1198 H 116.024 5.74748 2.06148 0
M  V30 1199 H 117.438 5.72916 -0.209877 0
M  V30 1200 H 115.835 5.92085 -0.977489 0
M  V30 1201 H 116.905 4.60948 -1.50514 0
M  V30 1202 N 118.248 0.346503 1.53744 0
M  V30 1203 C 119.211 -0.496439 2.23759 0
M  V30 1204 C 120.211 -1.0252 1.2388 0
M  V30 1205 O 121.401 -0.913974 1.48297 0
M  V30 1206 C 118.533 -1.69187 2.95954 0
M  V30 1207 H 119.726 0.115952 2.99676 0
M  V30 1208 H 117.279 0.0978939 1.55993 0
M  V30 1209 H 118.014 -2.34288 2.24231 0
M  V30 1210 H 117.799 -1.31989 3.69217 0
M  V30 1211 H 119.289 -2.28969 3.49232 0
M  V30 1212 N 119.726 -1.57421 0.075193 0
M  V30 1213 C 120.656 -2.15942 -0.888324 0
M  V30 1214 C 121.637 -1.08737 -1.30806 0
M  V30 1215 O 122.822 -1.36787 -1.37851 0
M  V30 1216 C 119.952 -2.72379 -2.1547 0
M  V30 1217 C 118.906 -3.8478 -1.87425 0
M  V30 1218 C 118.232 -4.27834 -3.20721 0
M  V30 1219 C 119.532 -5.08869 -1.17684 0
M  V30 1220 H 121.226 -2.96705 -0.400799 0
M  V30 1221 H 118.772 -1.42723 -0.191342 0
M  V30 1222 H 120.725 -3.11965 -2.83295 0
M  V30 1223 H 119.449 -1.88841 -2.6647 0
M  V30 1224 H 118.108 -3.45703 -1.22004 0
M  V30 1225 H 117.756 -3.41214 -3.6957 0
M  V30 1226 H 117.456 -5.03605 -3.02746 0
M  V30 1227 H 118.98 -4.70039 -3.89738 0
M  V30 1228 H 120.394 -5.4575 -1.75584 0
M  V30 1229 H 118.791 -5.8994 -1.09956 0
M  V30 1230 H 119.861 -4.84648 -0.156453 0
M  V30 1231 N 121.204 0.198386 -1.56346 0
M  V30 1232 C 122.429 0.939682 -1.84891 0
M  V30 1233 C 122.854 1.76202 -0.658369 0
M  V30 1234 O 122.212 1.76993 0.392851 0
M  V30 1235 C 122.26 1.81428 -3.11635 0
M  V30 1236 O 121.364 2.91265 -2.91956 0
M  V30 1237 H 120.705 0.264807 -0.608912 0
M  V30 1238 H 123.235 0.204695 -2.03573 0
M  V30 1239 H 123.245 2.21958 -3.42343 0
M  V30 1240 H 121.92 1.21004 -3.97908 0
M  V30 1241 H 120.497 2.54514 -2.72538 0
M  V30 1242 N 122.682 1.50554 0.465978 0
M  V30 1243 C 123.959 1.5232 1.22712 0
M  V30 1244 C 124.339 0.270807 2.09356 0
M  V30 1245 O 123.687 -0.745541 2.15995 0
M  V30 1246 C 123.897 2.82175 2.05374 0
M  V30 1247 C 125.245 3.33033 2.6339 0
M  V30 1248 O 126.269 2.83531 2.15612 0
M  V30 1249 O 125.128 4.19336 3.50456 0
M  V30 1250 H 122.222 0.611183 0.557122 0
M  V30 1251 H 124.768 1.62847 0.477381 0
M  V30 1252 H 123.54 3.64797 1.41558 0
M  V30 1253 H 123.163 2.74675 2.87471 0
M  V30 1254 N 124.16 -0.719506 1.40217 0
M  V30 1255 C 125.09 -1.8465 1.42922 0
M  V30 1256 C 126.071 -1.67599 0.29062 0
M  V30 1257 O 127.256 -1.87688 0.498677 0
M  V30 1258 C 124.386 -3.22565 1.28722 0
M  V30 1259 C 123.34 -3.54281 2.40144 0
M  V30 1260 C 122.666 -4.91298 2.11023 0
M  V30 1261 C 123.966 -3.55676 3.82481 0
M  V30 1262 H 125.66 -1.82644 2.37237 0
M  V30 1263 H 123.206 -0.877305 1.1419 0
M  V30 1264 H 125.159 -4.01095 1.29232 0
M  V30 1265 H 123.883 -3.25137 0.308811 0
M  V30 1266 H 122.542 -2.78088 2.38877 0
M  V30 1267 H 122.19 -4.90468 1.11582 0
M  V30 1268 H 121.89 -5.13485 2.8567 0
M  V30 1269 H 123.414 -5.72166 2.13209 0
M  V30 1270 H 124.828 -4.24254 3.85592 0
M  V30 1271 H 123.225 -3.89388 4.56614 0
M  V30 1272 H 124.295 -2.55144 4.12346 0
M  V30 1273 N 125.638 -1.25649 -0.95132 0
M  V30 1274 C 126.568 -1.08808 -2.06599 0
M  V30 1275 C 127.549 0.00382547 -1.701 0
M  V30 1276 O 128.734 -0.166325 -1.93486 0
M  V30 1277 C 125.864 -0.709542 -3.39975 0
M  V30 1278 C 124.818 -1.75206 -3.90496 0
M  V30 1279 C 124.144 -1.22811 -5.20405 0
M  V30 1280 C 125.444 -3.15153 -4.16504 0
M  V30 1281 H 127.138 -2.02048 -2.20946 0
M  V30 1282 H 124.684 -0.972835 -1.06169 0
M  V30 1283 H 126.637 -0.578649 -4.17408 0
M  V30 1284 H 125.361 0.258556 -3.25575 0
M  V30 1285 H 124.02 -1.87145 -3.15234 0
M  V30 1286 H 123.668 -0.250145 -5.02378 0
M  V30 1287 H 123.368 -1.92492 -5.55176 0
M  V30 1288 H 124.892 -1.10968 -6.00432 0
M  V30 1289 H 126.306 -3.06349 -4.84586 0
M  V30 1290 H 124.703 -3.82333 -4.62538 0
M  V30 1291 H 125.773 -3.61966 -3.22658 0
M  V30 1292 N 127.117 1.15442 -1.07289 0
M  V30 1293 C 128.363 1.86489 -0.796846 0
M  V30 1294 C 128.696 1.82078 0.675371 0
M  V30 1295 O 127.971 1.24346 1.4956 0
M  V30 1296 C 128.254 3.35626 -1.30489 0
M  V30 1297 C 128.107 3.48673 -2.84161 0
M  V30 1298 C 129.426 4.30357 -0.920907 0
M  V30 1299 H 126.545 0.677144 -0.290939 0
M  V30 1300 H 129.187 1.35633 -1.33056 0
M  V30 1301 H 127.337 3.79068 -0.850883 0
M  V30 1302 H 129.009 3.14099 -3.37846 0
M  V30 1303 H 127.252 2.90253 -3.22391 0
M  V30 1304 H 127.923 4.53453 -3.14777 0
M  V30 1305 H 130.399 3.94871 -1.3121 0
M  V30 1306 H 129.275 5.33193 -1.30372 0
M  V30 1307 H 129.536 4.4176 0.173226 0
M  V30 1308 N 128.595 0.856903 1.32268 0
M  V30 1309 C 129.82 0.474569 2.01897 0
M  V30 1310 C 130.245 -0.921766 1.63967 0
M  V30 1311 O 129.603 -1.60589 0.84148 0
M  V30 1312 C 129.651 0.623799 3.55164 0
M  V30 1313 O 128.755 -0.342459 4.10976 0
M  V30 1314 H 128.096 0.190422 0.63611 0
M  V30 1315 H 130.626 1.15672 1.68764 0
M  V30 1316 H 130.636 0.512169 4.04773 0
M  V30 1317 H 129.311 1.64202 3.82113 0
M  V30 1318 H 127.888 -0.18688 3.72431 0
M  V30 1319 N 130.073 -1.45103 0.615059 0
M  V30 1320 C 131.321 -2.01784 0.112955 0
M  V30 1321 C 131.642 -1.48504 -1.26378 0
M  V30 1322 O 130.912 -0.682245 -1.83636 0
M  V30 1323 H 129.492 -0.745993 0.0387668 0
M  V30 1324 H 132.154 -1.77808 0.798141 0
M  V30 1325 H 131.25 -3.12025 0.0684069 0
M  V30 1326 N 131.551 -0.354651 -1.53558 0
M  V30 1327 C 132.776 0.242153 -2.05981 0
M  V30 1328 C 133.201 1.42553 -1.2272 0
M  V30 1329 O 132.559 1.79656 -0.243604 0
M  V30 1330 C 132.607 0.624367 -3.55154 0
M  V30 1331 O 131.711 1.72301 -3.74681 0
M  V30 1332 H 131.052 0.0378432 -0.662921 0
M  V30 1333 H 133.582 -0.512087 -1.98088 0
M  V30 1334 H 133.592 0.898433 -3.97985 0
M  V30 1335 H 132.267 -0.240989 -4.15201 0
M  V30 1336 H 130.844 1.44535 -3.4375 0
M  V30 1337 N 133.029 1.57378 -0.0835403 0
M  V30 1338 C 133.977 2.14602 0.89714 0
M  V30 1339 C 134.971 1.08589 1.30018 0
M  V30 1340 O 136.177 1.26952 1.27606 0
M  V30 1341 H 132.552 0.686346 0.3073 0
M  V30 1342 H 134.523 2.95845 0.38969 0
M  V30 1343 C 133.272 2.73188 2.15089 0
M  V30 1344 H 132.595 3.54442 1.84962 0
M  V30 1345 H 134.035 3.1681 2.81793 0
M  V30 1346 C 132.494 1.68517 2.91725 0
M  V30 1347 O 133.024 1.11718 3.85852 0
M  V30 1348 N 131.23 1.39277 2.55049 0
M  V30 1349 H 130.777 1.85655 1.78577 0
M  V30 1350 H 130.735 0.694791 3.06627 0
M  V30 1351 N 134.507 -0.190092 1.56449 0
M  V30 1352 C 135.753 -0.911052 1.81184 0
M  V30 1353 C 136.086 -1.82699 0.658396 0
M  V30 1354 O 135.361 -1.91491 -0.340775 0
M  V30 1355 C 135.644 -1.72297 3.16205 0
M  V30 1356 C 135.497 -0.831419 4.42049 0
M  V30 1357 C 136.816 -2.69454 3.47969 0
M  V30 1358 H 133.935 -0.32977 0.659106 0
M  V30 1359 H 136.577 -0.178169 1.89163 0
M  V30 1360 H 134.727 -2.34778 3.09534 0
M  V30 1361 H 136.399 -0.220929 4.60771 0
M  V30 1362 H 134.642 -0.138406 4.33579 0
M  V30 1363 H 135.313 -1.43461 5.33032 0
M  V30 1364 H 137.789 -2.17104 3.54972 0
M  V30 1365 H 136.665 -3.23342 4.43555 0
M  V30 1366 H 136.926 -3.48744 2.71717 0
M  V30 1367 N 135.985 -1.50799 -0.457987 0
M  V30 1368 C 136.915 -1.73553 -1.5621 0
M  V30 1369 C 137.896 -0.584774 -1.59732 0
M  V30 1370 O 139.081 -0.825314 -1.7579 0
M  V30 1371 C 136.211 -1.84169 -2.94447 0
M  V30 1372 C 135.165 -2.99461 -3.0579 0
M  V30 1373 C 134.491 -2.95235 -4.45803 0
M  V30 1374 C 135.791 -4.39766 -2.81786 0
M  V30 1375 H 137.485 -2.66 -1.37421 0
M  V30 1376 H 135.031 -1.28002 -0.659662 0
M  V30 1377 H 136.984 -1.98672 -3.71628 0
M  V30 1378 H 135.708 -0.883545 -3.14422 0
M  V30 1379 H 134.367 -2.8463 -2.31044 0
M  V30 1380 H 134.015 -1.97239 -4.62715 0
M  V30 1381 H 133.715 -3.72642 -4.54326 0
M  V30 1382 H 135.239 -3.11803 -5.24987 0
M  V30 1383 H 136.653 -4.55054 -3.4871 0
M  V30 1384 H 135.05 -5.18722 -3.0174 0
M  V30 1385 H 136.12 -4.51229 -1.7754 0
M  V30 1386 N 137.463 0.71206 -1.40597 0
M  V30 1387 C 138.373 1.8562 -1.43466 0
M  V30 1388 C 139.389 1.70902 -0.326902 0
M  V30 1389 O 140.565 1.93105 -0.572043 0
M  V30 1390 C 137.63 3.21451 -1.29884 0
M  V30 1391 C 136.691 3.48398 -2.50833 0
M  V30 1392 C 135.924 4.77749 -2.3789 0
M  V30 1393 O 136.147 5.53089 -1.39459 0
M  V30 1394 O 135.081 5.05111 -3.27333 0
M  V30 1395 H 138.907 1.86155 -2.39958 0
M  V30 1396 H 136.492 0.86295 -1.21957 0
M  V30 1397 H 138.374 4.02579 -1.24531 0
M  V30 1398 H 137.049 3.21636 -0.364997 0
M  V30 1399 H 135.956 2.67265 -2.61763 0
M  V30 1400 H 137.289 3.53014 -3.4299 0
M  V30 1401 N 138.941 1.26152 0.944643 0
M  V30 1402 C 140.169 1.14259 1.72489 0
M  V30 1403 C 140.584 -0.302555 1.8636 0
M  V30 1404 O 139.941 -1.20741 1.36849 0
M  V30 1405 C 139.992 1.80266 3.13347 0
M  V30 1406 O 139.713 3.19133 3.00143 0
M  V30 1407 C 141.214 1.74283 4.07603 0
M  V30 1408 H 138.434 0.398051 0.540181 0
M  V30 1409 H 140.978 1.66706 1.18446 0
M  V30 1410 H 139.133 1.31766 3.64303 0
M  V30 1411 H 139.547 3.51744 3.89071 0
M  V30 1412 H 141.021 2.25111 5.04013 0
M  V30 1413 H 141.498 0.708631 4.33446 0
M  V30 1414 H 142.104 2.22319 3.62567 0
M  V30 1415 N 140.419 -1.14872 1.07899 0
M  V30 1416 C 141.382 -2.17986 0.708161 0
M  V30 1417 C 142.382 -1.58775 -0.25442 0
M  V30 1418 O 143.572 -1.74166 -0.034645 0
M  V30 1419 C 140.704 -3.40871 0.0446929 0
M  V30 1420 H 141.897 -2.52306 1.62116 0
M  V30 1421 H 139.45 -1.2943 0.876218 0
M  V30 1422 H 140.185 -3.12124 -0.880281 0
M  V30 1423 H 139.97 -3.8511 0.737091 0
M  V30 1424 H 141.46 -4.17121 -0.19991 0
M  V30 1425 N 141.898 -0.863906 -1.31812 0
M  V30 1426 C 143.144 -0.472535 -1.97218 0
M  V30 1427 C 143.477 0.971394 -1.68159 0
M  V30 1428 O 142.752 1.68309 -0.974798 0
M  V30 1429 C 143.035 -0.723054 -3.52766 0
M  V30 1430 C 142.888 -2.21608 -3.91421 0
M  V30 1431 C 144.207 -0.185522 -4.39709 0
M  V30 1432 H 141.326 -0.173158 -0.71637 0
M  V30 1433 H 143.968 -1.08403 -1.56041 0
M  V30 1434 H 142.118 -0.202577 -3.87971 0
M  V30 1435 H 143.79 -2.80334 -3.66347 0
M  V30 1436 H 142.033 -2.691 -3.40246 0
M  V30 1437 H 142.704 -2.34203 -4.99853 0
M  V30 1438 H 145.18 -0.630726 -4.11292 0
M  V30 1439 H 144.056 -0.390306 -5.47511 0
M  V30 1440 H 144.317 0.912229 -4.32586 0
M  V30 1441 N 143.376 1.44774 -0.622745 0
M  V30 1442 C 144.625 2.01334 -0.121397 0
M  V30 1443 C 144.938 1.49505 1.26125 0
M  V30 1444 O 146.144 1.98139 1.85616 0
M  V30 1445 C 144.6 3.59516 -0.166298 0
M  V30 1446 C 144.208 4.20342 -1.54974 0
M  V30 1447 C 145.952 4.23582 0.279021 0
M  V30 1448 C 143.859 5.70721 -1.55021 0
M  V30 1449 H 142.789 0.752851 -0.0416172 0
M  V30 1450 H 145.44 1.66083 -0.780309 0
M  V30 1451 H 143.822 3.92027 0.559557 0
M  V30 1452 H 144.996 3.99381 -2.29851 0
M  V30 1453 H 143.311 3.68529 -1.93843 0
M  V30 1454 H 145.908 5.33868 0.298083 0
M  V30 1455 H 146.251 3.95327 1.30471 0
M  V30 1456 H 146.784 3.95843 -0.394063 0
M  V30 1457 H 143.523 6.03698 -2.55399 0
M  V30 1458 H 143.043 5.93829 -0.844245 0
M  V30 1459 H 144.722 6.34203 -1.28047 0
M  V30 1460 N 144.854 0.36279 1.53368 0
M  V30 1461 C 145.784 -0.476976 2.28576 0
M  V30 1462 C 146.765 -1.08631 1.30894 0
M  V30 1463 O 147.95 -1.10409 1.59761 0
M  V30 1464 C 145.08 -1.61828 3.07293 0
M  V30 1465 C 144.034 -1.13633 4.1264 0
M  V30 1466 C 143.36 -2.36766 4.79423 0
M  V30 1467 C 144.66 -0.223061 5.21823 0
M  V30 1468 H 146.354 0.150474 2.99022 0
M  V30 1469 H 143.9 0.0738103 1.43811 0
M  V30 1470 H 145.853 -2.21237 3.58653 0
M  V30 1471 H 144.577 -2.27292 2.34533 0
M  V30 1472 H 143.236 -0.564945 3.62221 0
M  V30 1473 H 142.884 -3.0068 4.03238 0
M  V30 1474 H 142.584 -2.05192 5.50609 0
M  V30 1475 H 144.108 -2.96865 5.33576 0
M  V30 1476 H 145.522 -0.724545 5.68703 0
M  V30 1477 H 143.919 0.001678 6.001 0
M  V30 1478 H 144.989 0.735553 4.79289 0
M  V30 1479 N 146.332 -1.57332 0.0918853 0
M  V30 1480 C 147.262 -2.16872 -0.865371 0
M  V30 1481 C 148.243 -1.10118 -1.29646 0
M  V30 1482 O 149.428 -1.38242 -1.36392 0
M  V30 1483 C 146.558 -2.74649 -2.12569 0
M  V30 1484 C 145.512 -3.86747 -1.83333 0
M  V30 1485 C 144.838 -4.31212 -3.16166 0
M  V30 1486 C 146.138 -5.10089 -1.1228 0
M  V30 1487 H 147.832 -2.97114 -0.369307 0
M  V30 1488 H 145.378 -1.42918 -0.176194 0
M  V30 1489 H 147.331 -3.14952 -2.7997 0
M  V30 1490 H 146.055 -1.91657 -2.64452 0
M  V30 1491 H 144.714 -3.46978 -1.18331 0
M  V30 1492 H 144.362 -3.45115 -3.6593 0
M  V30 1493 H 144.062 -5.06788 -2.97388 0
M  V30 1494 H 145.586 -4.74146 -3.84731 0
M  V30 1495 H 147 -5.47582 -1.69785 0
M  V30 1496 H 145.397 -5.91073 -1.03693 0
M  V30 1497 H 146.467 -4.84786 -0.105041 0
M  V30 1498 N 147.81 0.181792 -1.56548 0
M  V30 1499 C 148.74 1.22765 -1.98623 0
M  V30 1500 C 149.721 1.46747 -0.860189 0
M  V30 1501 O 150.906 1.58259 -1.12551 0
M  V30 1502 C 148.036 2.56894 -2.33715 0
M  V30 1503 C 146.99 2.475 -3.49182 0
M  V30 1504 C 146.316 3.86023 -3.69986 0
M  V30 1505 C 147.616 1.98866 -4.82959 0
M  V30 1506 H 149.31 0.877942 -2.86239 0
M  V30 1507 H 146.856 0.42088 -1.37712 0
M  V30 1508 H 148.809 3.30253 -2.61746 0
M  V30 1509 H 147.533 2.93632 -1.42997 0
M  V30 1510 H 146.192 1.76596 -3.21262 0
M  V30 1511 H 145.84 4.20136 -2.76576 0
M  V30 1512 H 145.54 3.80609 -4.47672 0
M  V30 1513 H 147.064 4.60984 -4.00407 0
M  V30 1514 H 148.478 2.61992 -5.09934 0
M  V30 1515 H 146.875 2.04424 -5.64208 0
M  V30 1516 H 147.945 0.942465 -4.75653 0
M  V30 1517 N 149.288 1.51039 0.449983 0
M  V30 1518 C 150.198 1.74261 1.57067 0
M  V30 1519 C 151.214 0.626363 1.62335 0
M  V30 1520 O 152.39 0.907162 1.79812 0
M  V30 1521 C 149.455 1.85114 2.93144 0
M  V30 1522 C 148.516 3.0893 2.98095 0
M  V30 1523 C 147.749 3.19256 4.27681 0
M  V30 1524 O 147.972 2.35835 5.19363 0
M  V30 1525 O 146.906 4.12144 4.38658 0
M  V30 1526 H 150.732 2.69303 1.40391 0
M  V30 1527 H 148.317 1.35389 0.631688 0
M  V30 1528 H 150.199 1.94311 3.73926 0
M  V30 1529 H 148.874 0.932588 3.09975 0
M  V30 1530 H 147.781 3.0522 2.16314 0
M  V30 1531 H 149.114 4.00433 2.86206 0
M  V30 1532 N 150.766 -0.704594 1.40972 0
M  V30 1533 C 151.729 -1.80035 1.41845 0
M  V30 1534 C 152.729 -1.57774 0.310474 0
M  V30 1535 O 153.919 -1.64613 0.56992 0
M  V30 1536 C 151.051 -3.18284 1.22098 0
M  V30 1537 H 152.244 -1.80658 2.3938 0
M  V30 1538 H 149.797 -0.911329 1.26982 0
M  V30 1539 H 150.532 -3.23306 0.253672 0
M  V30 1540 H 150.317 -3.35843 2.02366 0
M  V30 1541 H 151.807 -3.98289 1.25522 0
M  V30 1542 N 152.244 -1.26651 -0.937939 0
M  V30 1543 C 153.492 -1.12165 -1.68118 0
M  V30 1544 C 153.813 0.334983 -1.92101 0
M  V30 1545 O 153.083 1.23583 -1.52 0
M  V30 1546 H 151.663 -0.412093 -0.623048 0
M  V30 1547 H 154.325 -1.59027 -1.12678 0
M  V30 1548 H 153.421 -1.64289 -2.6536 0
M  V30 1549 N 153.722 1.14298 -1.08507 0
M  V30 1550 C 154.685 2.17607 -0.719711 0
M  V30 1551 C 155.685 1.58907 0.245997 0
M  V30 1552 O 156.875 1.74181 0.0254081 0
M  V30 1553 C 154.007 3.40842 -0.0627695 0
M  V30 1554 H 155.2 2.51443 -1.63452 0
M  V30 1555 H 152.753 1.28963 -0.88307 0
M  V30 1556 H 153.488 3.12587 0.863716 0
M  V30 1557 H 153.273 3.84713 -0.757504 0
M  V30 1558 H 154.763 4.17221 0.177786 0
M  V30 1559 N 155.201 0.870884 1.31352 0
M  V30 1560 C 156.131 0.343096 2.30966 0
M  V30 1561 C 157.112 -0.566507 1.60389 0
M  V30 1562 O 158.297 -0.483336 1.88089 0
M  V30 1563 C 155.427 -0.455487 3.443 0
M  V30 1564 C 154.381 0.361103 4.26474 0
M  V30 1565 C 153.707 -0.563221 5.31725 0
M  V30 1566 C 155.007 1.59566 4.97329 0
M  V30 1567 H 156.701 1.17548 2.75359 0
M  V30 1568 H 154.247 0.566686 1.32381 0
M  V30 1569 H 156.2 -0.83525 4.13039 0
M  V30 1570 H 154.924 -1.32139 2.98675 0
M  V30 1571 H 153.583 0.722825 3.59403 0
M  V30 1572 H 153.231 -1.42643 4.82351 0
M  V30 1573 H 152.931 -0.0207409 5.87596 0
M  V30 1574 H 154.455 -0.939808 6.03324 0
M  V30 1575 H 155.869 1.28728 5.58661 0
M  V30 1576 H 154.266 2.07728 5.63 0
M  V30 1577 H 155.336 2.34798 4.24262 0
M  V30 1578 N 156.679 -1.44442 0.630414 0
M  V30 1579 C 157.925 -2.02351 0.134816 0
M  V30 1580 C 158.258 -1.4947 -1.23986 0
M  V30 1581 O 157.533 -0.678475 -1.82283 0
M  V30 1582 C 157.816 -3.59898 0.120707 0
M  V30 1583 C 157.669 -4.23063 1.52767 0
M  V30 1584 C 158.988 -4.36585 -0.555127 0
M  V30 1585 H 156.107 -0.73527 0.0504646 0
M  V30 1586 H 158.749 -1.72022 0.806751 0
M  V30 1587 H 156.899 -3.85868 -0.451477 0
M  V30 1588 H 158.571 -4.08202 2.14869 0
M  V30 1589 H 156.814 -3.80586 2.08175 0
M  V30 1590 H 157.485 -5.32071 1.46984 0
M  V30 1591 H 159.961 -4.16044 -0.0685429 0
M  V30 1592 H 158.837 -5.46294 -0.534185 0
M  V30 1593 H 159.098 -4.11138 -1.62535 0
M  V30 1594 N 158.157 -0.370918 -1.53173 0
M  V30 1595 C 159.12 0.460778 -2.24521 0
M  V30 1596 C 160.12 1.00536 -1.25496 0
M  V30 1597 O 161.31 0.890266 -1.49733 0
M  V30 1598 C 158.442 1.64457 -2.98608 0
M  V30 1599 H 159.635 -0.163613 -2.99453 0
M  V30 1600 H 157.188 -0.122699 -1.55818 0
M  V30 1601 H 157.923 2.30691 -2.2793 0
M  V30 1602 H 157.708 1.26099 -3.7127 0
M  V30 1603 H 159.198 2.23384 -3.5283 0
M  V30 1604 N 159.635 1.57281 -0.100228 0
M  V30 1605 C 161.051 1.57527 0.256416 0
M  V30 1606 C 161.251 1.11173 1.68056 0
M  V30 1607 O 160.307 0.79053 2.39806 0
M  V30 1608 C 161.62 3.00673 0.0401747 0
M  V30 1609 C 163.168 3.12815 0.107528 0
M  V30 1610 C 163.643 4.57929 -0.0807834 0
M  V30 1611 N 165.134 4.63193 -0.0261207 0
M  V30 1612 C 165.869 5.73212 -0.146999 0
M  V30 1613 N 165.365 6.92047 -0.322999 0
M  V30 1614 N 167.158 5.62031 -0.0879044 0
M  V30 1615 H 159.309 1.85718 -1.03065 0
M  V30 1616 H 161.572 0.857446 -0.404339 0
M  V30 1617 H 161.278 3.38804 -0.943649 0
M  V30 1618 H 161.152 3.69042 0.780262 0
M  V30 1619 H 163.539 2.74554 1.08186 0
M  V30 1620 H 163.62 2.47028 -0.664134 0
M  V30 1621 H 163.264 4.96886 -1.05201 0
M  V30 1622 H 163.194 5.21783 0.710635 0
M  V30 1623 H 165.685 3.77748 0.107161 0
M  V30 1624 H 165.998 7.7173 -0.406608 0
M  V30 1625 H 164.343 6.94074 -0.358733 0
M  V30 1626 H 167.534 4.68075 0.048498 0
M  V30 1627 H 167.707 6.47734 -0.185557 0
M  V30 1628 N 161.113 -0.173488 1.56642 0
M  V30 1629 C 162.076 -1.19859 1.95362 0
M  V30 1630 C 163.076 -1.37296 0.83704 0
M  V30 1631 O 164.266 -1.34739 1.10413 0
M  V30 1632 C 161.398 -2.56405 2.24654 0
M  V30 1633 H 162.591 -0.867062 2.87092 0
M  V30 1634 H 160.144 -0.415853 1.50666 0
M  V30 1635 H 160.879 -2.94576 1.35631 0
M  V30 1636 H 160.664 -2.45115 3.06041 0
M  V30 1637 H 162.154 -3.30287 2.5554 0
M  V30 1638 N 162.591 -1.51276 -0.441967 0
M  V30 1639 C 163.554 -1.7167 -1.51862 0
M  V30 1640 C 164.554 -0.586793 -1.49711 0
M  V30 1641 O 165.744 -0.854276 -1.51815 0
M  V30 1642 C 162.876 -1.76889 -2.91416 0
M  V30 1643 H 164.069 -2.67754 -1.35084 0
M  V30 1644 H 161.622 -1.41196 -0.670333 0
M  V30 1645 H 162.357 -0.826026 -3.13604 0
M  V30 1646 H 162.142 -2.59001 -2.94382 0
M  V30 1647 H 163.632 -1.94522 -3.69528 0
M  V30 1648 N 164.069 0.697108 -1.41344 0
M  V30 1649 C 165.315 1.4593 -1.40827 0
M  V30 1650 C 165.648 1.94193 -0.0167098 0
M  V30 1651 O 164.923 1.69425 0.955263 0
M  V30 1652 C 165.206 2.67229 -2.41373 0
M  V30 1653 C 165.059 2.24741 -3.8963 0
M  V30 1654 C 166.378 3.69423 -2.39196 0
M  V30 1655 H 163.497 0.529303 -0.512842 0
M  V30 1656 H 166.139 0.794112 -1.72609 0
M  V30 1657 H 164.289 3.23982 -2.14401 0
M  V30 1658 H 165.961 1.73327 -4.27499 0
M  V30 1659 H 164.204 1.56542 -4.0457 0
M  V30 1660 H 164.875 3.1177 -4.55525 0
M  V30 1661 H 167.351 3.2234 -2.63128 0
M  V30 1662 H 166.227 4.51907 -3.11563 0
M  V30 1663 H 166.488 4.19012 -1.41001 0
M  V30 1664 N 165.547 1.27147 0.931209 0
M  V30 1665 C 166.477 1.12081 2.04842 0
M  V30 1666 C 167.458 0.0232364 1.70084 0
M  V30 1667 O 168.643 0.197085 1.93197 0
M  V30 1668 C 165.773 0.76354 3.38803 0
M  V30 1669 C 164.727 1.81396 3.87659 0
M  V30 1670 C 164.053 1.31075 5.18385 0
M  V30 1671 C 165.353 3.21739 4.11438 0
M  V30 1672 H 167.047 2.05537 2.17703 0
M  V30 1673 H 164.593 0.989603 1.04608 0
M  V30 1674 H 166.546 0.644982 4.16435 0
M  V30 1675 H 165.27 -0.206727 3.25945 0
M  V30 1676 H 163.929 1.92136 3.12217 0
M  V30 1677 H 163.577 0.330037 5.01916 0
M  V30 1678 H 163.277 2.013 5.52044 0
M  V30 1679 H 164.801 1.20506 5.98591 0
M  V30 1680 H 166.215 3.14019 4.79651 0
M  V30 1681 H 164.612 3.89644 4.56397 0
M  V30 1682 H 165.682 3.67054 3.16859 0
M  V30 1683 N 167.025 -1.13721 1.09112 0
M  V30 1684 C 167.957 -2.1871 0.685467 0
M  V30 1685 C 168.97 -1.60527 -0.271068 0
M  V30 1686 O 170.159 -1.78407 -0.0576148 0
M  V30 1687 C 167.259 -3.38898 -0.0111255 0
M  V30 1688 C 166.432 -4.26597 0.966131 0
M  V30 1689 C 165.491 -5.25324 0.303539 0
M  V30 1690 O 164.517 -5.61213 0.950177 0
M  V30 1691 N 165.719 -5.72779 -0.943651 0
M  V30 1692 H 168.484 -2.54126 1.58871 0
M  V30 1693 H 166.045 -1.29012 0.978143 0
M  V30 1694 H 168.037 -4.02014 -0.465517 0
M  V30 1695 H 166.607 -3.01747 -0.816565 0
M  V30 1696 H 165.827 -3.60306 1.59917 0
M  V30 1697 H 167.115 -4.82048 1.6281 0
M  V30 1698 H 166.513 -5.45762 -1.48862 0
M  V30 1699 H 165.07 -6.37847 -1.34142 0
M  V30 1700 N 168.503 -0.877838 -1.30888 0
M  V30 1701 C 169.435 -0.296607 -2.27273 0
M  V30 1702 C 170.448 0.544799 -1.53414 0
M  V30 1703 O 171.637 0.365511 -1.74718 0
M  V30 1704 C 168.737 0.597481 -3.33592 0
M  V30 1705 C 167.91 -0.213251 -4.3688 0
M  V30 1706 C 166.969 0.610208 -5.2265 0
M  V30 1707 O 165.995 0.035441 -5.69189 0
M  V30 1708 N 167.197 1.92071 -5.47804 0
M  V30 1709 H 169.962 -1.12492 -2.77787 0
M  V30 1710 H 167.523 -0.740105 -1.43993 0
M  V30 1711 H 169.515 1.15425 -3.87891 0
M  V30 1712 H 168.085 1.32647 -2.83061 0
M  V30 1713 H 167.305 -0.951466 -3.82545 0
M  V30 1714 H 168.593 -0.769262 -5.02951 0
M  V30 1715 H 167.991 2.4107 -5.11763 0
M  V30 1716 H 166.548 2.42508 -6.05007 0
M  V30 1717 N 169.982 1.44106 -0.638065 0
M  V30 1718 C 170.912 2.33448 0.0494287 0
M  V30 1719 C 171.893 1.48606 0.827672 0
M  V30 1720 O 173.078 1.77308 0.792173 0
M  V30 1721 C 170.208 3.31771 1.02691 0
M  V30 1722 C 169.162 4.26485 0.359823 0
M  V30 1723 C 168.488 5.14729 1.44769 0
M  V30 1724 C 169.788 5.17056 -0.738296 0
M  V30 1725 H 171.482 2.91183 -0.696636 0
M  V30 1726 H 169.028 1.40014 -0.336456 0
M  V30 1727 H 170.981 3.93161 1.51666 0
M  V30 1728 H 169.705 2.7226 1.80395 0
M  V30 1729 H 168.364 3.66437 -0.10934 0
M  V30 1730 H 168.012 4.51566 2.21578 0
M  V30 1731 H 167.712 5.78913 1.00668 0
M  V30 1732 H 169.236 5.78991 1.93911 0
M  V30 1733 H 170.65 5.72342 -0.331354 0
M  V30 1734 H 169.047 5.89879 -1.10286 0
M  V30 1735 H 170.117 4.57652 -1.60258 0
M  V30 1736 N 171.46 0.379036 1.52974 0
M  V30 1737 C 172.737 -0.263479 1.93817 0
M  V30 1738 C 173.117 -1.65244 1.31368 0
M  V30 1739 O 172.465 -2.23448 0.477856 0
M  V30 1740 C 172.675 -0.300166 3.47707 0
M  V30 1741 C 174.023 -0.534061 4.21228 0
M  V30 1742 O 175.047 -0.38081 3.54159 0
M  V30 1743 O 173.906 -0.833501 5.40106 0
M  V30 1744 H 171 -0.161149 0.811147 0
M  V30 1745 H 173.546 0.432798 1.64088 0
M  V30 1746 H 172.318 0.673138 3.85467 0
M  V30 1747 H 171.941 -1.04179 3.83709 0
M  V30 1748 N 172.938 -1.57226 0.108567 0
M  V30 1749 C 173.886 -2.16002 -0.862885 0
M  V30 1750 C 174.88 -1.10644 -1.28274 0
M  V30 1751 O 176.086 -1.28966 -1.2557 0
M  V30 1752 H 172.461 -0.691148 -0.296342 0
M  V30 1753 H 174.432 -2.96427 -0.342575 0
M  V30 1754 C 173.181 -2.76576 -2.10716 0
M  V30 1755 H 172.504 -3.5734 -1.793 0
M  V30 1756 H 173.944 -3.21253 -2.76717 0
M  V30 1757 C 172.403 -1.73137 -2.89007 0
M  V30 1758 O 172.933 -1.17842 -3.84026 0
M  V30 1759 N 171.139 -1.43317 -2.52801 0
M  V30 1760 H 170.686 -1.88473 -1.75601 0
M  V30 1761 H 170.644 -0.743485 -3.05483 0
M  V30 1762 N 174.416 0.165178 -1.56732 0
M  V30 1763 C 175.662 0.882112 -1.82611 0
M  V30 1764 C 175.995 1.81628 -0.687378 0
M  V30 1765 O 175.27 1.92009 0.310267 0
M  V30 1766 C 175.553 1.67245 -3.18906 0
M  V30 1767 C 175.406 0.760987 -4.43316 0
M  V30 1768 C 176.725 2.63884 -3.52212 0
M  V30 1769 H 173.844 0.319242 -0.664269 0
M  V30 1770 H 176.486 0.148052 -1.89422 0
M  V30 1771 H 174.636 2.29824 -3.1323 0
M  V30 1772 H 176.308 0.147596 -4.61064 0
M  V30 1773 H 174.551 0.0694102 -4.33744 0
M  V30 1774 H 175.222 1.34962 -5.35247 0
M  V30 1775 H 177.698 2.11429 -3.58381 0
M  V30 1776 H 176.574 3.16245 -4.48643 0
M  V30 1777 H 176.835 3.44377 -2.77231 0
M  V30 1778 N 175.894 1.51508 0.433938 0
M  V30 1779 C 177.143 1.63578 1.18005 0
M  V30 1780 C 177.456 0.359514 1.92268 0
M  V30 1781 O 178.662 0.359632 2.69108 0
M  V30 1782 C 177.118 2.88901 2.14626 0
M  V30 1783 C 176.726 4.23544 1.45995 0
M  V30 1784 C 178.47 3.10328 2.89649 0
M  V30 1785 C 176.377 5.40014 2.4112 0
M  V30 1786 H 175.307 0.609277 0.444182 0
M  V30 1787 H 177.958 1.77978 0.446773 0
M  V30 1788 H 176.34 2.68142 2.91403 0
M  V30 1789 H 177.514 4.54696 0.747532 0
M  V30 1790 H 175.829 4.08021 0.831115 0
M  V30 1791 H 178.426 3.94518 3.60915 0
M  V30 1792 H 178.769 2.23544 3.51189 0
M  V30 1793 H 179.302 3.31443 2.19978 0
M  V30 1794 H 176.041 6.29068 1.84264 0
M  V30 1795 H 175.561 5.13233 3.10406 0
M  V30 1796 H 177.24 5.72099 3.02177 0
M  V30 1797 N 177.372 -0.689602 1.41712 0
M  V30 1798 C 178.649 -1.44457 1.31877 0
M  V30 1799 C 179.029 -2.11039 -0.0508537 0
M  V30 1800 O 178.377 -2.02138 -1.06547 0
M  V30 1801 C 178.587 -2.45913 2.47645 0
M  V30 1802 C 179.935 -3.10991 2.89084 0
M  V30 1803 O 180.959 -2.56238 2.47428 0
M  V30 1804 O 179.818 -4.10174 3.61137 0
M  V30 1805 H 176.912 -0.64362 0.519309 0
M  V30 1806 H 179.458 -0.719576 1.53689 0
M  V30 1807 H 178.23 -1.95409 3.39015 0
M  V30 1808 H 177.853 -3.25913 2.27742 0
M  V30 1809 N 178.85 -1.27639 -0.924453 0
M  V30 1810 C 180.096 -1.14336 -1.67497 0
M  V30 1811 C 180.429 0.309465 -1.91718 0
M  V30 1812 O 179.704 1.22608 -1.50989 0
M  V30 1813 C 179.987 -1.93096 -3.0395 0
M  V30 1814 C 179.84 -3.46381 -2.8695 0
M  V30 1815 C 181.159 -1.73798 -4.0433 0
M  V30 1816 H 178.278 -0.416728 -0.607871 0
M  V30 1817 H 180.92 -1.56832 -1.07256 0
M  V30 1818 H 179.07 -1.56982 -3.55372 0
M  V30 1819 H 180.742 -3.92343 -2.42621 0
M  V30 1820 H 178.985 -3.72557 -2.22225 0
M  V30 1821 H 179.656 -3.96735 -3.83804 0
M  V30 1822 H 182.132 -2.05293 -3.61931 0
M  V30 1823 H 181.008 -2.31294 -4.97789 0
M  V30 1824 H 181.269 -0.686725 -4.36734 0
M  V30 1825 N 180.328 1.1314 -1.09713 0
M  V30 1826 C 181.577 1.83838 -0.829851 0
M  V30 1827 C 181.89 1.84599 0.646728 0
M  V30 1828 O 183.096 2.51218 1.02965 0
M  V30 1829 C 181.552 3.30069 -1.43466 0
M  V30 1830 C 181.16 3.37688 -2.94399 0
M  V30 1831 C 182.904 4.05788 -1.24645 0
M  V30 1832 C 180.811 4.78209 -3.47952 0
M  V30 1833 H 179.741 0.68877 -0.306777 0
M  V30 1834 H 182.392 1.27448 -1.3202 0
M  V30 1835 H 180.774 3.8628 -0.871996 0
M  V30 1836 H 181.948 2.91456 -3.56918 0
M  V30 1837 H 180.263 2.75436 -3.12289 0
M  V30 1838 H 182.86 5.09535 -1.62107 0
M  V30 1839 H 183.203 4.15878 -0.187357 0
M  V30 1840 H 183.736 3.55915 -1.77678 0
M  V30 1841 H 180.475 4.73311 -4.53495 0
M  V30 1842 H 179.995 5.24924 -2.90198 0
M  V30 1843 H 181.674 5.47133 -3.45332 0
M  V30 1844 N 181.806 0.884767 1.30421 0
M  V30 1845 C 183.034 0.518044 2.0031 0
M  V30 1846 C 183.449 -0.893408 1.66324 0
M  V30 1847 O 182.806 -1.5875 0.900262 0
M  V30 1848 C 182.857 0.682997 3.54989 0
M  V30 1849 O 182.578 2.03888 3.87764 0
M  V30 1850 C 184.079 0.31924 4.42149 0
M  V30 1851 H 181.299 0.200265 0.640418 0
M  V30 1852 H 183.843 1.19001 1.6631 0
M  V30 1853 H 181.998 0.0584052 3.87356 0
M  V30 1854 H 182.412 2.05735 4.82466 0
M  V30 1855 H 183.886 0.485555 5.4986 0
M  V30 1856 H 184.363 -0.742717 4.32875 0
M  V30 1857 H 184.969 0.920147 4.15227 0
M  V30 1858 N 183.284 -1.43765 0.645699 0
M  V30 1859 C 184.524 -2.03776 0.159542 0
M  V30 1860 C 184.888 -1.49792 -1.2011 0
M  V30 1861 O 186.089 -2.01398 -1.78023 0
M  V30 1862 C 184.36 -3.57036 0.161251 0
M  V30 1863 S 185.919 -4.3804 -0.258159 0
M  V30 1864 H 182.737 -0.707717 0.0682454 0
M  V30 1865 H 185.339 -1.75941 0.852352 0
M  V30 1866 H 184.043 -3.9383 1.15439 0
M  V30 1867 H 183.574 -3.89503 -0.552339 0
M  V30 1868 H 185.589 -4.7302 -1.49889 0
M  V30 1869 N 184.763 -0.387143 -1.52771 0
M  V30 1870 C 185.988 0.198407 -2.06449 0
M  V30 1871 C 186.413 1.39918 -1.25716 0
M  V30 1872 O 185.771 1.79099 -0.281657 0
M  V30 1873 C 185.819 0.548893 -3.56398 0
M  V30 1874 O 184.923 1.64315 -3.78252 0
M  V30 1875 H 184.264 0.0237731 -0.663574 0
M  V30 1876 H 186.794 -0.553989 -1.96957 0
M  V30 1877 H 186.804 0.813812 -3.99801 0
M  V30 1878 H 185.479 -0.329005 -4.14597 0
M  V30 1879 H 184.056 1.37211 -3.46738 0
M  V30 1880 N 186.241 1.57166 -0.116904 0
M  V30 1881 C 187.466 1.999 0.55271 0
M  V30 1882 C 187.891 0.996039 1.59564 0
M  V30 1883 O 187.249 -0.032556 1.81271 0
M  V30 1884 C 187.297 3.4152 1.15742 0
M  V30 1885 O 186.401 3.44106 2.27299 0
M  V30 1886 H 185.742 0.649447 0.138258 0
M  V30 1887 H 188.272 2.03573 -0.204759 0
M  V30 1888 H 188.282 3.79684 1.49346 0
M  V30 1889 H 186.957 4.14034 0.393493 0
M  V30 1890 H 185.534 3.17759 1.9515 0
M  V30 1891 N 187.719 -0.156864 1.56817 0
M  V30 1892 C 188.652 -1.22316 1.9265 0
M  V30 1893 C 189.63 -1.42059 0.791076 0
M  V30 1894 O 190.814 -1.56831 1.04576 0
M  V30 1895 C 187.941 -2.58375 2.18998 0
M  V30 1896 C 186.987 -2.55284 3.41661 0
M  V30 1897 S 187.82 -2.02946 4.95553 0
M  V30 1898 C 188.976 -3.40753 5.25013 0
M  V30 1899 H 189.209 -0.917403 2.82791 0
M  V30 1900 H 186.742 -0.362059 1.50095 0
M  V30 1901 H 188.7 -3.36677 2.34859 0
M  V30 1902 H 187.361 -2.86145 1.29538 0
M  V30 1903 H 186.554 -3.55418 3.57343 0
M  V30 1904 H 186.156 -1.85086 3.24991 0
M  V30 1905 H 188.448 -4.36819 5.17876 0
M  V30 1906 H 189.391 -3.29933 6.26538 0
M  V30 1907 H 189.799 -3.37433 4.52548 0
M  V30 1908 N 189.197 -1.51736 -0.425897 0
M  V30 1909 C 190.127 -1.76827 -1.52494 0
M  V30 1910 C 191.108 -0.618524 -1.58456 0
M  V30 1911 O 192.293 -0.862416 -1.74 0
M  V30 1912 C 189.423 -1.90374 -2.90474 0
M  V30 1913 C 188.377 -3.0588 -2.99369 0
M  V30 1914 C 187.703 -3.04625 -4.3944 0
M  V30 1915 C 189.003 -4.45644 -2.72394 0
M  V30 1916 H 190.697 -2.68855 -1.31748 0
M  V30 1917 H 188.243 -1.29372 -0.632362 0
M  V30 1918 H 190.196 -2.0651 -3.6733 0
M  V30 1919 H 188.92 -0.95004 -3.12477 0
M  V30 1920 H 187.579 -2.89467 -2.24954 0
M  V30 1921 H 187.227 -2.0701 -4.58428 0
M  V30 1922 H 186.927 -3.82195 -4.46319 0
M  V30 1923 H 188.451 -3.22869 -5.18255 0
M  V30 1924 H 189.865 -4.62348 -3.38979 0
M  V30 1925 H 188.262 -5.25006 -2.9067 0
M  V30 1926 H 189.332 -4.54893 -1.67929 0
M  V30 1927 N 190.675 0.682077 -1.42076 0
M  V30 1928 C 191.9 1.47558 -1.45744 0
M  V30 1929 C 192.325 1.87977 -0.0680981 0
M  V30 1930 O 191.683 1.55522 0.9318 0
M  V30 1931 C 191.731 2.70575 -2.38373 0
M  V30 1932 O 190.835 3.68573 -1.85007 0
M  V30 1933 H 190.176 0.443585 -0.494093 0
M  V30 1934 H 192.706 0.837238 -1.86686 0
M  V30 1935 H 192.716 3.18729 -2.54707 0
M  V30 1936 H 191.391 2.40495 -3.39315 0
M  V30 1937 H 189.968 3.2757 -1.78192 0
M  V30 1938 N 192.153 1.28127 0.917671 0
M  V30 1939 C 193.378 1.18007 1.70555 0
M  V30 1940 C 193.803 -0.258257 1.86319 0
M  V30 1941 O 193.161 -1.1869 1.37049 0
M  V30 1942 C 193.209 1.87948 3.07746 0
M  V30 1943 O 192.313 1.18427 3.9503 0
M  V30 1944 H 191.654 0.409867 0.522403 0
M  V30 1945 H 194.184 1.69379 1.1477 0
M  V30 1946 H 194.194 1.95701 3.58001 0
M  V30 1947 H 192.869 2.92573 2.95591 0
M  V30 1948 H 191.446 1.18811 3.53466 0
M  V30 1949 N 193.631 -1.12557 1.10312 0
M  V30 1950 C 194.561 -2.20341 0.772798 0
M  V30 1951 C 195.542 -1.68198 -0.25365 0
M  V30 1952 O 196.727 -1.93831 -0.119699 0
M  V30 1953 C 193.857 -3.46709 0.202443 0
M  V30 1954 C 192.811 -4.11996 1.15943 0
M  V30 1955 C 192.137 -5.328 0.450345 0
M  V30 1956 C 193.437 -4.5828 2.50552 0
M  V30 1957 H 195.131 -2.48229 1.674 0
M  V30 1958 H 192.677 -1.19308 0.806326 0
M  V30 1959 H 194.63 -4.2138 -0.0407752 0
M  V30 1960 H 193.354 -3.18245 -0.734001 0
M  V30 1961 H 192.013 -3.39305 1.38808 0
M  V30 1962 H 191.661 -5.00602 -0.490531 0
M  V30 1963 H 191.361 -5.7743 1.08851 0
M  V30 1964 H 192.885 -6.10219 0.215642 0
M  V30 1965 H 194.299 -5.2433 2.31843 0
M  V30 1966 H 192.696 -5.13683 3.10242 0
M  V30 1967 H 193.766 -3.72329 3.10643 0
M  V30 1968 N 195.109 -0.891671 -1.2995 0
M  V30 1969 C 196.349 -0.520296 -1.97667 0
M  V30 1970 C 196.713 0.914797 -1.68806 0
M  V30 1971 O 197.914 1.39263 -2.29911 0
M  V30 1972 C 196.185 -0.795222 -3.48441 0
M  V30 1973 S 197.744 -0.526953 -4.35624 0
M  V30 1974 H 194.562 -0.19333 -0.684211 0
M  V30 1975 H 197.164 -1.15238 -1.57926 0
M  V30 1976 H 195.868 -1.83805 -3.66938 0
M  V30 1977 H 195.399 -0.15095 -3.9311 0
M  V30 1978 H 197.414 0.631533 -4.92165 0
M  V30 1979 N 196.587 1.43421 -0.653314 0
M  V30 1980 C 197.834 2.01812 -0.166745 0
M  V30 1981 C 198.162 1.51535 1.21931 0
M  V30 1982 O 197.417 0.698975 1.82792 0
M  V30 1983 C 197.716 3.57176 -0.126623 0
M  V30 1984 C 197.382 4.26798 -1.45444 0
M  V30 1985 C 196.044 4.45534 -1.81805 0
M  V30 1986 C 198.396 4.66225 -2.32989 0
M  V30 1987 C 195.724 5.00961 -3.05377 0
M  V30 1988 C 198.076 5.23021 -3.55853 0
M  V30 1989 C 196.74 5.39973 -3.9241 0
M  V30 1990 H 196.01 0.738484 -0.0610162 0
M  V30 1991 H 198.657 1.71896 -0.84404 0
M  V30 1992 H 196.962 3.86634 0.634123 0
M  V30 1993 H 198.659 4.00112 0.266723 0
M  V30 1994 H 195.249 4.12561 -1.16153 0
M  V30 1995 H 199.433 4.51443 -2.06187 0
M  V30 1996 H 194.689 5.12271 -3.3375 0
M  V30 1997 H 198.863 5.52518 -4.23907 0
M  V30 1998 H 196.49 5.82687 -4.88242 0
M  V30 1999 N 198.065 0.39524 1.52563 0
M  V30 2000 C 198.995 -0.428384 2.29537 0
M  V30 2001 C 199.976 -1.05831 1.33169 0
M  V30 2002 O 201.161 -1.06995 1.62067 0
M  V30 2003 C 198.291 -1.55274 3.10656 0
M  V30 2004 C 197.245 -1.04855 4.14957 0
M  V30 2005 C 196.571 -2.26543 4.84337 0
M  V30 2006 C 197.871 -0.112324 5.22179 0
M  V30 2007 H 199.565 0.213867 2.98635 0
M  V30 2008 H 197.111 0.104298 1.43622 0
M  V30 2009 H 199.064 -2.1358 3.63265 0
M  V30 2010 H 197.788 -2.22266 2.39302 0
M  V30 2011 H 196.447 -0.487985 3.63338 0
M  V30 2012 H 196.095 -2.92059 4.09525 0
M  V30 2013 H 195.795 -1.93466 5.54837 0
M  V30 2014 H 197.319 -2.85481 5.39753 0
M  V30 2015 H 198.733 -0.603752 5.70112 0
M  V30 2016 H 197.13 0.128968 5.99961 0
M  V30 2017 H 198.2 0.837052 4.77621 0
M  V30 2018 N 199.544 -1.57102 0.125237 0
M  V30 2019 C 200.792 -1.95021 -0.530198 0
M  V30 2020 C 201.113 -1.00982 -1.66816 0
M  V30 2021 O 200.383 -0.0672693 -1.95784 0
M  V30 2022 H 198.963 -0.720046 -0.198853 0
M  V30 2023 H 201.625 -1.93916 0.19564 0
M  V30 2024 H 200.721 -2.98211 -0.920681 0
M  V30 2025 N 201.022 0.148545 -1.56898 0
M  V30 2026 C 201.985 1.16736 -1.97244 0
M  V30 2027 C 202.985 1.35947 -0.858777 0
M  V30 2028 O 204.175 1.32966 -1.12542 0
M  V30 2029 C 201.307 2.52798 -2.28705 0
M  V30 2030 H 202.5 0.821279 -2.88435 0
M  V30 2031 H 200.053 0.391831 -1.51309 0
M  V30 2032 H 200.788 2.92381 -1.403 0
M  V30 2033 H 200.573 2.40216 -3.09901 0
M  V30 2034 H 202.063 3.26179 -2.60762 0
M  V30 2035 N 202.5 1.5196 0.417844 0
M  V30 2036 C 203.749 1.6482 1.16264 0
M  V30 2037 C 204.062 0.379886 1.91876 0
M  V30 2038 O 205.268 0.388154 2.68711 0
M  V30 2039 C 203.724 2.91161 2.1155 0
M  V30 2040 C 203.332 4.25068 1.41495 0
M  V30 2041 C 205.076 3.13383 2.86341 0
M  V30 2042 C 202.983 5.42541 2.35379 0
M  V30 2043 H 201.913 0.613954 0.437694 0
M  V30 2044 H 204.564 1.78442 0.427871 0
M  V30 2045 H 202.946 2.71218 2.88543 0
M  V30 2046 H 204.12 4.55463 0.699263 0
M  V30 2047 H 202.435 4.0888 0.787792 0
M  V30 2048 H 205.032 3.98324 3.5671 0
M  V30 2049 H 205.375 2.27256 3.48798 0
M  V30 2050 H 205.908 3.33757 2.1645 0
M  V30 2051 H 202.647 6.30987 1.77582 0
M  V30 2052 H 202.167 5.16497 3.04945 0
M  V30 2053 H 203.846 5.75272 2.96093 0
M  V30 2054 N 203.978 -0.674533 1.42435 0
M  V30 2055 C 204.941 -1.76986 1.45632 0
M  V30 2056 C 205.941 -1.5708 0.343871 0
M  V30 2057 O 207.131 -1.63367 0.604709 0
M  V30 2058 C 204.263 -3.15623 1.28822 0
M  V30 2059 H 205.456 -1.75539 2.43158 0
M  V30 2060 H 203.009 -0.884189 1.28887 0
M  V30 2061 H 203.744 -3.22696 0.322193 0
M  V30 2062 H 203.529 -3.31475 2.09444 0
M  V30 2063 H 205.019 -3.95537 1.33942 0
M  V30 2064 N 205.456 -1.28612 -0.910864 0
M  V30 2065 C 206.702 -1.16106 -1.66274 0
M  V30 2066 C 207.035 0.289113 -1.92036 0
M  V30 2067 O 206.31 1.21 -1.52281 0
M  V30 2068 C 206.593 -1.96309 -3.01885 0
M  V30 2069 C 206.446 -3.49405 -2.8326 0
M  V30 2070 C 207.765 -1.78076 -4.02463 0
M  V30 2071 H 204.884 -0.423152 -0.603417 0
M  V30 2072 H 207.526 -1.57961 -1.05586 0
M  V30 2073 H 205.676 -1.60742 -3.53687 0
M  V30 2074 H 207.348 -3.94894 -2.38446 0
M  V30 2075 H 205.591 -3.74893 -2.18261 0
M  V30 2076 H 206.262 -4.00784 -3.79574 0
M  V30 2077 H 208.738 -2.0912 -3.59733 0
M  V30 2078 H 207.614 -2.36561 -4.95308 0
M  V30 2079 H 207.875 -0.733008 -4.35981 0
M  V30 2080 N 206.934 1.1197 -1.10907 0
M  V30 2081 C 208.211 1.79959 -0.766432 0
M  V30 2082 C 208.591 1.97466 0.746363 0
M  V30 2083 O 207.939 1.55491 1.67436 0
M  V30 2084 C 208.149 3.14009 -1.52314 0
M  V30 2085 C 209.497 3.89134 -1.69883 0
M  V30 2086 O 210.521 3.2368 -1.48692 0
M  V30 2087 O 209.38 5.06572 -2.05054 0
M  V30 2088 H 206.474 0.779208 -0.277062 0
M  V30 2089 H 209.02 1.18762 -1.21217 0
M  V30 2090 H 207.792 2.96587 -2.55249 0
M  V30 2091 H 207.415 3.82915 -1.07059 0
M  V30 2092 N 208.412 0.89855 1.29475 0
M  V30 2093 C 209.828 0.594483 1.48115 0
M  V30 2094 C 210.028 -0.86431 1.82022 0
M  V30 2095 O 209.084 -1.64457 1.91599 0
M  V30 2096 C 210.397 1.51932 2.59494 0
M  V30 2097 C 211.945 1.5244 2.7337 0
M  V30 2098 C 212.42 2.43548 3.87877 0
M  V30 2099 N 213.911 2.41589 3.95208 0
M  V30 2100 C 214.646 3.08789 4.83153 0
M  V30 2101 N 214.142 3.85265 5.75798 0
M  V30 2102 N 215.935 2.97952 4.76635 0
M  V30 2103 H 208.086 1.84207 1.05742 0
M  V30 2104 H 210.349 0.789251 0.525154 0
M  V30 2105 H 210.055 2.55865 2.41301 0
M  V30 2106 H 209.929 1.23899 3.56271 0
M  V30 2107 H 212.316 0.492518 2.90961 0
M  V30 2108 H 212.397 1.8451 1.77172 0
M  V30 2109 H 212.041 3.46829 3.71041 0
M  V30 2110 H 211.971 2.08788 4.83441 0
M  V30 2111 H 214.462 1.86025 3.28943 0
M  V30 2112 H 214.775 4.33598 6.39697 0
M  V30 2113 H 213.12 3.89371 5.75687 0
M  V30 2114 H 216.311 2.37723 4.03244 0
M  V30 2115 H 216.484 3.50599 5.44962 0
M  V30 2116 N 209.89 -1.43072 0.660911 0
M  V30 2117 C 211.12 -2.05769 0.185153 0
M  V30 2118 C 211.528 -1.49668 -1.15742 0
M  V30 2119 O 210.871 -0.625649 -1.72717 0
M  V30 2120 C 210.933 -3.59489 0.0278237 0
M  V30 2121 C 210.597 -4.38212 1.2969 0
M  V30 2122 C 211.594 -4.69772 2.22734 0
M  V30 2123 C 209.279 -4.7809 1.54063 0
M  V30 2124 C 211.273 -5.40129 3.38437 0
M  V30 2125 C 208.96 -5.4819 2.70058 0
M  V30 2126 C 209.958 -5.79132 3.62071 0
M  V30 2127 O 209.646 -6.47798 4.76039 0
M  V30 2128 H 209.378 -0.669873 0.0908086 0
M  V30 2129 H 211.932 -1.84436 0.90402 0
M  V30 2130 H 210.162 -3.79426 -0.746489 0
M  V30 2131 H 211.851 -4.03862 -0.406275 0
M  V30 2132 H 212.617 -4.39476 2.05149 0
M  V30 2133 H 208.496 -4.53408 0.833215 0
M  V30 2134 H 212.04 -5.64198 4.10277 0
M  V30 2135 H 207.937 -5.77902 2.87574 0
M  V30 2136 H 208.705 -6.66283 4.75404 0
M  V30 2137 N 211.368 -0.403325 -1.52352 0
M  V30 2138 C 212.617 0.175668 -2.00934 0
M  V30 2139 C 212.93 1.46718 -1.29356 0
M  V30 2140 O 214.136 2.12708 -1.68724 0
M  V30 2141 C 212.592 0.363612 -3.58058 0
M  V30 2142 C 212.2 -0.915472 -4.38547 0
M  V30 2143 C 213.944 0.89821 -4.14888 0
M  V30 2144 C 211.851 -0.695035 -5.87302 0
M  V30 2145 H 210.781 0.0694234 -0.750797 0
M  V30 2146 H 213.432 -0.527879 -1.75743 0
M  V30 2147 H 211.814 1.12935 -3.79555 0
M  V30 2148 H 212.988 -1.68691 -4.28812 0
M  V30 2149 H 211.303 -1.37606 -3.93006 0
M  V30 2150 H 213.9 1.07907 -5.23699 0
M  V30 2151 H 214.243 1.87126 -3.71873 0
M  V30 2152 H 214.776 0.191681 -3.97338 0
M  V30 2153 H 211.515 -1.63948 -6.34666 0
M  V30 2154 H 211.035 0.0372116 -5.99788 0
M  V30 2155 H 212.714 -0.33497 -6.46132 0
M  V30 2156 N 212.846 1.57033 -0.133567 0
M  V30 2157 C 214.071 2.00475 0.531477 0
M  V30 2158 C 214.496 1.01291 1.58499 0
M  V30 2159 O 213.854 -0.0133279 1.81295 0
M  V30 2160 C 213.902 3.42729 1.12113 0
M  V30 2161 O 213.006 3.46498 2.23636 0
M  V30 2162 H 212.347 0.650876 0.131362 0
M  V30 2163 H 214.877 2.03344 -0.22634 0
M  V30 2164 H 214.887 3.81246 1.4531 0
M  V30 2165 H 213.562 4.14428 0.349557 0
M  V30 2166 H 212.139 3.19811 1.91769 0
M  V30 2167 N 214.325 -0.140222 1.56975 0
M  V30 2168 C 215.574 -0.850152 1.82908 0
M  V30 2169 C 215.887 -1.82028 0.715892 0
M  V30 2170 O 217.093 -2.57485 0.861016 0
M  V30 2171 C 215.549 -1.5625 3.24213 0
M  V30 2172 C 215.157 -0.63443 4.43485 0
M  V30 2173 C 216.901 -2.25881 3.59413 0
M  V30 2174 C 214.808 -1.34879 5.75814 0
M  V30 2175 H 213.738 -0.321221 0.682153 0
M  V30 2176 H 216.389 -0.102874 1.83211 0
M  V30 2177 H 214.771 -2.35565 3.18316 0
M  V30 2178 H 215.945 0.12398 4.60633 0
M  V30 2179 H 214.26 -0.0461836 4.16374 0
M  V30 2180 H 216.857 -2.79978 4.5554 0
M  V30 2181 H 217.2 -3.02693 2.85802 0
M  V30 2182 H 217.733 -1.53477 3.67001 0
M  V30 2183 H 214.472 -0.622385 6.52539 0
M  V30 2184 H 213.992 -2.07974 5.6259 0
M  V30 2185 H 215.671 -1.88784 6.18845 0
M  V30 2186 N 215.803 -1.52179 -0.40978 0
M  V30 2187 C 217.05 -1.66206 -1.15679 0
M  V30 2188 C 217.378 -0.391674 -1.90516 0
M  V30 2189 O 216.633 0.62533 -1.8544 0
M  V30 2190 C 216.932 -2.83428 -2.17723 0
M  V30 2191 C 216.598 -4.21672 -1.59699 0
M  V30 2192 C 215.26 -4.59274 -1.43599 0
M  V30 2193 C 217.612 -5.07825 -1.17317 0
M  V30 2194 C 214.94 -5.80709 -0.836328 0
M  V30 2195 C 217.292 -6.29864 -0.587691 0
M  V30 2196 C 215.956 -6.66216 -0.413818 0
M  V30 2197 H 215.226 -0.608192 -0.423301 0
M  V30 2198 H 217.873 -1.86279 -0.444097 0
M  V30 2199 H 216.178 -2.57687 -2.95135 0
M  V30 2200 H 217.875 -2.91477 -2.75394 0
M  V30 2201 H 214.465 -3.9204 -1.73213 0
M  V30 2202 H 218.649 -4.79359 -1.28565 0
M  V30 2203 H 213.905 -6.07498 -0.689626 0
M  V30 2204 H 218.079 -6.95948 -0.250894 0
M  V30 2205 H 215.706 -7.60182 0.0529471 0
M  V30 2206 N 217.281 0.66697 -1.42791 0
M  V30 2207 C 218.511 1.45294 -1.46878 0
M  V30 2208 C 218.919 1.89027 -0.0809861 0
M  V30 2209 O 218.262 1.59219 0.916246 0
M  V30 2210 C 218.324 2.72908 -2.34012 0
M  V30 2211 C 217.988 2.51203 -3.81767 0
M  V30 2212 C 218.985 2.15302 -4.73224 0
M  V30 2213 C 216.67 2.65954 -4.26115 0
M  V30 2214 C 218.664 1.94431 -6.07022 0
M  V30 2215 C 216.351 2.44699 -5.59969 0
M  V30 2216 C 217.349 2.08992 -6.5024 0
M  V30 2217 O 217.037 1.87948 -7.81621 0
M  V30 2218 H 216.769 0.453306 -0.501487 0
M  V30 2219 H 219.323 0.826232 -1.88049 0
M  V30 2220 H 217.553 3.38089 -1.87703 0
M  V30 2221 H 219.242 3.34816 -2.29462 0
M  V30 2222 H 220.008 2.03495 -4.40244 0
M  V30 2223 H 215.887 2.92724 -3.56137 0
M  V30 2224 H 219.431 1.66484 -6.77443 0
M  V30 2225 H 215.328 2.56105 -5.9252 0
M  V30 2226 H 216.096 2.02483 -7.93059 0
M  V30 2227 N 218.759 1.29093 0.90403 0
M  V30 2228 C 219.722 1.1386 1.98919 0
M  V30 2229 C 220.722 0.0753457 1.60623 0
M  V30 2230 O 221.912 0.321931 1.71199 0
M  V30 2231 C 219.044 0.740198 3.32767 0
M  V30 2232 H 220.237 2.10246 2.13861 0
M  V30 2233 H 217.79 1.12218 1.08797 0
M  V30 2234 H 218.525 -0.223997 3.23525 0
M  V30 2235 H 218.31 1.50838 3.61926 0
M  V30 2236 H 219.8 0.656546 4.12407 0
M  V30 2237 N 220.237 -1.11381 1.11499 0
M  V30 2238 C 221.167 -2.19509 0.796125 0
M  V30 2239 C 222.148 -1.68458 -0.235796 0
M  V30 2240 O 223.333 -1.93947 -0.0991344 0
M  V30 2241 C 220.463 -3.46475 0.239205 0
M  V30 2242 C 219.417 -4.10744 1.20307 0
M  V30 2243 C 218.743 -5.32293 0.50683 0
M  V30 2244 C 220.043 -4.55597 2.55399 0
M  V30 2245 H 221.737 -2.46439 1.70024 0
M  V30 2246 H 219.283 -1.18446 0.818935 0
M  V30 2247 H 221.236 -4.214 0.00392006 0
M  V30 2248 H 219.96 -3.19006 -0.700206 0
M  V30 2249 H 218.619 -3.37813 1.42399 0
M  V30 2250 H 218.267 -5.01095 -0.437408 0
M  V30 2251 H 217.967 -5.76243 1.1497 0
M  V30 2252 H 219.491 -6.09956 0.280351 0
M  V30 2253 H 220.905 -5.21841 2.37391 0
M  V30 2254 H 219.302 -5.10363 3.15673 0
M  V30 2255 H 220.372 -3.69013 3.14575 0
M  V30 2256 N 221.715 -0.905404 -1.28997 0
M  V30 2257 C 223.131 -0.60233 -1.47798 0
M  V30 2258 C 223.331 0.854645 -1.82478 0
M  V30 2259 O 222.387 1.63439 -1.92468 0
M  V30 2260 C 223.7 -1.53306 -2.58685 0
M  V30 2261 C 225.248 -1.53887 -2.72558 0
M  V30 2262 C 225.723 -2.45602 -3.86579 0
M  V30 2263 N 227.214 -2.43681 -3.93921 0
M  V30 2264 C 227.949 -3.11347 -4.81509 0
M  V30 2265 N 227.445 -3.88313 -5.73746 0
M  V30 2266 N 229.238 -3.00476 -4.75048 0
M  V30 2267 H 221.389 -1.84765 -1.04764 0
M  V30 2268 H 223.652 -0.792025 -0.520961 0
M  V30 2269 H 223.358 -2.57141 -2.39941 0
M  V30 2270 H 223.232 -1.25787 -3.55609 0
M  V30 2271 H 225.619 -0.507941 -2.90696 0
M  V30 2272 H 225.7 -1.85447 -1.76191 0
M  V30 2273 H 225.344 -3.48792 -3.69197 0
M  V30 2274 H 225.274 -2.11349 -4.82327 0
M  V30 2275 H 227.765 -1.87767 -3.27951 0
M  V30 2276 H 228.078 -4.36985 -6.37389 0
M  V30 2277 H 226.423 -3.92419 -5.73614 0
M  V30 2278 H 229.614 -2.39858 -4.01977 0
M  V30 2279 H 229.787 -3.53485 -5.43095 0
M  V30 2280 N 223.193 1.4272 -0.668489 0
M  V30 2281 C 224.423 2.05668 -0.196063 0
M  V30 2282 C 224.831 1.5028 1.14946 0
M  V30 2283 O 224.174 0.6348 1.72383 0
M  V30 2284 C 224.236 3.59469 -0.0468879 0
M  V30 2285 C 223.9 4.37518 -1.32012 0
M  V30 2286 C 224.897 4.68584 -2.25222 0
M  V30 2287 C 222.582 4.77266 -1.56596 0
M  V30 2288 C 224.576 5.38326 -3.41297 0
M  V30 2289 C 222.263 5.4675 -2.72962 0
M  V30 2290 C 223.261 5.77204 -3.65137 0
M  V30 2291 O 222.949 6.45264 -4.79468 0
M  V30 2292 H 222.681 0.669382 -0.0943599 0
M  V30 2293 H 225.235 1.83954 -0.913788 0
M  V30 2294 H 223.465 3.79817 0.726357 0
M  V30 2295 H 225.154 4.04071 0.384852 0
M  V30 2296 H 225.92 4.38382 -2.07477 0
M  V30 2297 H 221.799 4.52959 -0.857249 0
M  V30 2298 H 225.343 5.62014 -4.13263 0
M  V30 2299 H 221.24 5.76369 -2.90635 0
M  V30 2300 H 222.008 6.63753 -4.78931 0
M  V30 2301 N 224.671 0.411399 1.52136 0
M  V30 2302 C 225.621 -0.430376 2.23901 0
M  V30 2303 C 226.605 -1.0116 1.25121 0
M  V30 2304 O 227.797 -0.934044 1.50348 0
M  V30 2305 C 224.926 -1.54527 3.06556 0
M  V30 2306 C 224.012 -0.9747 4.12747 0
M  V30 2307 N 224.403 -0.130991 5.0563 0
M  V30 2308 C 222.701 -1.24497 4.28271 0
M  V30 2309 C 223.402 0.186689 5.814 0
M  V30 2310 N 222.378 -0.42304 5.41951 0
M  V30 2311 H 226.18 0.220509 2.93072 0
M  V30 2312 H 223.694 0.221952 1.60876 0
M  V30 2313 H 225.691 -2.16093 3.56524 0
M  V30 2314 H 224.351 -2.19875 2.38925 0
M  V30 2315 H 225.362 0.23349 5.17373 0
M  V30 2316 H 222.039 -1.89787 3.7187 0
M  V30 2317 H 223.429 0.871673 6.66222 0
M  V30 2318 N 226.149 -1.5696 0.141893 0
M  V30 2319 C 227.374 -2.00754 -0.520838 0
M  V30 2320 C 227.799 -1.0213 -1.57959 0
M  V30 2321 O 227.157 0.00371324 -1.813 0
M  V30 2322 C 227.205 -3.43318 -1.10294 0
M  V30 2323 O 226.309 -3.47679 -2.21795 0
M  V30 2324 H 225.65 -0.651564 -0.127908 0
M  V30 2325 H 228.18 -2.03221 0.23712 0
M  V30 2326 H 228.19 -3.82012 -1.43287 0
M  V30 2327 H 226.865 -4.14608 -0.327574 0
M  V30 2328 H 225.442 -3.20824 -1.9007 0
M  V30 2329 N 227.627 0.131896 -1.57047 0
M  V30 2330 C 228.876 0.84044 -1.83356 0
M  V30 2331 C 229.189 1.81646 -0.725535 0
M  V30 2332 O 230.395 2.57025 -0.874659 0
M  V30 2333 C 228.851 1.54528 -3.25037 0
M  V30 2334 C 228.459 0.610902 -4.43815 0
M  V30 2335 C 230.203 2.23972 -3.60606 0
M  V30 2336 C 228.11 1.31823 -5.76521 0
M  V30 2337 H 227.04 0.317599 -0.683847 0
M  V30 2338 H 229.691 0.0931561 -1.83263 0
M  V30 2339 H 228.073 2.33873 -3.19561 0
M  V30 2340 H 229.247 -0.148407 -4.60561 0
M  V30 2341 H 227.562 0.0241016 -4.16393 0
M  V30 2342 H 230.159 2.77558 -4.57018 0
M  V30 2343 H 230.502 3.01173 -2.87403 0
M  V30 2344 H 231.035 1.51529 -3.6781 0
M  V30 2345 H 227.774 0.587771 -6.52859 0
M  V30 2346 H 227.294 2.04987 -5.63685 0
M  V30 2347 H 228.973 1.855 -6.19838 0
M  V30 2348 N 229.106 1.52395 0.401703 0
M  V30 2349 C 230.352 1.67065 1.14966 0
M  V30 2350 C 230.685 0.403052 1.89971 0
M  V30 2351 O 229.96 -0.598774 1.85054 0
M  V30 2352 C 230.243 2.8975 2.13815 0
M  V30 2353 C 230.096 4.26578 1.42658 0
M  V30 2354 C 231.415 3.07965 3.14397 0
M  V30 2355 H 228.534 0.607968 0.416587 0
M  V30 2356 H 231.176 1.84965 0.434511 0
M  V30 2357 H 229.326 2.74619 2.74803 0
M  V30 2358 H 230.998 4.53451 0.847329 0
M  V30 2359 H 229.241 4.27639 0.72849 0
M  V30 2360 H 229.912 5.08483 2.14823 0
M  V30 2361 H 232.388 3.22043 2.63491 0
M  V30 2362 H 231.264 3.95308 3.80819 0
M  V30 2363 H 231.525 2.21611 3.82545 0
M  V30 2364 N 230.584 -0.659388 1.43143 0
M  V30 2365 C 231.812 -1.44723 1.47861 0
M  V30 2366 C 232.227 -1.88563 0.0945886 0
M  V30 2367 O 231.584 -1.59108 -0.893915 0
M  V30 2368 C 231.635 -2.68627 2.41913 0
M  V30 2369 O 231.356 -2.26623 3.74932 0
M  V30 2370 C 232.857 -3.62045 2.55809 0
M  V30 2371 H 230.077 -0.444801 0.502387 0
M  V30 2372 H 232.621 -0.808916 1.87821 0
M  V30 2373 H 230.776 -3.28613 2.05164 0
M  V30 2374 H 231.19 -3.06745 4.2545 0
M  V30 2375 H 232.664 -4.45666 3.25708 0
M  V30 2376 H 233.141 -4.08981 1.60099 0
M  V30 2377 H 233.747 -3.07944 2.93344 0
M  V30 2378 N 232.062 -1.29571 -0.897171 0
M  V30 2379 C 232.992 -1.17473 -2.01798 0
M  V30 2380 C 233.973 -0.068323 -1.69963 0
M  V30 2381 O 235.158 -0.248239 -1.92607 0
M  V30 2382 C 232.288 -0.853099 -3.36659 0
M  V30 2383 C 231.242 -1.9161 -3.82713 0
M  V30 2384 C 230.568 -1.44773 -5.14728 0
M  V30 2385 C 231.868 -3.32535 -4.02763 0
M  V30 2386 H 233.562 -2.11237 -2.12177 0
M  V30 2387 H 231.108 -1.01699 -1.01948 0
M  V30 2388 H 233.061 -0.755165 -4.14578 0
M  V30 2389 H 231.785 0.120236 -3.26379 0
M  V30 2390 H 230.444 -2.00346 -3.07013 0
M  V30 2391 H 230.092 -0.462995 -5.00865 0
M  V30 2392 H 229.792 -2.15865 -5.46513 0
M  V30 2393 H 231.316 -1.36334 -5.95185 0
M  V30 2394 H 232.73 -3.26626 -4.71156 0
M  V30 2395 H 231.127 -4.01607 -4.45905 0
M  V30 2396 H 232.197 -3.75326 -3.07016 0
M  V30 2397 N 233.54 1.10788 -1.12088 0
M  V30 2398 C 234.951 1.64181 -0.88891 0
M  V30 2399 C 235.302 1.87508 0.577498 0
M  V30 2400 O 234.427 1.61434 1.44112 0
M  V30 2401 C 235.022 2.98257 -1.60712 0
M  V30 2402 C 233.581 3.4853 -1.42139 0
M  V30 2403 C 232.728 2.23208 -1.6454 0
M  V30 2404 H 235.679 0.943368 -1.27618 0
M  V30 2405 H 235.7 3.65552 -1.05604 0
M  V30 2406 H 235.212 2.81246 -2.67436 0
M  V30 2407 H 233.313 3.70692 -0.376552 0
M  V30 2408 H 233.426 4.26882 -2.17505 0
M  V30 2409 H 231.79 2.31169 -1.06925 0
M  V30 2410 H 232.573 2.08733 -2.72554 0
M  V30 2411 N 235.018 0.912232 1.28515 0
M  V30 2412 C 236.434 0.610159 1.47476 0
M  V30 2413 C 236.634 -0.844955 1.82928 0
M  V30 2414 O 235.69 -1.62416 1.93332 0
M  V30 2415 C 237.003 1.54675 2.57868 0
M  V30 2416 C 238.551 1.55331 2.71738 0
M  V30 2417 C 239.026 2.47649 3.85272 0
M  V30 2418 N 240.517 2.45767 3.92623 0
M  V30 2419 C 241.252 3.13896 4.79851 0
M  V30 2420 N 240.748 3.9135 5.71679 0
M  V30 2421 N 242.541 3.02991 4.73448 0
M  V30 2422 H 234.692 1.85318 1.03783 0
M  V30 2423 H 236.955 0.794777 0.516753 0
M  V30 2424 H 236.661 2.5841 2.38574 0
M  V30 2425 H 236.535 1.27671 3.54937 0
M  V30 2426 H 238.922 0.52335 2.90422 0
M  V30 2427 H 239.003 1.86378 1.75205 0
M  V30 2428 H 238.647 3.50745 3.67342 0
M  V30 2429 H 238.577 2.13904 4.81199 0
M  V30 2430 H 241.068 1.89503 3.26951 0
M  V30 2431 H 241.381 4.40359 6.35062 0
M  V30 2432 H 239.726 3.95455 5.71524 0
M  V30 2433 H 242.917 2.41987 4.007 0
M  V30 2434 H 243.09 3.5636 5.41213 0
M  V30 2435 N 236.496 -1.42363 0.676048 0
M  V30 2436 C 237.459 -2.29199 0.00766941 0
M  V30 2437 C 238.459 -1.43389 -0.727745 0
M  V30 2438 O 239.649 -1.64764 -0.56556 0
M  V30 2439 C 236.781 -3.2591 -0.999785 0
M  V30 2440 H 237.974 -2.89794 0.771988 0
M  V30 2441 H 235.527 -1.50024 0.438468 0
M  V30 2442 H 236.262 -2.70256 -1.79255 0
M  V30 2443 H 236.047 -3.89202 -0.475829 0
M  V30 2444 H 237.537 -3.91028 -1.46583 0
M  V30 2445 N 237.974 -0.419461 -1.51915 0
M  V30 2446 C 239.39 -0.0708431 -1.59443 0
M  V30 2447 C 239.59 1.41796 -1.43164 0
M  V30 2448 O 238.646 2.18596 -1.26381 0
M  V30 2449 C 239.959 -0.574991 -2.95151 0
M  V30 2450 C 241.507 -0.533867 -3.08413 0
M  V30 2451 C 241.982 -1.01469 -4.46618 0
M  V30 2452 N 243.473 -0.971939 -4.52888 0
M  V30 2453 C 244.208 -1.31505 -5.58116 0
M  V30 2454 N 243.704 -1.73014 -6.70849 0
M  V30 2455 N 245.497 -1.23436 -5.48379 0
M  V30 2456 H 237.648 -1.38836 -1.60743 0
M  V30 2457 H 239.911 -0.570998 -0.756747 0
M  V30 2458 H 239.617 -1.61597 -3.12377 0
M  V30 2459 H 239.491 0.00979777 -3.77199 0
M  V30 2460 H 241.878 0.498086 -2.90866 0
M  V30 2461 H 241.959 -1.15484 -2.28248 0
M  V30 2462 H 241.603 -2.04502 -4.6491 0
M  V30 2463 H 241.533 -0.370433 -5.25295 0
M  V30 2464 H 244.024 -0.666893 -3.71969 0
M  V30 2465 H 244.337 -1.97479 -7.47143 0
M  V30 2466 H 242.682 -1.76926 -6.72103 0
M  V30 2467 H 245.873 -0.908869 -4.59192 0
M  V30 2468 H 246.046 -1.50506 -6.30279 0
M  V30 2469 N 239.452 1.56882 -0.150215 0
M  V30 2470 C 240.868 1.58263 0.20617 0
M  V30 2471 C 241.068 1.16464 1.64434 0
M  V30 2472 O 240.124 0.866422 2.3717 0
M  V30 2473 C 241.437 3.00649 -0.0555025 0
M  V30 2474 C 242.985 3.12999 0.00795388 0
M  V30 2475 C 243.46 4.5744 -0.226429 0
M  V30 2476 N 244.951 4.62875 -0.173469 0
M  V30 2477 C 245.686 5.72454 -0.329288 0
M  V30 2478 N 245.182 6.90669 -0.543005 0
M  V30 2479 N 246.975 5.61467 -0.266666 0
M  V30 2480 H 239.126 1.82345 -1.08922 0
M  V30 2481 H 241.389 0.844149 -0.431413 0
M  V30 2482 H 241.095 3.3563 -1.05096 0
M  V30 2483 H 240.969 3.71337 0.66246 0
M  V30 2484 H 243.356 2.77857 0.993966 0
M  V30 2485 H 243.437 2.4479 -0.742388 0
M  V30 2486 H 243.081 4.93287 -1.20956 0
M  V30 2487 H 243.011 5.2378 0.544274 0
M  V30 2488 H 245.502 3.77898 -0.0130709 0
M  V30 2489 H 245.815 7.70045 -0.651922 0
M  V30 2490 H 244.16 6.92581 -0.579366 0
M  V30 2491 H 247.351 4.67992 -0.100441 0
M  V30 2492 H 247.524 6.46816 -0.391535 0
M  V30 2493 N 240.93 -0.123565 1.57115 0
M  V30 2494 C 241.893 -1.13583 1.99076 0
M  V30 2495 C 242.893 -1.34564 0.880296 0
M  V30 2496 O 244.083 -1.31158 1.14644 0
M  V30 2497 C 241.215 -2.49128 2.32698 0
M  V30 2498 H 242.408 -0.775287 2.89706 0
M  V30 2499 H 239.961 -0.36771 1.51913 0
M  V30 2500 H 240.696 -2.90111 1.44934 0
M  V30 2501 H 240.481 -2.35255 3.13684 0
M  V30 2502 H 241.971 -3.2199 2.65918 0
M  V30 2503 N 242.408 -1.52605 -0.393616 0
M  V30 2504 C 243.654 -1.67672 -1.14079 0
M  V30 2505 C 243.987 -0.413121 -1.89755 0
M  V30 2506 O 243.262 0.588952 -1.85369 0
M  V30 2507 C 243.545 -2.9088 -2.12276 0
M  V30 2508 C 243.398 -4.27329 -1.40394 0
M  V30 2509 C 244.717 -3.09628 -3.12759 0
M  V30 2510 H 241.836 -0.610168 -0.413356 0
M  V30 2511 H 244.478 -1.85193 -0.424696 0
M  V30 2512 H 242.628 -2.76073 -2.73342 0
M  V30 2513 H 244.3 -4.53894 -0.82327 0
M  V30 2514 H 242.543 -4.2802 -0.705801 0
M  V30 2515 H 243.214 -5.09615 -2.12123 0
M  V30 2516 H 245.69 -3.23436 -2.61779 0
M  V30 2517 H 244.566 -3.97322 -3.78717 0
M  V30 2518 H 244.827 -2.23637 -3.81365 0
M  V30 2519 N 243.887 0.651787 -1.4349 0
M  V30 2520 C 244.85 1.74647 -1.48429 0
M  V30 2521 C 245.85 1.56513 -0.368817 0
M  V30 2522 O 247.04 1.62385 -0.630623 0
M  V30 2523 C 244.172 3.13533 -1.33827 0
M  V30 2524 H 245.365 1.71649 -2.4592 0
M  V30 2525 H 242.918 0.863573 -1.30277 0
M  V30 2526 H 243.653 3.22142 -0.37349 0
M  V30 2527 H 243.438 3.28101 -2.14691 0
M  V30 2528 H 244.928 3.93356 -1.40218 0
M  V30 2529 N 245.365 1.30045 0.890287 0
M  V30 2530 C 246.328 1.15963 1.977 0
M  V30 2531 C 247.328 0.0923777 1.60534 0
M  V30 2532 O 248.518 0.340071 1.70848 0
M  V30 2533 C 245.65 0.775451 3.31963 0
M  V30 2534 H 246.843 2.12502 2.11619 0
M  V30 2535 H 244.396 1.13366 1.07601 0
M  V30 2536 H 245.131 -0.189671 3.23745 0
M  V30 2537 H 244.916 1.54668 3.60306 0
M  V30 2538 H 246.406 0.700251 4.11687 0
M  V30 2539 N 246.843 -1.10192 1.12674 0
M  V30 2540 C 248.092 -1.81573 0.8783 0
M  V30 2541 C 248.405 -1.86249 -0.597557 0
M  V30 2542 O 249.611 -2.5386 -0.962681 0
M  V30 2543 C 248.067 -3.26149 1.52167 0
M  V30 2544 C 247.675 -3.29763 3.03249 0
M  V30 2545 C 249.419 -4.0234 1.3536 0
M  V30 2546 C 247.326 -4.68815 3.60508 0
M  V30 2547 H 246.256 -0.680394 0.324931 0
M  V30 2548 H 248.907 -1.23902 1.35353 0
M  V30 2549 H 247.289 -3.83832 0.974104 0
M  V30 2550 H 248.463 -2.8189 3.6452 0
M  V30 2551 H 246.778 -2.67059 3.19481 0
M  V30 2552 H 249.375 -5.05058 1.75559 0
M  V30 2553 H 249.718 -4.15235 0.297554 0
M  V30 2554 H 250.251 -3.51079 1.87052 0
M  V30 2555 H 246.99 -4.61121 4.65884 0
M  V30 2556 H 246.51 -5.17045 3.04014 0
M  V30 2557 H 248.189 -5.37785 3.59717 0
M  V30 2558 N 248.321 -0.919034 -1.28029 0
M  V30 2559 C 249.567 -0.565221 -1.95389 0
M  V30 2560 C 249.922 0.882325 -1.70976 0
M  V30 2561 O 249.215 1.61988 -1.02325 0
M  V30 2562 C 249.409 -0.816855 -3.4794 0
M  V30 2563 C 249.238 -2.28731 -3.87185 0
M  V30 2564 C 248.008 -2.93841 -4.11079 0
M  V30 2565 C 250.206 -3.26415 -3.97439 0
M  V30 2566 N 248.188 -4.31129 -4.37037 0
M  V30 2567 C 249.559 -4.48884 -4.27672 0
M  V30 2568 C 251.614 -3.21742 -3.79982 0
M  V30 2569 C 250.317 -5.67268 -4.42266 0
M  V30 2570 C 252.343 -4.39431 -3.95796 0
M  V30 2571 C 251.705 -5.60675 -4.26407 0
M  V30 2572 H 247.804 -0.256797 -0.738633 0
M  V30 2573 H 250.388 -1.18386 -1.54573 0
M  V30 2574 H 248.559 -0.227445 -3.87733 0
M  V30 2575 H 250.291 -0.426542 -4.02446 0
M  V30 2576 H 247.046 -2.44547 -4.05578 0
M  V30 2577 H 247.47 -5.02127 -4.5409 0
M  V30 2578 H 252.112 -2.29079 -3.55363 0
M  V30 2579 H 249.83 -6.60406 -4.65714 0
M  V30 2580 H 253.416 -4.37323 -3.83719 0
M  V30 2581 H 252.296 -6.50223 -4.38383 0
M  V30 2582 N 249.799 1.42003 -0.683588 0
M  V30 2583 C 251.045 2.01712 -0.209825 0
M  V30 2584 C 251.378 1.53968 1.18353 0
M  V30 2585 O 250.653 0.745661 1.79639 0
M  V30 2586 C 250.936 3.59202 -0.254197 0
M  V30 2587 C 250.789 4.17102 -1.68363 0
M  V30 2588 C 252.108 4.38344 0.392709 0
M  V30 2589 H 249.227 0.732891 -0.0777189 0
M  V30 2590 H 251.869 1.68909 -0.87004 0
M  V30 2591 H 250.019 3.87278 0.307954 0
M  V30 2592 H 251.691 3.99946 -2.29871 0
M  V30 2593 H 249.934 3.72597 -2.22157 0
M  V30 2594 H 250.605 5.26249 -1.6663 0
M  V30 2595 H 253.081 4.16011 -0.0859162 0
M  V30 2596 H 251.957 5.47901 0.331063 0
M  V30 2597 H 252.218 4.16887 1.47164 0
M  V30 2598 N 251.277 0.427512 1.51691 0
M  V30 2599 C 252.24 -0.377132 2.26076 0
M  V30 2600 C 253.24 -0.958089 1.29141 0
M  V30 2601 O 254.43 -0.83408 1.52934 0
M  V30 2602 C 251.562 -1.53262 3.04506 0
M  V30 2603 H 252.755 0.27464 2.9864 0
M  V30 2604 H 250.308 0.180445 1.55255 0
M  V30 2605 H 251.043 -2.22072 2.36335 0
M  V30 2606 H 250.828 -1.12232 3.75694 0
M  V30 2607 H 252.318 -2.10135 3.60878 0
M  V30 2608 N 252.755 -1.56801 0.158532 0
M  V30 2609 C 253.98 -2.01295 -0.499516 0
M  V30 2610 C 254.405 -1.03799 -1.56867 0
M  V30 2611 O 253.763 -0.0155162 -1.81293 0
M  V30 2612 C 253.811 -3.44469 -1.06647 0
M  V30 2613 O 252.915 -3.50012 -2.18095 0
M  V30 2614 H 252.256 -0.652884 -0.12099 0
M  V30 2615 H 254.786 -2.02958 0.258661 0
M  V30 2616 H 254.796 -3.8351 -1.39227 0
M  V30 2617 H 253.471 -4.14932 -0.283581 0
M  V30 2618 H 252.048 -3.22822 -1.86656 0
M  V30 2619 N 254.233 0.115231 -1.57178 0
M  V30 2620 C 255.479 0.82357 -1.85325 0
M  V30 2621 C 255.812 1.79349 -0.744814 0
M  V30 2622 O 255.087 1.92899 0.249024 0
M  V30 2623 C 255.37 1.57014 -3.24066 0
M  V30 2624 C 255.223 0.619565 -4.45513 0
M  V30 2625 C 256.542 2.52545 -3.60429 0
M  V30 2626 H 253.661 0.297948 -0.674089 0
M  V30 2627 H 256.303 0.0877138 -1.89797 0
M  V30 2628 H 254.453 2.19742 -3.20383 0
M  V30 2629 H 256.125 0.000837639 -4.613 0
M  V30 2630 H 254.368 -0.0686174 -4.33746 0
M  V30 2631 H 255.039 1.17866 -5.3927 0
M  V30 2632 H 257.515 1.9992 -3.64926 0
M  V30 2633 H 256.391 3.01811 -4.58477 0
M  V30 2634 H 256.652 3.35383 -2.88047 0
M  V30 2635 N 255.711 1.52812 0.385517 0
M  V30 2636 C 256.957 1.68275 1.13188 0
M  V30 2637 C 257.29 0.423179 1.89533 0
M  V30 2638 O 256.565 -0.579113 1.85679 0
M  V30 2639 C 256.848 2.92001 2.1073 0
M  V30 2640 C 256.701 4.28067 1.38125 0
M  V30 2641 C 258.02 3.11283 3.11113 0
M  V30 2642 H 255.139 0.612352 0.410115 0
M  V30 2643 H 257.781 1.85415 0.414869 0
M  V30 2644 H 255.931 2.77519 2.71874 0
M  V30 2645 H 257.603 4.54324 0.799187 0
M  V30 2646 H 255.846 4.28388 0.683092 0
M  V30 2647 H 256.517 5.10733 2.09417 0
M  V30 2648 H 258.993 3.2482 2.6006 0
M  V30 2649 H 257.869 3.99325 3.76605 0
M  V30 2650 H 258.13 2.25656 3.80173 0
M  V30 2651 N 257.189 -0.644168 1.43834 0
M  V30 2652 C 258.436 -1.40395 1.4593 0
M  V30 2653 C 258.764 -1.94305 0.0869658 0
M  V30 2654 O 258.019 -1.73288 -0.909378 0
M  V30 2655 C 258.318 -2.59615 2.45631 0
M  V30 2656 C 257.984 -2.2407 3.91284 0
M  V30 2657 C 256.646 -2.14089 4.30952 0
M  V30 2658 C 258.998 -1.95775 4.83034 0
M  V30 2659 C 256.326 -1.73981 5.6031 0
M  V30 2660 C 258.678 -1.57163 6.12766 0
M  V30 2661 C 257.342 -1.45713 6.51402 0
M  V30 2662 H 256.612 -0.513741 0.533995 0
M  V30 2663 H 259.259 -0.731724 1.76969 0
M  V30 2664 H 257.564 -3.32011 2.08028 0
M  V30 2665 H 259.261 -3.17834 2.44504 0
M  V30 2666 H 255.851 -2.32753 3.59895 0
M  V30 2667 H 260.035 -2.02403 4.53152 0
M  V30 2668 H 255.291 -1.63709 5.89075 0
M  V30 2669 H 259.465 -1.34303 6.83327 0
M  V30 2670 H 257.092 -1.14406 7.51542 0
M  V30 2671 N 258.668 -1.30515 -0.883378 0
M  V30 2672 C 259.893 -1.22487 -1.67367 0
M  V30 2673 C 260.318 0.208767 -1.86938 0
M  V30 2674 O 259.676 1.15015 -1.40148 0
M  V30 2675 C 259.724 -1.96041 -3.02655 0
M  V30 2676 O 258.828 -1.28859 -3.91751 0
M  V30 2677 H 258.169 -0.423573 -0.511353 0
M  V30 2678 H 260.699 -1.72362 -1.10239 0
M  V30 2679 H 260.709 -2.05124 -3.52687 0
M  V30 2680 H 259.384 -3.00307 -2.8773 0
M  V30 2681 H 257.961 -1.28141 -3.50192 0
M  V30 2682 N 260.146 1.09593 -1.13257 0
M  V30 2683 C 261.374 1.855 -0.916378 0
M  V30 2684 C 261.789 1.81069 0.534738 0
M  V30 2685 O 261.146 1.20562 1.37007 0
M  V30 2686 C 261.197 3.33546 -1.39388 0
M  V30 2687 O 260.918 3.37927 -2.78813 0
M  V30 2688 C 262.419 4.26299 -1.21588 0
M  V30 2689 H 259.639 0.585991 -0.326887 0
M  V30 2690 H 262.183 1.38488 -1.5047 0
M  V30 2691 H 260.338 3.77992 -0.848597 0
M  V30 2692 H 260.752 4.30254 -2.9997 0
M  V30 2693 H 262.226 5.28341 -1.59876 0
M  V30 2694 H 262.703 4.38918 -0.157376 0
M  V30 2695 H 263.309 3.87668 -1.7491 0
M  V30 2696 N 261.624 0.925811 1.2754 0
M  V30 2697 C 262.554 0.440748 2.29303 0
M  V30 2698 C 263.535 -0.497971 1.62648 0
M  V30 2699 O 264.72 -0.403126 1.8997 0
M  V30 2700 C 261.85 -0.309048 3.45922 0
M  V30 2701 C 260.804 0.54166 4.24559 0
M  V30 2702 C 260.13 -0.337191 5.33636 0
M  V30 2703 C 261.43 1.80516 4.90114 0
M  V30 2704 H 263.124 1.29121 2.70126 0
M  V30 2705 H 260.67 0.622323 1.29858 0
M  V30 2706 H 262.623 -0.659315 4.1621 0
M  V30 2707 H 261.347 -1.19352 3.04011 0
M  V30 2708 H 260.006 0.874609 3.56014 0
M  V30 2709 H 259.654 -1.22056 4.87966 0
M  V30 2710 H 259.354 0.228497 5.87156 0
M  V30 2711 H 260.878 -0.683072 6.06767 0
M  V30 2712 H 262.292 1.52307 5.52698 0
M  V30 2713 H 260.689 2.3142 5.53683 0
M  V30 2714 H 261.759 2.52581 4.13921 0
M  V30 2715 N 263.102 -1.41638 0.69111 0
M  V30 2716 C 264.349 -2.01299 0.220193 0
M  V30 2717 C 264.677 -1.54715 -1.17871 0
M  V30 2718 O 263.932 -0.747193 -1.80874 0
M  V30 2719 C 264.231 -3.56714 0.221277 0
M  V30 2720 C 263.897 -4.22792 1.56709 0
M  V30 2721 C 262.559 -4.40557 1.93554 0
M  V30 2722 C 264.911 -4.59883 2.45268 0
M  V30 2723 C 262.239 -4.92688 3.18552 0
M  V30 2724 C 264.591 -5.13403 3.69595 0
M  V30 2725 C 263.255 -5.29379 4.06589 0
M  V30 2726 H 262.525 -0.736606 0.0805743 0
M  V30 2727 H 265.172 -1.69598 0.889319 0
M  V30 2728 H 263.477 -3.8818 -0.531391 0
M  V30 2729 H 265.174 -4.00678 -0.160547 0
M  V30 2730 H 261.764 -4.09336 1.2705 0
M  V30 2731 H 265.948 -4.45817 2.18084 0
M  V30 2732 H 261.204 -5.03242 3.47214 0
M  V30 2733 H 265.378 -5.41084 4.38407 0
M  V30 2734 H 263.005 -5.69537 5.03519 0
M  V30 2735 N 264.58 -0.43555 -1.51462 0
M  V30 2736 C 265.829 0.133007 -2.01261 0
M  V30 2737 C 266.142 1.43942 -1.32439 0
M  V30 2738 O 267.348 2.09081 -1.73198 0
M  V30 2739 C 265.804 0.287581 -3.58749 0
M  V30 2740 C 265.412 -1.00829 -4.36506 0
M  V30 2741 C 267.156 0.810004 -4.167 0
M  V30 2742 C 265.063 -0.819454 -5.85695 0
M  V30 2743 H 263.993 0.0534822 -0.752101 0
M  V30 2744 H 266.644 -0.565038 -1.74584 0
M  V30 2745 H 265.026 1.04859 -3.81865 0
M  V30 2746 H 266.2 -1.77749 -4.25138 0
M  V30 2747 H 264.515 -1.45911 -3.89999 0
M  V30 2748 H 267.112 0.967743 -5.2587 0
M  V30 2749 H 267.455 1.79196 -3.75758 0
M  V30 2750 H 267.988 0.107357 -3.97655 0
M  V30 2751 H 264.727 -1.77374 -6.31046 0
M  V30 2752 H 264.247 -0.0900208 -5.99732 0
M  V30 2753 H 265.926 -0.471949 -6.45276 0
M  V30 2754 N 266.058 1.56714 -0.166846 0
M  V30 2755 C 267.021 2.16539 0.751232 0
M  V30 2756 C 268.021 1.11228 1.16125 0
M  V30 2757 O 269.211 1.36765 1.07894 0
M  V30 2758 C 266.343 2.74462 2.02196 0
M  V30 2759 H 267.536 2.99013 0.230499 0
M  V30 2760 H 265.089 1.56081 0.0826982 0
M  V30 2761 H 265.824 1.95709 2.58589 0
M  V30 2762 H 265.609 3.51527 1.73698 0
M  V30 2763 H 267.099 3.20489 2.67725 0
M  V30 2764 N 267.536 -0.106894 1.57237 0
M  V30 2765 C 268.766 -0.825191 1.89405 0
M  V30 2766 C 269.174 -1.73374 0.757496 0
M  V30 2767 O 268.517 -1.81552 -0.280115 0
M  V30 2768 C 268.579 -1.70102 3.1671 0
M  V30 2769 C 268.243 -0.965523 4.46684 0
M  V30 2770 C 269.24 -0.300741 5.19029 0
M  V30 2771 C 266.925 -0.943105 4.93367 0
M  V30 2772 C 268.919 0.376622 6.36286 0
M  V30 2773 C 266.606 -0.261949 6.10538 0
M  V30 2774 C 267.604 0.396748 6.81847 0
M  V30 2775 O 267.292 1.06701 7.96787 0
M  V30 2776 H 267.024 -0.241852 0.631255 0
M  V30 2777 H 269.578 -0.0921491 2.05193 0
M  V30 2778 H 267.808 -2.47601 2.97036 0
M  V30 2779 H 269.497 -2.29483 3.34802 0
M  V30 2780 H 270.263 -0.309599 4.84011 0
M  V30 2781 H 266.142 -1.44524 4.3776 0
M  V30 2782 H 269.686 0.891334 6.91882 0
M  V30 2783 H 265.583 -0.250896 6.45012 0
M  V30 2784 H 266.351 0.972707 8.127 0
M  V30 2785 N 269.014 -1.53014 -0.377408 0
M  V30 2786 C 270.244 -1.72265 -1.14054 0
M  V30 2787 C 270.652 -0.44601 -1.83868 0
M  V30 2788 O 269.995 0.590095 -1.73964 0
M  V30 2789 C 270.057 -2.82492 -2.22348 0
M  V30 2790 C 269.721 -4.23233 -1.72402 0
M  V30 2791 C 270.718 -5.05992 -1.19448 0
M  V30 2792 C 268.403 -4.696 -1.78273 0
M  V30 2793 C 270.397 -6.33203 -0.730268 0
M  V30 2794 C 268.084 -5.96792 -1.31464 0
M  V30 2795 C 269.082 -6.78424 -0.789297 0
M  V30 2796 O 268.77 -8.0323 -0.328077 0
M  V30 2797 H 268.502 -0.579873 -0.347453 0
M  V30 2798 H 271.056 -2.00502 -0.445882 0
M  V30 2799 H 269.286 -2.49702 -2.95272 0
M  V30 2800 H 270.975 -2.90034 -2.83963 0
M  V30 2801 H 271.741 -4.71349 -1.14259 0
M  V30 2802 H 267.62 -4.06142 -2.18106 0
M  V30 2803 H 271.164 -6.96868 -0.319542 0
M  V30 2804 H 267.061 -6.30937 -1.36342 0
M  V30 2805 H 267.829 -8.1727 -0.448493 0
M  V30 2806 N 270.492 0.636531 -1.44174 0
M  V30 2807 C 271.769 1.39463 -1.37148 0
M  V30 2808 C 272.149 2.11082 -0.027507 0
M  V30 2809 O 271.497 2.05954 0.989716 0
M  V30 2810 C 271.707 2.36552 -2.56601 0
M  V30 2811 C 273.055 3.00048 -3.00427 0
M  V30 2812 O 274.079 2.46878 -2.56767 0
M  V30 2813 O 272.938 3.96488 -3.76111 0
M  V30 2814 H 270.032 0.623903 -0.542839 0
M  V30 2815 H 272.578 0.662039 -1.56253 0
M  V30 2816 H 271.35 1.82692 -3.46034 0
M  V30 2817 H 270.973 3.17236 -2.39681 0
M  V30 2818 N 271.97 1.30982 0.876444 0
M  V30 2819 C 272.92 1.14688 1.97055 0
M  V30 2820 C 273.904 0.0596593 1.60789 0
M  V30 2821 O 275.096 0.283892 1.74708 0
M  V30 2822 C 272.225 0.849627 3.3262 0
M  V30 2823 C 271.311 1.97752 3.75173 0
M  V30 2824 N 271.702 3.22384 3.89746 0
M  V30 2825 C 270 1.8758 4.04635 0
M  V30 2826 C 270.701 3.96121 4.25985 0
M  V30 2827 N 269.677 3.24237 4.36315 0
M  V30 2828 H 273.479 2.09204 2.06424 0
M  V30 2829 H 270.993 1.22445 1.06682 0
M  V30 2830 H 272.99 0.713895 4.10742 0
M  V30 2831 H 271.65 -0.087376 3.24582 0
M  V30 2832 H 272.661 3.57575 3.74647 0
M  V30 2833 H 269.338 1.01303 4.05024 0
M  V30 2834 H 270.728 5.03491 4.44911 0
M  V30 2835 N 273.449 -1.08991 1.13837 0
M  V30 2836 C 274.695 -1.81526 0.90422 0
M  V30 2837 C 275.028 -1.85706 -0.568066 0
M  V30 2838 O 274.303 -1.32855 -1.42056 0
M  V30 2839 C 274.586 -3.27447 1.49835 0
M  V30 2840 C 274.439 -3.31512 3.04006 0
M  V30 2841 C 275.758 -4.24256 1.17025 0
M  V30 2842 H 272.877 -0.659029 0.329923 0
M  V30 2843 H 275.519 -1.27644 1.40737 0
M  V30 2844 H 273.669 -3.73462 1.07044 0
M  V30 2845 H 275.341 -2.93867 3.55584 0
M  V30 2846 H 273.584 -2.70963 3.38765 0
M  V30 2847 H 274.255 -4.34329 3.40679 0
M  V30 2848 H 276.731 -3.86549 1.54009 0
M  V30 2849 H 275.607 -5.24684 1.61237 0
M  V30 2850 H 275.868 -4.42019 0.0846274 0
M  V30 2851 N 274.927 -0.932562 -1.27047 0
M  V30 2852 C 275.89 -0.440064 -2.24936 0
M  V30 2853 C 276.89 0.444071 -1.54547 0
M  V30 2854 O 278.08 0.244465 -1.72476 0
M  V30 2855 C 275.212 0.36678 -3.38921 0
M  V30 2856 H 276.405 -1.305 -2.70018 0
M  V30 2857 H 273.958 -0.713707 -1.39054 0
M  V30 2858 H 274.693 1.25033 -2.99228 0
M  V30 2859 H 274.478 -0.267204 -3.91188 0
M  V30 2860 H 275.968 0.701567 -4.11665 0
M  V30 2861 N 276.405 1.4127 -0.698611 0
M  V30 2862 C 277.651 2.01478 -0.231207 0
M  V30 2863 C 277.984 1.55215 1.16713 0
M  V30 2864 O 277.259 0.764672 1.78838 0
M  V30 2865 C 277.542 3.58912 -0.292281 0
M  V30 2866 C 277.395 4.15293 -1.72778 0
M  V30 2867 C 278.714 4.38736 0.346194 0
M  V30 2868 H 275.833 0.732025 -0.0854878 0
M  V30 2869 H 278.475 1.67977 -0.887906 0
M  V30 2870 H 276.625 3.87582 0.26686 0
M  V30 2871 H 278.297 3.97486 -2.341 0
M  V30 2872 H 276.54 3.7022 -2.26096 0
M  V30 2873 H 277.211 5.24452 -1.72202 0
M  V30 2874 H 279.687 4.15897 -0.130035 0
M  V30 2875 H 278.563 5.48221 0.272932 0
M  V30 2876 H 278.824 4.18425 1.42734 0
M  V30 2877 N 277.883 0.443576 1.51229 0
M  V30 2878 C 278.813 -0.355142 2.30783 0
M  V30 2879 C 279.794 -1.0154 1.36468 0
M  V30 2880 O 280.979 -1.01785 1.65389 0
M  V30 2881 C 278.109 -1.45312 3.15439 0
M  V30 2882 C 277.063 -0.916002 4.18083 0
M  V30 2883 C 276.389 -2.1102 4.91299 0
M  V30 2884 C 277.689 0.0538602 5.22272 0
M  V30 2885 H 279.383 0.308767 2.97804 0
M  V30 2886 H 276.929 0.149937 1.43217 0
M  V30 2887 H 278.882 -2.01914 3.69876 0
M  V30 2888 H 277.606 -2.14541 2.46252 0
M  V30 2889 H 276.265 -0.372145 3.64706 0
M  V30 2890 H 275.913 -2.78882 4.18609 0
M  V30 2891 H 275.613 -1.75717 5.60712 0
M  V30 2892 H 277.137 -2.68164 5.48562 0
M  V30 2893 H 278.551 -0.422069 5.71744 0
M  V30 2894 H 276.948 0.319776 5.99247 0
M  V30 2895 H 278.018 0.98858 4.74716 0
M  V30 2896 N 279.361 -1.56624 0.175154 0
M  V30 2897 C 280.291 -2.21155 -0.749195 0
M  V30 2898 C 281.272 -1.16836 -1.23626 0
M  V30 2899 O 282.457 -1.45277 -1.28873 0
M  V30 2900 C 279.587 -2.8553 -1.97711 0
M  V30 2901 C 278.541 -3.95921 -1.62575 0
M  V30 2902 C 277.867 -4.47365 -2.92864 0
M  V30 2903 C 279.167 -5.15323 -0.850838 0
M  V30 2904 H 280.861 -2.98653 -0.211295 0
M  V30 2905 H 278.407 -1.43651 -0.100188 0
M  V30 2906 H 280.36 -3.2935 -2.62881 0
M  V30 2907 H 279.084 -2.05406 -2.53921 0
M  V30 2908 H 277.743 -3.52762 -0.997719 0
M  V30 2909 H 277.391 -3.64027 -3.47122 0
M  V30 2910 H 277.091 -5.21839 -2.70106 0
M  V30 2911 H 278.615 -4.93873 -3.59056 0
M  V30 2912 H 280.029 -5.55812 -1.40521 0
M  V30 2913 H 278.426 -5.95739 -0.722154 0
M  V30 2914 H 279.496 -4.84661 0.152082 0
M  V30 2915 N 280.839 0.0985539 -1.57292 0
M  V30 2916 C 282.079 0.808332 -1.87737 0
M  V30 2917 C 282.443 1.7607 -0.76572 0
M  V30 2918 O 283.644 2.51358 -0.952499 0
M  V30 2919 C 281.915 1.52093 -3.23423 0
M  V30 2920 S 283.474 2.26947 -3.75554 0
M  V30 2921 H 280.292 0.269377 -0.657995 0
M  V30 2922 H 282.894 0.0656269 -1.9539 0
M  V30 2923 H 281.598 0.81363 -4.02254 0
M  V30 2924 H 281.129 2.30361 -3.189 0
M  V30 2925 H 283.144 3.53027 -3.48692 0
M  V30 2926 N 282.317 1.53212 0.369288 0
M  V30 2927 C 283.247 1.82365 1.45826 0
M  V30 2928 C 284.228 0.676907 1.56051 0
M  V30 2929 O 285.413 0.926401 1.70679 0
M  V30 2930 C 282.543 2.01023 2.83208 0
M  V30 2931 C 281.497 3.1678 2.8781 0
M  V30 2932 C 280.823 3.20724 4.27832 0
M  V30 2933 C 282.123 4.55447 2.55667 0
M  V30 2934 H 283.817 2.73559 1.21678 0
M  V30 2935 H 281.363 1.3163 0.583911 0
M  V30 2936 H 283.316 2.20001 3.59413 0
M  V30 2937 H 282.04 1.06536 3.08736 0
M  V30 2938 H 280.699 2.97616 2.14056 0
M  V30 2939 H 280.347 2.23882 4.50429 0
M  V30 2940 H 280.047 3.98496 4.31827 0
M  V30 2941 H 281.571 3.41881 5.05915 0
M  V30 2942 H 282.985 4.74611 3.21586 0
M  V30 2943 H 281.382 5.35432 2.70984 0
M  V30 2944 H 282.452 4.60812 1.5093 0
M  V30 2945 N 283.795 -0.628877 1.44509 0
M  V30 2946 C 285.041 -1.39045 1.47629 0
M  V30 2947 C 285.374 -1.93892 0.109343 0
M  V30 2948 O 284.649 -1.7379 -0.87334 0
M  V30 2949 C 284.932 -2.55408 2.53848 0
M  V30 2950 C 284.785 -2.05896 3.99909 0
M  V30 2951 C 286.104 -3.5759 2.56549 0
M  V30 2952 H 283.223 -0.504232 0.537512 0
M  V30 2953 H 285.865 -0.710854 1.76201 0
M  V30 2954 H 284.015 -3.13384 2.29615 0
M  V30 2955 H 285.687 -1.52734 4.35282 0
M  V30 2956 H 283.93 -1.37061 4.11578 0
M  V30 2957 H 284.601 -2.89681 4.69882 0
M  V30 2958 H 287.077 -3.09419 2.78207 0
M  V30 2959 H 285.953 -4.36527 3.32769 0
M  V30 2960 H 286.214 -4.11808 1.60832 0
M  V30 2961 N 285.273 -1.31445 -0.869486 0
M  V30 2962 C 286.519 -1.21337 -1.62496 0
M  V30 2963 C 286.852 0.227872 -1.92858 0
M  V30 2964 O 286.127 1.16094 -1.56053 0
M  V30 2965 C 286.41 -2.05814 -2.95487 0
M  V30 2966 C 286.263 -3.5824 -2.72 0
M  V30 2967 C 287.582 -1.9079 -3.96594 0
M  V30 2968 H 284.701 -0.442135 -0.589649 0
M  V30 2969 H 287.343 -1.6124 -1.00507 0
M  V30 2970 H 285.493 -1.71913 -3.48394 0
M  V30 2971 H 287.165 -4.0228 -2.25762 0
M  V30 2972 H 285.408 -3.81647 -2.06224 0
M  V30 2973 H 286.079 -4.12657 -3.66631 0
M  V30 2974 H 288.555 -2.20459 -3.52898 0
M  V30 2975 H 287.431 -2.52199 -4.87531 0
M  V30 2976 H 287.692 -0.871341 -4.33428 0
M  V30 2977 N 286.751 1.08385 -1.14413 0
M  V30 2978 C 287.998 1.80776 -0.912482 0
M  V30 2979 C 288.326 1.86236 0.560934 0
M  V30 2980 O 287.581 1.33431 1.43159 0
M  V30 2981 C 287.88 3.26273 -1.45879 0
M  V30 2982 C 287.546 3.4093 -2.95089 0
M  V30 2983 C 286.208 3.44638 -3.35824 0
M  V30 2984 C 288.56 3.44591 -3.91033 0
M  V30 2985 C 285.888 3.49597 -4.71167 0
M  V30 2986 C 288.24 3.51086 -5.26233 0
M  V30 2987 C 286.904 3.53067 -5.6648 0
M  V30 2988 H 286.174 0.661507 -0.333901 0
M  V30 2989 H 288.821 1.27613 -1.42784 0
M  V30 2990 H 287.126 3.82146 -0.864376 0
M  V30 2991 H 288.823 3.80839 -1.2555 0
M  V30 2992 H 285.413 3.38736 -2.62594 0
M  V30 2993 H 289.597 3.40957 -3.60641 0
M  V30 2994 H 284.853 3.49424 -5.0171 0
M  V30 2995 H 289.027 3.52864 -6.00383 0
M  V30 2996 H 286.654 3.56662 -6.71339 0
M  V30 2997 N 288.23 0.939286 1.26551 0
M  V30 2998 C 289.477 0.585847 1.9384 0
M  V30 2999 C 289.805 -0.874784 1.73718 0
M  V30 3000 O 289.06 -1.64092 1.06642 0
M  V30 3001 C 289.359 0.872106 3.46596 0
M  V30 3002 C 289.025 2.31632 3.86856 0
M  V30 3003 C 287.687 2.71111 3.97558 0
M  V30 3004 C 290.039 3.25494 4.07066 0
M  V30 3005 C 287.367 4.03553 4.25866 0
M  V30 3006 C 289.719 4.57531 4.36862 0
M  V30 3007 C 288.383 4.96828 4.45778 0
M  V30 3008 H 287.653 0.214377 0.709312 0
M  V30 3009 H 290.3 1.18544 1.50398 0
M  V30 3010 H 288.605 0.18996 3.91339 0
M  V30 3011 H 290.302 0.577442 3.96821 0
M  V30 3012 H 286.892 2.00008 3.79071 0
M  V30 3013 H 291.076 2.9619 3.98227 0
M  V30 3014 H 286.332 4.33665 4.30981 0
M  V30 3015 H 290.506 5.30254 4.51446 0
M  V30 3016 H 288.133 5.99482 4.67468 0
M  V30 3017 N 289.708 -1.40897 0.706093 0
M  V30 3018 C 290.638 -2.33418 0.0620085 0
M  V30 3019 C 291.619 -1.52385 -0.755827 0
M  V30 3020 O 292.804 -1.80886 -0.706674 0
M  V30 3021 C 289.934 -3.36293 -0.867445 0
M  V30 3022 C 288.888 -4.27716 -0.155932 0
M  V30 3023 C 288.214 -5.2105 -1.20046 0
M  V30 3024 C 289.514 -5.12944 0.984149 0
M  V30 3025 H 291.208 -2.87527 0.83477 0
M  V30 3026 H 288.754 -1.38249 0.402875 0
M  V30 3027 H 290.707 -3.99949 -1.32735 0
M  V30 3028 H 289.431 -2.80556 -1.67199 0
M  V30 3029 H 288.09 -3.65498 0.284047 0
M  V30 3030 H 287.738 -4.61624 -1.99781 0
M  V30 3031 H 287.438 -5.83056 -0.729328 0
M  V30 3032 H 288.962 -5.87584 -1.66066 0
M  V30 3033 H 290.376 -5.70109 0.604048 0
M  V30 3034 H 288.773 -5.83945 1.38304 0
M  V30 3035 H 289.843 -4.49485 1.81911 0
M  V30 3036 N 291.186 -0.45159 -1.50991 0
M  V30 3037 C 292.149 0.341117 -2.26647 0
M  V30 3038 C 293.149 0.937422 -1.30649 0
M  V30 3039 O 294.339 0.809644 -1.54241 0
M  V30 3040 C 291.471 1.48398 -3.06905 0
M  V30 3041 H 292.664 -0.322117 -2.98165 0
M  V30 3042 H 290.217 -0.205122 -1.54948 0
M  V30 3043 H 290.952 2.18284 -2.39838 0
M  V30 3044 H 290.737 1.06241 -3.77432 0
M  V30 3045 H 292.227 2.04367 -3.64176 0
M  V30 3046 N 292.664 1.56529 -0.183458 0
M  V30 3047 C 293.597 2.14417 0.781052 0
M  V30 3048 C 294.575 1.07761 1.21763 0
M  V30 3049 O 295.759 1.35807 1.30724 0
M  V30 3050 C 292.886 2.69361 2.05335 0
M  V30 3051 C 291.932 3.885 1.75982 0
M  V30 3052 S 292.765 5.27568 0.918256 0
M  V30 3053 C 293.921 5.85926 2.20095 0
M  V30 3054 H 294.154 2.95893 0.2889 0
M  V30 3055 H 291.687 1.54368 0.0313844 0
M  V30 3056 H 293.645 3.01662 2.78406 0
M  V30 3057 H 292.306 1.87949 2.51663 0
M  V30 3058 H 291.499 4.25314 2.70415 0
M  V30 3059 H 291.101 3.57149 1.10999 0
M  V30 3060 H 293.393 5.99579 3.15453 0
M  V30 3061 H 294.336 6.82761 1.87731 0
M  V30 3062 H 294.744 5.14438 2.32409 0
M  V30 3063 N 294.142 -0.090211 1.57342 0
M  V30 3064 C 295.072 -1.10976 2.05443 0
M  V30 3065 C 296.053 -1.41482 0.944284 0
M  V30 3066 O 297.238 -1.51428 1.21586 0
M  V30 3067 C 294.368 -2.42831 2.48295 0
M  V30 3068 C 293.322 -2.26721 3.63018 0
M  V30 3069 C 292.648 -3.63796 3.91863 0
M  V30 3070 C 293.948 -1.7037 4.93732 0
M  V30 3071 H 295.642 -0.709564 2.9087 0
M  V30 3072 H 293.188 -0.339874 1.39932 0
M  V30 3073 H 295.141 -3.14431 2.80555 0
M  V30 3074 H 293.865 -2.84795 1.59873 0
M  V30 3075 H 292.524 -1.57565 3.31012 0
M  V30 3076 H 292.172 -4.03297 3.00601 0
M  V30 3077 H 291.872 -3.53861 4.69101 0
M  V30 3078 H 293.396 -4.36855 4.26603 0
M  V30 3079 H 294.81 -2.31816 5.24342 0
M  V30 3080 H 293.207 -1.71181 5.75167 0
M  V30 3081 H 294.277 -0.663542 4.80339 0
M  V30 3082 N 295.62 -1.53406 -0.361157 0
M  V30 3083 C 296.866 -1.70054 -1.10496 0
M  V30 3084 C 297.199 -0.453278 -1.88836 0
M  V30 3085 O 296.474 0.5495 -1.86576 0
M  V30 3086 C 296.757 -2.95317 -2.06058 0
M  V30 3087 C 296.61 -4.3021 -1.31298 0
M  V30 3088 C 297.929 -3.16193 -3.06121 0
M  V30 3089 H 295.048 -0.618799 -0.400321 0
M  V30 3090 H 297.69 -1.86052 -0.385318 0
M  V30 3091 H 295.84 -2.81809 -2.67425 0
M  V30 3092 H 297.512 -4.55538 -0.726807 0
M  V30 3093 H 295.755 -4.29421 -0.614853 0
M  V30 3094 H 296.426 -5.14 -2.01265 0
M  V30 3095 H 298.902 -3.28916 -2.5486 0
M  V30 3096 H 297.778 -4.05266 -3.70204 0
M  V30 3097 H 298.039 -2.31676 -3.76535 0
M  V30 3098 N 297.098 0.621204 -1.44841 0
M  V30 3099 C 298.028 1.74366 -1.55303 0
M  V30 3100 C 299.009 1.65199 -0.405385 0
M  V30 3101 O 300.194 1.83807 -0.626787 0
M  V30 3102 C 297.324 3.12931 -1.50637 0
M  V30 3103 C 296.278 3.36896 -2.63979 0
M  V30 3104 C 295.604 4.75594 -2.44366 0
M  V30 3105 C 296.904 3.28483 -4.06074 0
M  V30 3106 H 298.598 1.65867 -2.49256 0
M  V30 3107 H 296.144 0.796558 -1.19962 0
M  V30 3108 H 298.097 3.9124 -1.56555 0
M  V30 3109 H 296.821 3.22237 -0.532057 0
M  V30 3110 H 295.48 2.60972 -2.57467 0
M  V30 3111 H 295.128 4.81616 -1.45105 0
M  V30 3112 H 294.828 4.92586 -3.20364 0
M  V30 3113 H 296.352 5.5612 -2.52117 0
M  V30 3114 H 297.766 3.96684 -4.13902 0
M  V30 3115 H 296.163 3.57008 -4.82354 0
M  V30 3116 H 297.233 2.26133 -4.28943 0
M  V30 3117 N 298.576 1.31904 0.862503 0
M  V30 3118 C 299.509 1.14514 1.97388 0
M  V30 3119 C 300.487 0.0466493 1.62533 0
M  V30 3120 O 301.671 0.204484 1.87388 0
M  V30 3121 C 298.798 0.751347 3.30261 0
M  V30 3122 C 297.844 1.85395 3.84098 0
M  V30 3123 S 298.677 3.46081 4.08642 0
M  V30 3124 C 299.833 3.08655 5.44502 0
M  V30 3125 H 300.066 2.08597 2.11836 0
M  V30 3126 H 297.599 1.16475 1.01356 0
M  V30 3127 H 299.557 0.530901 4.07052 0
M  V30 3128 H 298.218 -0.170493 3.13637 0
M  V30 3129 H 297.411 1.53122 4.80177 0
M  V30 3130 H 297.013 2.02984 3.14123 0
M  V30 3131 H 299.305 2.58012 6.26447 0
M  V30 3132 H 300.248 4.03726 5.81731 0
M  V30 3133 H 300.656 2.45891 5.08132 0
M  V30 3134 N 300.054 -1.07777 1.14986 0
M  V30 3135 C 301.017 -2.13041 0.845358 0
M  V30 3136 C 302.017 -1.60071 -0.152931 0
M  V30 3137 O 303.207 -1.74033 0.0761879 0
M  V30 3138 C 300.339 -3.39896 0.261383 0
M  V30 3139 H 301.532 -2.41485 1.77834 0
M  V30 3140 H 299.085 -1.23595 0.956757 0
M  V30 3141 H 299.82 -3.17091 -0.68 0
M  V30 3142 H 299.605 -3.79642 0.980514 0
M  V30 3143 H 301.095 -4.17548 0.0657687 0
M  V30 3144 N 301.532 -0.945985 -1.26051 0
M  V30 3145 C 302.778 -0.597002 -1.93814 0
M  V30 3146 C 303.111 0.862484 -1.73997 0
M  V30 3147 O 302.386 1.61769 -1.07986 0
M  V30 3148 C 302.669 -0.945937 -3.47454 0
M  V30 3149 C 302.522 -2.46052 -3.76535 0
M  V30 3150 C 303.841 -0.464785 -4.37639 0
M  V30 3151 H 300.96 -0.218366 -0.703907 0
M  V30 3152 H 303.602 -1.18107 -1.48831 0
M  V30 3153 H 301.752 -0.448902 -3.85898 0
M  V30 3154 H 303.424 -3.03065 -3.47778 0
M  V30 3155 H 301.667 -2.90194 -3.22444 0
M  V30 3156 H 302.338 -2.65517 -4.83947 0
M  V30 3157 H 304.814 -0.891016 -4.06448 0
M  V30 3158 H 303.69 -0.737712 -5.4392 0
M  V30 3159 H 303.951 0.635274 -4.37512 0
M  V30 3160 N 303.011 1.40521 -0.713556 0
M  V30 3161 C 303.941 2.33381 -0.0743864 0
M  V30 3162 C 304.922 1.52784 0.747735 0
M  V30 3163 O 306.107 1.81258 0.697071 0
M  V30 3164 C 303.237 3.36748 0.849598 0
M  V30 3165 C 302.191 4.27793 0.133247 0
M  V30 3166 C 301.517 5.21679 1.17281 0
M  V30 3167 C 302.817 5.12415 -1.01134 0
M  V30 3168 H 304.511 2.87081 -0.850007 0
M  V30 3169 H 302.057 1.38034 -0.410201 0
M  V30 3170 H 304.01 4.00648 1.30612 0
M  V30 3171 H 302.734 2.81439 1.65709 0
M  V30 3172 H 301.393 3.65342 -0.303426 0
M  V30 3173 H 301.041 4.62677 1.9733 0
M  V30 3174 H 300.741 5.83435 0.698397 0
M  V30 3175 H 302.265 5.88456 1.62947 0
M  V30 3176 H 303.679 5.69781 -0.634274 0
M  V30 3177 H 302.076 5.83203 -1.41399 0
M  V30 3178 H 303.146 4.48514 -1.84292 0
M  V30 3179 N 304.489 0.459591 1.5075 0
M  V30 3180 C 305.719 -0.0972338 2.06371 0
M  V30 3181 C 306.127 -1.35074 1.32483 0
M  V30 3182 O 305.47 -1.79637 0.384226 0
M  V30 3183 C 305.532 -0.462759 3.56509 0
M  V30 3184 C 305.196 0.687084 4.51805 0
M  V30 3185 C 306.193 1.56578 4.95761 0
M  V30 3186 C 303.878 0.874144 4.94635 0
M  V30 3187 C 305.872 2.61604 5.81242 0
M  V30 3188 C 303.559 1.92765 5.79901 0
M  V30 3189 C 304.557 2.79697 6.23104 0
M  V30 3190 O 304.245 3.83235 7.06673 0
M  V30 3191 H 303.977 -0.00140687 0.675999 0
M  V30 3192 H 306.531 0.644011 1.95043 0
M  V30 3193 H 304.761 -1.25703 3.65699 0
M  V30 3194 H 306.45 -0.953323 3.94546 0
M  V30 3195 H 307.216 1.4329 4.6335 0
M  V30 3196 H 303.095 0.207006 4.60535 0
M  V30 3197 H 306.639 3.29489 6.14884 0
M  V30 3198 H 302.536 2.06064 6.11725 0
M  V30 3199 H 303.304 3.80084 7.24899 0
M  V30 3200 N 305.967 -1.56429 0.191757 0
M  V30 3201 C 307.213 -1.97777 -0.448554 0
M  V30 3202 C 307.546 -1.07847 -1.61501 0
M  V30 3203 O 306.821 -0.129774 -1.94067 0
M  V30 3204 C 307.104 -3.48362 -0.911906 0
M  V30 3205 C 306.957 -4.4907 0.256136 0
M  V30 3206 C 308.276 -4.02561 -1.77857 0
M  V30 3207 H 305.395 -0.719071 -0.161572 0
M  V30 3208 H 308.037 -1.87896 0.282007 0
M  V30 3209 H 306.187 -3.56914 -1.53442 0
M  V30 3210 H 307.859 -4.5256 0.893733 0
M  V30 3211 H 306.102 -4.24181 0.908436 0
M  V30 3212 H 306.773 -5.51889 -0.11053 0
M  V30 3213 H 309.249 -3.96767 -1.25359 0
M  V30 3214 H 308.125 -5.08301 -2.07174 0
M  V30 3215 H 308.386 -3.47616 -2.73158 0
M  V30 3216 N 307.445 0.0818655 -1.57387 0
M  V30 3217 C 308.395 1.10501 -1.99433 0
M  V30 3218 C 309.379 1.35041 -0.874798 0
M  V30 3219 O 310.571 1.35511 -1.13868 0
M  V30 3220 C 307.7 2.42159 -2.43339 0
M  V30 3221 C 306.786 2.20937 -3.62005 0
M  V30 3222 N 307.177 1.69616 -4.76512 0
M  V30 3223 C 305.475 2.51451 -3.68359 0
M  V30 3224 C 306.176 1.62973 -5.58404 0
M  V30 3225 N 305.152 2.08664 -5.01956 0
M  V30 3226 H 308.954 0.701373 -2.85408 0
M  V30 3227 H 306.468 0.289096 -1.59806 0
M  V30 3228 H 308.465 3.16208 -2.71695 0
M  V30 3229 H 307.125 2.83249 -1.58746 0
M  V30 3230 H 308.136 1.38624 -4.99003 0
M  V30 3231 H 304.813 2.95975 -2.94457 0
M  V30 3232 H 306.203 1.24233 -6.60315 0
M  V30 3233 N 308.923 1.53595 0.353017 0
M  V30 3234 C 309.856 1.7572 1.45594 0
M  V30 3235 C 310.834 0.605961 1.50887 0
M  V30 3236 O 312.018 0.840023 1.68748 0
M  V30 3237 C 309.145 1.84732 2.83887 0
M  V30 3238 C 308.191 3.06808 2.96262 0
M  V30 3239 S 309.024 4.66065 2.63711 0
M  V30 3240 C 310.18 4.77943 4.04131 0
M  V30 3241 H 310.413 2.68994 1.26608 0
M  V30 3242 H 307.946 1.44343 0.548117 0
M  V30 3243 H 309.904 1.9061 3.63563 0
M  V30 3244 H 308.565 0.92488 3.00175 0
M  V30 3245 H 307.758 3.09761 3.97573 0
M  V30 3246 H 307.36 2.99108 2.24523 0
M  V30 3247 H 309.652 4.5877 4.98534 0
M  V30 3248 H 310.595 5.80022 4.06177 0
M  V30 3249 H 311.003 4.06472 3.91715 0
M  V30 3250 N 310.401 -0.613514 1.45168 0
M  V30 3251 C 311.331 -1.7354 1.56225 0
M  V30 3252 C 312.312 -1.64981 0.41414 0
M  V30 3253 O 313.497 -1.83472 0.636526 0
M  V30 3254 C 310.627 -3.12128 1.52295 0
M  V30 3255 C 309.581 -3.35491 2.65762 0
M  V30 3256 C 308.907 -4.74291 2.46885 0
M  V30 3257 C 310.207 -3.26325 4.0781 0
M  V30 3258 H 311.901 -1.64543 2.50132 0
M  V30 3259 H 309.447 -0.790185 1.20383 0
M  V30 3260 H 311.4 -3.90404 1.58628 0
M  V30 3261 H 310.124 -3.2195 0.549139 0
M  V30 3262 H 308.783 -2.59603 2.58847 0
M  V30 3263 H 308.431 -4.80839 1.47657 0
M  V30 3264 H 308.131 -4.9088 3.22972 0
M  V30 3265 H 309.655 -5.54775 2.55063 0
M  V30 3266 H 311.069 -3.94483 4.16 0
M  V30 3267 H 309.466 -3.54445 4.8424 0
M  V30 3268 H 310.536 -2.23855 4.30136 0
M  V30 3269 N 311.879 -1.3236 -0.855495 0
M  V30 3270 C 312.842 -1.21164 -1.94556 0
M  V30 3271 C 313.842 -0.134908 -1.60233 0
M  V30 3272 O 315.032 -0.385249 -1.69887 0
M  V30 3273 C 312.164 -0.863192 -3.29791 0
M  V30 3274 H 313.357 -2.18038 -2.05911 0
M  V30 3275 H 310.91 -1.16179 -1.04557 0
M  V30 3276 H 311.645 0.103769 -3.24134 0
M  V30 3277 H 311.43 -1.64166 -3.56078 0
M  V30 3278 H 312.92 -0.809156 -4.09686 0
M  V30 3279 N 313.357 1.07166 -1.15556 0
M  V30 3280 C 314.773 1.31899 -0.898603 0
M  V30 3281 C 314.973 1.96333 0.453383 0
M  V30 3282 O 314.029 2.22438 1.19489 0
M  V30 3283 C 315.342 2.20826 -2.04099 0
M  V30 3284 C 316.89 2.34269 -2.07574 0
M  V30 3285 C 317.365 3.26546 -3.21141 0
M  V30 3286 N 318.856 3.34127 -3.20801 0
M  V30 3287 C 319.591 4.05595 -4.05315 0
M  V30 3288 N 319.087 4.79661 -4.99897 0
M  V30 3289 N 320.88 4.01555 -3.93332 0
M  V30 3290 H 313.031 0.637302 -2.02613 0
M  V30 3291 H 315.294 0.343468 -0.883591 0
M  V30 3292 H 315 1.80744 -3.01703 0
M  V30 3293 H 314.874 3.21364 -1.97496 0
M  V30 3294 H 317.261 2.73603 -1.10568 0
M  V30 3295 H 317.342 1.33429 -2.18244 0
M  V30 3296 H 316.986 2.87931 -4.184 0
M  V30 3297 H 316.916 4.27345 -3.07708 0
M  V30 3298 H 319.407 2.81336 -2.52306 0
M  V30 3299 H 319.72 5.31694 -5.60822 0
M  V30 3300 H 318.065 4.78671 -5.03884 0
M  V30 3301 H 321.256 3.42806 -3.18751 0
M  V30 3302 H 321.429 4.56987 -4.5942 0
M  V30 3303 N 314.835 0.952656 1.25548 0
M  V30 3304 C 315.798 0.475794 2.24207 0
M  V30 3305 C 316.798 -0.419428 1.55234 0
M  V30 3306 O 317.988 -0.216994 1.72843 0
M  V30 3307 C 315.12 -0.312814 3.39462 0
M  V30 3308 H 316.313 1.34779 2.67908 0
M  V30 3309 H 313.866 0.735739 1.37901 0
M  V30 3310 H 314.601 -1.20257 3.01179 0
M  V30 3311 H 314.386 0.329404 3.90714 0
M  V30 3312 H 315.876 -0.635986 4.12729 0
M  V30 3313 N 316.313 -1.40141 0.720998 0
M  V30 3314 C 317.553 -2.02644 0.267335 0
M  V30 3315 C 317.917 -1.55948 -1.12001 0
M  V30 3316 O 319.118 -2.10552 -1.67097 0
M  V30 3317 C 317.389 -3.55679 0.350281 0
M  V30 3318 S 318.948 -4.38793 -0.0256004 0
M  V30 3319 H 315.766 -0.703105 0.105664 0
M  V30 3320 H 318.368 -1.71175 0.944416 0
M  V30 3321 H 317.072 -3.87157 1.36153 0
M  V30 3322 H 316.603 -3.91883 -0.345096 0
M  V30 3323 H 318.618 -4.803 -1.24604 0
M  V30 3324 N 317.792 -0.46758 -1.50504 0
M  V30 3325 C 318.724 0.364655 -2.26281 0
M  V30 3326 C 319.737 0.960151 -1.31472 0
M  V30 3327 O 320.926 0.849153 -1.57008 0
M  V30 3328 C 318.026 1.52509 -3.02645 0
M  V30 3329 C 317.199 1.04302 -4.24782 0
M  V30 3330 C 316.258 2.07709 -4.8347 0
M  V30 3331 O 315.284 1.65913 -5.44483 0
M  V30 3332 N 316.486 3.40485 -4.70159 0
M  V30 3333 H 319.251 -0.28495 -2.98342 0
M  V30 3334 H 316.812 -0.298163 -1.59131 0
M  V30 3335 H 318.804 2.21371 -3.38787 0
M  V30 3336 H 317.374 2.07945 -2.33404 0
M  V30 3337 H 316.594 0.180393 -3.93787 0
M  V30 3338 H 317.882 0.698798 -5.03978 0
M  V30 3339 H 317.28 3.77155 -4.21629 0
M  V30 3340 H 315.837 4.05156 -5.1058 0
M  V30 3341 N 319.27 1.56325 -0.20005 0
M  V30 3342 C 320.22 2.15939 0.731743 0
M  V30 3343 C 321.204 1.10154 1.17281 0
M  V30 3344 O 322.396 1.36203 1.13038 0
M  V30 3345 C 319.525 2.82614 1.94895 0
M  V30 3346 C 318.611 3.95596 1.52855 0
M  V30 3347 N 319.002 4.99118 0.819418 0
M  V30 3348 C 317.3 4.07288 1.81748 0
M  V30 3349 C 318.001 5.78513 0.608053 0
M  V30 3350 N 316.977 5.31117 1.15828 0
M  V30 3351 H 320.779 2.9334 0.181285 0
M  V30 3352 H 318.293 1.624 -0.000452172 0
M  V30 3353 H 320.29 3.23718 2.62702 0
M  V30 3354 H 318.95 2.06702 2.50408 0
M  V30 3355 H 319.961 5.15723 0.47436 0
M  V30 3356 H 316.638 3.42509 2.38734 0
M  V30 3357 H 318.028 6.71885 0.0451619 0
M  V30 3358 N 320.748 -0.0735177 1.57428 0
M  V30 3359 C 321.711 -1.07192 2.02589 0
M  V30 3360 C 322.711 -1.31695 0.922661 0
M  V30 3361 O 323.901 -1.27445 1.18758 0
M  V30 3362 C 321.033 -2.41599 2.40506 0
M  V30 3363 H 322.226 -0.682727 2.92025 0
M  V30 3364 H 319.779 -0.319193 1.53006 0
M  V30 3365 H 320.514 -2.85354 1.5409 0
M  V30 3366 H 320.299 -2.25156 3.21009 0
M  V30 3367 H 321.789 -3.13367 2.76027 0
M  V30 3368 N 322.226 -1.5378 -0.344866 0
M  V30 3369 C 323.158 -1.77988 -1.44406 0
M  V30 3370 C 324.171 -0.661138 -1.48771 0
M  V30 3371 O 325.36 -0.937842 -1.51877 0
M  V30 3372 C 322.46 -1.86345 -2.8307 0
M  V30 3373 C 321.633 -3.16256 -3.0216 0
M  V30 3374 C 320.692 -3.15588 -4.21059 0
M  V30 3375 O 319.718 -3.89314 -4.15239 0
M  V30 3376 N 320.92 -2.37864 -5.29529 0
M  V30 3377 H 323.685 -2.72839 -1.24012 0
M  V30 3378 H 321.246 -1.52814 -0.534737 0
M  V30 3379 H 323.238 -1.83351 -3.60783 0
M  V30 3380 H 321.808 -0.986858 -2.96614 0
M  V30 3381 H 321.028 -3.32385 -2.11929 0
M  V30 3382 H 322.316 -4.0207 -3.11797 0
M  V30 3383 H 321.714 -1.77514 -5.37127 0
M  V30 3384 H 320.271 -2.40668 -6.05741 0
M  V30 3385 N 323.704 0.605807 -1.45491 0
M  V30 3386 C 324.952 1.36207 -1.49305 0
M  V30 3387 C 325.273 1.94519 -0.136863 0
M  V30 3388 O 324.543 1.77261 0.833983 0
M  V30 3389 H 323.123 0.50565 -0.549843 0
M  V30 3390 H 325.785 0.711239 -1.81459 0
M  V30 3391 H 324.881 2.18058 -2.23287 0
M  V30 3392 N 325.182 1.32811 0.848464 0
M  V30 3393 C 326.431 1.23075 1.59798 0
M  V30 3394 C 326.744 -0.204419 1.94529 0
M  V30 3395 O 327.95 -0.423701 2.68173 0
M  V30 3396 C 326.406 2.15594 2.88179 0
M  V30 3397 C 326.014 3.64228 2.60849 0
M  V30 3398 C 327.758 2.14709 3.66197 0
M  V30 3399 C 325.665 4.48689 3.85269 0
M  V30 3400 H 324.595 0.457091 0.599653 0
M  V30 3401 H 327.246 1.57813 0.936342 0
M  V30 3402 H 325.628 1.73778 3.55833 0
M  V30 3403 H 326.802 4.14424 2.01467 0
M  V30 3404 H 325.117 3.67306 1.96151 0
M  V30 3405 H 327.714 2.75046 4.58534 0
M  V30 3406 H 328.057 1.13966 4.00397 0
M  V30 3407 H 328.59 2.54837 3.05455 0
M  V30 3408 H 325.329 5.5027 3.56207 0
M  V30 3409 H 324.849 4.03241 4.44024 0
M  V30 3410 H 326.528 4.62006 4.52946 0
M  V30 3411 N 326.66 -1.06551 1.16123 0
M  V30 3412 C 327.623 -2.12132 0.867906 0
M  V30 3413 C 328.623 -1.60224 -0.135944 0
M  V30 3414 O 329.813 -1.73943 0.0946422 0
M  V30 3415 C 326.945 -3.396 0.297419 0
M  V30 3416 H 328.138 -2.39586 1.80385 0
M  V30 3417 H 325.691 -1.22574 0.969812 0
M  V30 3418 H 326.426 -3.17794 -0.64633 0
M  V30 3419 H 326.211 -3.78581 1.02073 0
M  V30 3420 H 327.701 -4.17455 0.110052 0
M  V30 3421 N 328.138 -0.959301 -1.25041 0
M  V30 3422 C 329.554 -0.664474 -1.4511 0
M  V30 3423 C 329.754 0.776481 -1.85938 0
M  V30 3424 O 328.81 1.55128 -1.99227 0
M  V30 3425 C 330.123 -1.64139 -2.5195 0
M  V30 3426 C 331.671 -1.65309 -2.65786 0
M  V30 3427 C 332.146 -2.61777 -3.75815 0
M  V30 3428 N 333.637 -2.60169 -3.83231 0
M  V30 3429 C 334.372 -3.31489 -4.6787 0
M  V30 3430 N 333.868 -4.12298 -5.56761 0
M  V30 3431 N 335.661 -3.20354 -4.61876 0
M  V30 3432 H 327.812 -1.89043 -0.968332 0
M  V30 3433 H 330.075 -0.813408 -0.4869 0
M  V30 3434 H 329.781 -2.67086 -2.28819 0
M  V30 3435 H 329.655 -1.40756 -3.49954 0
M  V30 3436 H 332.042 -0.630778 -2.8828 0
M  V30 3437 H 332.123 -1.92753 -1.68167 0
M  V30 3438 H 331.767 -3.64137 -3.54071 0
M  V30 3439 H 331.697 -2.31616 -4.72929 0
M  V30 3440 H 334.188 -2.01507 -3.19692 0
M  V30 3441 H 334.501 -4.63625 -6.18281 0
M  V30 3442 H 332.846 -4.16395 -5.56454 0
M  V30 3443 H 336.037 -2.56692 -3.91442 0
M  V30 3444 H 336.21 -3.76201 -5.27614 0
M  V30 3445 N 329.616 1.39756 -0.72842 0
M  V30 3446 C 330.546 2.33289 -0.0991354 0
M  V30 3447 C 331.527 1.53568 0.731489 0
M  V30 3448 O 332.712 1.81987 0.677807 0
M  V30 3449 C 329.842 3.3763 0.813834 0
M  V30 3450 C 328.796 4.2791 0.0878663 0
M  V30 3451 C 328.122 5.22894 1.11741 0
M  V30 3452 C 329.422 5.11314 -1.06563 0
M  V30 3453 H 331.116 2.86163 -0.880408 0
M  V30 3454 H 328.662 1.37591 -0.424819 0
M  V30 3455 H 330.615 4.0201 1.26355 0
M  V30 3456 H 329.339 2.83181 1.62715 0
M  V30 3457 H 327.998 3.65 -0.342159 0
M  V30 3458 H 327.646 4.64744 1.92412 0
M  V30 3459 H 327.346 5.84143 0.636477 0
M  V30 3460 H 328.87 5.90151 1.56697 0
M  V30 3461 H 330.284 5.69076 -0.694671 0
M  V30 3462 H 328.681 5.81671 -1.47577 0
M  V30 3463 H 329.751 4.46534 -1.89038 0
M  V30 3464 N 331.094 0.475555 1.50254 0
M  V30 3465 C 332.044 -0.335025 2.25525 0
M  V30 3466 C 333.028 -0.957625 1.29299 0
M  V30 3467 O 334.22 -0.869436 1.54175 0
M  V30 3468 C 331.349 -1.41385 3.12834 0
M  V30 3469 C 330.435 -0.798762 4.1651 0
M  V30 3470 N 330.826 0.0835815 5.05731 0
M  V30 3471 C 329.124 -1.06221 4.33166 0
M  V30 3472 C 329.825 0.433113 5.80085 0
M  V30 3473 N 328.801 -0.1928 5.43258 0
M  V30 3474 H 332.603 0.344612 2.91873 0
M  V30 3475 H 330.117 0.289986 1.5979 0
M  V30 3476 H 332.114 -2.00777 3.65368 0
M  V30 3477 H 330.774 -2.09543 2.48036 0
M  V30 3478 H 331.785 0.452715 5.15918 0
M  V30 3479 H 328.462 -1.73844 3.79585 0
M  V30 3480 H 329.852 1.15346 6.61925 0
M  V30 3481 N 332.573 -1.56217 0.208337 0
M  V30 3482 C 333.52 -2.19699 -0.707192 0
M  V30 3483 C 334.49 -1.14836 -1.20008 0
M  V30 3484 O 335.675 -1.4314 -1.26157 0
M  V30 3485 C 332.815 -2.87061 -1.91546 0
M  V30 3486 C 331.928 -4.06483 -1.46271 0
M  V30 3487 C 331.063 -4.61665 -2.62752 0
M  V30 3488 C 330.102 -5.73417 -2.14147 0
M  V30 3489 N 329.239 -6.22948 -3.23853 0
M  V30 3490 H 334.079 -2.97575 -0.159111 0
M  V30 3491 H 331.616 -1.46948 -0.0667874 0
M  V30 3492 H 333.574 -3.24294 -2.62468 0
M  V30 3493 H 332.204 -2.11725 -2.43664 0
M  V30 3494 H 331.256 -3.74825 -0.648886 0
M  V30 3495 H 332.568 -4.87271 -1.06622 0
M  V30 3496 H 331.722 -5.01272 -3.41776 0
M  V30 3497 H 330.461 -3.80013 -3.05682 0
M  V30 3498 H 329.466 -5.33326 -1.33581 0
M  V30 3499 H 330.691 -6.56897 -1.72232 0
M  V30 3500 H 328.637 -5.44213 -3.6629 0
M  V30 3501 H 328.554 -6.98823 -2.88414 0
M  V30 3502 H 329.822 -6.6721 -4.03052 0
M  V30 3503 N 334.051 0.0651679 -1.57465 0
M  V30 3504 C 335.467 0.420105 -1.53972 0
M  V30 3505 C 335.667 1.78782 -0.929474 0
M  V30 3506 O 334.723 2.46771 -0.534839 0
M  V30 3507 C 336.036 0.355084 -2.98596 0
M  V30 3508 C 337.584 0.434792 -3.09965 0
M  V30 3509 C 338.059 0.399609 -4.56253 0
M  V30 3510 N 339.55 0.459488 -4.60915 0
M  V30 3511 C 340.285 0.454584 -5.71595 0
M  V30 3512 N 339.781 0.404102 -6.9162 0
M  V30 3513 N 341.574 0.501635 -5.59857 0
M  V30 3514 H 333.725 -0.830328 -1.95498 0
M  V30 3515 H 335.988 -0.312244 -0.895102 0
M  V30 3516 H 335.694 -0.583357 -3.46828 0
M  V30 3517 H 335.568 1.16275 -3.58831 0
M  V30 3518 H 337.955 1.36366 -2.61703 0
M  V30 3519 H 338.036 -0.40157 -2.52628 0
M  V30 3520 H 337.68 -0.525436 -5.05175 0
M  V30 3521 H 337.61 1.25359 -5.11461 0
M  V30 3522 H 340.101 0.502482 -3.74544 0
M  V30 3523 H 340.414 0.404468 -7.71741 0
M  V30 3524 H 338.759 0.37069 -6.94011 0
M  V30 3525 H 341.95 0.538812 -4.64989 0
M  V30 3526 H 342.123 0.494345 -6.46112 0
M  V30 3527 N 335.529 1.53961 0.336706 0
M  V30 3528 C 336.461 1.78751 1.4346 0
M  V30 3529 C 337.474 0.669019 1.48418 0
M  V30 3530 O 338.663 0.945884 1.51378 0
M  V30 3531 C 335.763 1.87844 2.82078 0
M  V30 3532 C 334.936 3.17854 3.00479 0
M  V30 3533 C 333.995 3.17816 4.19379 0
M  V30 3534 O 333.021 3.91511 4.13168 0
M  V30 3535 N 334.223 2.40669 5.2826 0
M  V30 3536 H 336.988 2.73493 1.22563 0
M  V30 3537 H 334.549 1.53096 0.526625 0
M  V30 3538 H 336.541 1.85261 3.59806 0
M  V30 3539 H 335.111 1.00257 2.96086 0
M  V30 3540 H 334.331 3.33504 2.10163 0
M  V30 3541 H 335.619 4.03718 3.0966 0
M  V30 3542 H 335.017 1.8036 5.36178 0
M  V30 3543 H 333.574 2.43877 6.04456 0
M  V30 3544 N 337.007 -0.598083 1.45811 0
M  V30 3545 C 338.423 -0.919847 1.30426 0
M  V30 3546 C 338.623 -1.99759 0.264303 0
M  V30 3547 O 337.679 -2.50221 -0.338472 0
M  V30 3548 C 338.992 -1.35176 2.68603 0
M  V30 3549 C 340.54 -1.46546 2.76574 0
M  V30 3550 C 341.015 -1.9311 4.15298 0
M  V30 3551 N 342.506 -2.00328 4.1764 0
M  V30 3552 C 343.241 -2.37599 5.21856 0
M  V30 3553 N 342.737 -2.73771 6.36413 0
M  V30 3554 N 344.53 -2.38021 5.09218 0
M  V30 3555 H 336.681 0.114111 2.12093 0
M  V30 3556 H 338.944 -0.0116121 0.947929 0
M  V30 3557 H 338.65 -0.633969 3.45939 0
M  V30 3558 H 338.524 -2.3164 2.97696 0
M  V30 3559 H 340.911 -2.17415 1.99537 0
M  V30 3560 H 340.992 -0.483727 2.51185 0
M  V30 3561 H 340.636 -1.22824 4.92825 0
M  V30 3562 H 340.566 -2.92213 4.38086 0
M  V30 3563 H 343.057 -1.74925 3.34977 0
M  V30 3564 H 343.37 -3.0112 7.11721 0
M  V30 3565 H 341.715 -2.71445 6.39799 0
M  V30 3566 H 344.906 -2.09174 4.18765 0
M  V30 3567 H 345.079 -2.66741 5.90554 0
M  V30 3568 N 338.485 -1.33259 -0.841409 0
M  V30 3569 C 339.896 -1.22066 -1.41269 0
M  V30 3570 C 340.247 0.161479 -1.95534 0
M  V30 3571 O 339.372 1.06094 -1.88608 0
M  V30 3572 C 339.967 -2.20996 -2.568 0
M  V30 3573 C 338.526 -2.13649 -3.09888 0
M  V30 3574 C 337.673 -2.08623 -1.82679 0
M  V30 3575 H 340.624 -1.44895 -0.647395 0
M  V30 3576 H 340.645 -1.81621 -3.34356 0
M  V30 3577 H 340.157 -3.2158 -2.17274 0
M  V30 3578 H 338.258 -1.16359 -3.53965 0
M  V30 3579 H 338.371 -3.04079 -3.70234 0
M  V30 3580 H 336.735 -1.54061 -2.02824 0
M  V30 3581 H 337.518 -3.1101 -1.45353 0
M  V30 3582 N 339.963 1.05934 -1.16686 0
M  V30 3583 C 341.209 1.79065 -0.95203 0
M  V30 3584 C 341.542 1.87147 0.518629 0
M  V30 3585 O 340.817 1.36574 1.38484 0
M  V30 3586 C 341.1 3.23359 -1.58464 0
M  V30 3587 C 340.953 3.23336 -3.12689 0
M  V30 3588 C 342.272 4.21004 -1.28232 0
M  V30 3589 H 339.391 0.65005 -0.34728 0
M  V30 3590 H 342.033 1.23868 -1.44072 0
M  V30 3591 H 340.183 3.70493 -1.16908 0
M  V30 3592 H 341.855 2.84336 -3.6325 0
M  V30 3593 H 340.098 2.61886 -3.4583 0
M  V30 3594 H 340.769 4.25144 -3.52075 0
M  V30 3595 H 343.245 3.8233 -1.64203 0
M  V30 3596 H 342.121 5.20225 -1.75092 0
M  V30 3597 H 342.382 4.41639 -0.201791 0
M  V30 3598 N 341.441 0.965919 1.2453 0
M  V30 3599 C 342.391 0.465731 2.23193 0
M  V30 3600 C 343.375 -0.451277 1.54442 0
M  V30 3601 O 344.567 -0.282489 1.74731 0
M  V30 3602 C 341.696 -0.244511 3.42428 0
M  V30 3603 C 340.782 0.691222 4.18429 0
M  V30 3604 N 341.173 1.82771 4.71623 0
M  V30 3605 C 339.471 0.501649 4.4317 0
M  V30 3606 C 340.172 2.41285 5.29298 0
M  V30 3607 N 339.148 1.69819 5.16394 0
M  V30 3608 H 342.95 1.33291 2.61937 0
M  V30 3609 H 340.464 0.824789 1.39896 0
M  V30 3610 H 342.461 -0.620056 4.12263 0
M  V30 3611 H 341.121 -1.10815 3.05205 0
M  V30 3612 H 342.132 2.20929 4.68413 0
M  V30 3613 H 338.809 -0.318177 4.16286 0
M  V30 3614 H 340.199 3.37181 5.8117 0
M  V30 3615 N 342.919 -1.39368 0.735821 0
M  V30 3616 C 343.851 -2.2913 0.0567723 0
M  V30 3617 C 344.864 -1.46859 -0.702589 0
M  V30 3618 O 346.053 -1.69925 -0.546616 0
M  V30 3619 C 343.153 -3.25492 -0.943823 0
M  V30 3620 C 342.326 -4.36709 -0.24581 0
M  V30 3621 C 341.385 -5.13376 -1.15463 0
M  V30 3622 O 340.411 -5.65683 -0.631803 0
M  V30 3623 N 341.613 -5.24656 -2.48427 0
M  V30 3624 H 344.378 -2.88047 0.827582 0
M  V30 3625 H 341.939 -1.50957 0.585112 0
M  V30 3626 H 343.931 -3.73657 -1.55443 0
M  V30 3627 H 342.501 -2.676 -1.61583 0
M  V30 3628 H 341.721 -3.9041 0.545286 0
M  V30 3629 H 343.009 -5.08244 0.237891 0
M  V30 3630 H 342.407 -4.83679 -2.93379 0
M  V30 3631 H 340.964 -5.76258 -3.04582 0
M  V30 3632 N 344.397 -0.483516 -1.5 0
M  V30 3633 C 345.645 0.067027 -2.01989 0
M  V30 3634 C 345.966 1.3909 -1.36671 0
M  V30 3635 O 345.236 1.88978 -0.516152 0
M  V30 3636 H 343.816 0.0277606 -0.746484 0
M  V30 3637 H 346.478 -0.636773 -1.84204 0
M  V30 3638 H 345.574 0.209484 -3.11396 0
M  V30 3639 N 345.875 1.56104 -0.216619 0
M  V30 3640 C 347.122 1.98172 0.416416 0
M  V30 3641 C 347.45 1.10413 1.60122 0
M  V30 3642 O 346.705 0.147967 1.9514 0
M  V30 3643 C 347.004 3.45923 0.898464 0
M  V30 3644 C 346.67 4.50559 -0.175288 0
M  V30 3645 C 345.332 4.78897 -0.470271 0
M  V30 3646 C 347.684 5.1334 -0.901728 0
M  V30 3647 C 345.012 5.67299 -1.4963 0
M  V30 3648 C 347.364 6.02853 -1.91705 0
M  V30 3649 C 346.028 6.29537 -2.21901 0
M  V30 3650 H 345.298 0.725164 0.152377 0
M  V30 3651 H 347.945 1.88839 -0.318103 0
M  V30 3652 H 346.25 3.52434 1.71165 0
M  V30 3653 H 347.947 3.75841 1.39803 0
M  V30 3654 H 344.537 4.28551 0.0647806 0
M  V30 3655 H 348.721 4.91521 -0.687072 0
M  V30 3656 H 343.977 5.86239 -1.73592 0
M  V30 3657 H 348.151 6.50552 -2.48505 0
M  V30 3658 H 345.778 6.97835 -3.01548 0
M  V30 3659 N 347.353 -0.0568162 1.57498 0
M  V30 3660 C 348.601 -0.751617 1.87604 0
M  V30 3661 C 348.922 -1.77351 0.81066 0
M  V30 3662 O 348.192 -1.95254 -0.159018 0
M  V30 3663 H 346.772 -0.280583 0.692302 0
M  V30 3664 H 349.434 -0.0293483 1.94878 0
M  V30 3665 H 348.53 -1.25852 2.856 0
M  V30 3666 N 348.832 -1.54138 -0.328536 0
M  V30 3667 C 349.762 -1.86167 -1.40939 0
M  V30 3668 C 350.743 -0.718044 -1.54202 0
M  V30 3669 O 351.928 -0.971328 -1.68163 0
M  V30 3670 C 349.058 -2.08461 -2.77779 0
M  V30 3671 C 348.012 -3.24299 -2.7931 0
M  V30 3672 C 347.338 -3.31955 -4.19178 0
M  V30 3673 C 348.638 -4.62065 -2.43502 0
M  V30 3674 H 350.332 -2.76689 -1.14383 0
M  V30 3675 H 347.878 -1.33132 -0.548806 0
M  V30 3676 H 349.831 -2.29453 -3.53454 0
M  V30 3677 H 348.555 -1.14684 -3.05802 0
M  V30 3678 H 347.214 -3.03187 -2.0609 0
M  V30 3679 H 346.862 -2.35745 -4.44335 0
M  V30 3680 H 346.562 -4.09805 -4.2111 0
M  V30 3681 H 348.086 -3.55175 -4.96672 0
M  V30 3682 H 349.5 -4.8297 -3.08889 0
M  V30 3683 H 347.897 -5.42429 -2.56693 0
M  V30 3684 H 348.967 -4.64652 -1.38659 0
M  V30 3685 N 350.31 0.590341 -1.46126 0
M  V30 3686 C 351.257 1.69994 -1.56111 0
M  V30 3687 C 352.227 1.61065 -0.405867 0
M  V30 3688 O 353.412 1.8039 -0.621613 0
M  V30 3689 C 350.552 3.08326 -1.55013 0
M  V30 3690 C 349.665 3.27936 -2.81215 0
M  V30 3691 C 348.8 4.56473 -2.71673 0
M  V30 3692 C 347.839 4.694 -3.92849 0
M  V30 3693 N 346.976 5.89254 -3.81738 0
M  V30 3694 H 351.816 1.60797 -2.50895 0
M  V30 3695 H 349.353 0.783799 -1.24479 0
M  V30 3696 H 351.311 3.88383 -1.52362 0
M  V30 3697 H 349.941 3.16439 -0.637667 0
M  V30 3698 H 348.993 2.41536 -2.93879 0
M  V30 3699 H 350.305 3.33357 -3.71045 0
M  V30 3700 H 349.459 5.44748 -2.67085 0
M  V30 3701 H 348.198 4.53477 -1.7947 0
M  V30 3702 H 347.203 3.79544 -3.97777 0
M  V30 3703 H 348.428 4.7418 -4.86138 0
M  V30 3704 H 346.374 5.87271 -2.92317 0
M  V30 3705 H 346.291 5.95911 -4.65217 0
M  V30 3706 H 347.559 6.79981 -3.81112 0
M  V30 3707 N 351.788 1.33704 0.83433 0
M  V30 3708 C 353.036 1.25169 1.58673 0
M  V30 3709 C 353.357 -0.18127 1.94156 0
M  V30 3710 O 352.627 -1.11113 1.6134 0
M  V30 3711 H 351.207 0.4603 0.58833 0
M  V30 3712 H 353.869 1.67478 0.996847 0
M  V30 3713 H 352.965 1.84856 2.51465 0
M  V30 3714 N 353.266 -1.05314 1.17247 0
M  V30 3715 C 354.229 -2.112 0.890357 0
M  V30 3716 C 355.229 -1.60359 -0.118943 0
M  V30 3717 O 356.419 -1.73833 0.113086 0
M  V30 3718 C 353.551 -3.39266 0.333422 0
M  V30 3719 H 354.744 -2.37659 1.82916 0
M  V30 3720 H 352.297 -1.21538 0.982758 0
M  V30 3721 H 353.032 -3.18462 -0.612587 0
M  V30 3722 H 352.817 -3.77477 1.06082 0
M  V30 3723 H 354.307 -4.17315 0.154322 0
M  V30 3724 N 354.744 -0.972509 -1.24016 0
M  V30 3725 C 355.99 -0.637978 -1.92504 0
M  V30 3726 C 356.323 0.825383 -1.75787 0
M  V30 3727 O 355.598 1.59442 -1.11393 0
M  V30 3728 C 355.881 -1.01942 -3.45369 0
M  V30 3729 C 355.734 -2.53983 -3.71231 0
M  V30 3730 C 357.053 -0.55751 -4.36555 0
M  V30 3731 H 354.172 -0.233248 -0.699117 0
M  V30 3732 H 356.814 -1.21238 -1.46292 0
M  V30 3733 H 354.964 -0.530656 -3.84859 0
M  V30 3734 H 356.636 -3.10374 -3.41271 0
M  V30 3735 H 354.879 -2.96968 -3.16216 0
M  V30 3736 H 355.55 -2.75723 -4.78206 0
M  V30 3737 H 358.026 -0.977029 -4.04467 0
M  V30 3738 H 356.902 -0.85292 -5.42233 0
M  V30 3739 H 357.163 0.542328 -4.38761 0
M  V30 3740 N 356.222 1.38976 -0.743202 0
M  V30 3741 C 357.45 2.04636 -0.30525 0
M  V30 3742 C 357.865 1.56044 1.06281 0
M  V30 3743 O 357.222 0.728921 1.67311 0
M  V30 3744 C 357.273 3.60193 -0.307177 0
M  V30 3745 O 356.994 4.06998 -1.62124 0
M  V30 3746 C 358.495 4.4306 0.145928 0
M  V30 3747 H 355.715 0.65788 -0.132041 0
M  V30 3748 H 358.259 1.77866 -1.00915 0
M  V30 3749 H 356.414 3.85835 0.347898 0
M  V30 3750 H 356.828 5.01371 -1.54036 0
M  V30 3751 H 358.302 5.51921 0.0934183 0
M  V30 3752 H 358.779 4.22706 1.19231 0
M  V30 3753 H 359.385 4.22584 -0.479886 0
M  V30 3754 N 357.7 0.491464 1.49741 0
M  V30 3755 C 358.63 -0.28154 2.31796 0
M  V30 3756 C 359.611 -0.971473 1.3963 0
M  V30 3757 O 360.796 -0.964719 1.68543 0
M  V30 3758 C 357.926 -1.35203 3.19902 0
M  V30 3759 C 356.88 -0.782529 4.20786 0
M  V30 3760 C 356.206 -1.95283 4.97764 0
M  V30 3761 C 357.506 0.21999 5.21837 0
M  V30 3762 H 359.2 0.403355 2.96671 0
M  V30 3763 H 356.746 0.195425 1.42668 0
M  V30 3764 H 358.699 -1.90045 3.76113 0
M  V30 3765 H 357.423 -2.06598 2.52953 0
M  V30 3766 H 356.082 -0.255928 3.65706 0
M  V30 3767 H 355.73 -2.65423 4.2727 0
M  V30 3768 H 355.43 -1.57789 5.66018 0
M  V30 3769 H 356.954 -2.50577 5.56816 0
M  V30 3770 H 358.368 -0.23996 5.72798 0
M  V30 3771 H 356.765 0.51026 5.97927 0
M  V30 3772 H 357.835 1.13911 4.7133 0
M  V30 3773 N 359.178 -1.55987 0.224894 0
M  V30 3774 C 360.406 -2.02784 -0.410665 0
M  V30 3775 C 360.821 -1.10464 -1.53112 0
M  V30 3776 O 360.178 -0.114871 -1.82138 0
M  V30 3777 C 360.229 -3.49087 -0.939165 0
M  V30 3778 O 359.95 -4.37887 0.136614 0
M  V30 3779 C 361.451 -4.11543 -1.64763 0
M  V30 3780 H 358.671 -0.663484 -0.100148 0
M  V30 3781 H 361.215 -2.01614 0.342326 0
M  V30 3782 H 359.37 -3.50861 -1.64242 0
M  V30 3783 H 359.784 -5.23849 -0.261155 0
M  V30 3784 H 361.258 -5.15673 -1.96939 0
M  V30 3785 H 361.735 -3.56736 -2.56195 0
M  V30 3786 H 362.341 -4.13629 -0.989503 0
M  V30 3787 N 360.656 0.0484629 -1.57525 0
M  V30 3788 C 361.905 0.742065 -1.87553 0
M  V30 3789 C 362.218 1.77545 -0.820802 0
M  V30 3790 O 363.424 2.52027 -1.00967 0
M  V30 3791 C 361.88 1.37081 -3.32771 0
M  V30 3792 C 361.488 0.374786 -4.4643 0
M  V30 3793 C 363.232 2.04542 -3.71972 0
M  V30 3794 C 361.139 1.01077 -5.82698 0
M  V30 3795 H 360.069 0.280903 -0.699721 0
M  V30 3796 H 362.72 -0.00411877 -1.835 0
M  V30 3797 H 361.102 2.16605 -3.31509 0
M  V30 3798 H 362.276 -0.392331 -4.59127 0
M  V30 3799 H 360.591 -0.196653 -4.15935 0
M  V30 3800 H 363.188 2.52943 -4.71088 0
M  V30 3801 H 363.531 2.85515 -3.02964 0
M  V30 3802 H 364.064 1.31819 -3.75325 0
M  V30 3803 H 360.803 0.240878 -6.55057 0
M  V30 3804 H 360.323 1.74819 -5.73758 0
M  V30 3805 H 362.002 1.52383 -6.28799 0
M  V30 3806 N 362.134 1.5431 0.320358 0
M  V30 3807 C 363.064 1.86912 1.3995 0
M  V30 3808 C 364.045 0.726211 1.53819 0
M  V30 3809 O 365.23 0.980233 1.67646 0
M  V30 3810 C 362.36 2.09932 2.7667 0
M  V30 3811 C 361.314 3.25776 2.77586 0
M  V30 3812 C 360.64 3.34173 4.17412 0
M  V30 3813 C 361.94 4.6335 2.41048 0
M  V30 3814 H 363.634 2.77292 1.12914 0
M  V30 3815 H 361.18 1.33421 0.541738 0
M  V30 3816 H 363.133 2.31324 3.52232 0
M  V30 3817 H 361.857 1.16304 3.0519 0
M  V30 3818 H 360.516 3.04276 2.04479 0
M  V30 3819 H 360.164 2.38098 4.43078 0
M  V30 3820 H 359.864 4.12033 4.18931 0
M  V30 3821 H 361.388 3.57803 4.94782 0
M  V30 3822 H 362.802 4.84602 3.06324 0
M  V30 3823 H 361.199 5.43782 2.53813 0
M  V30 3824 H 362.269 4.65381 1.36193 0
M  V30 3825 N 363.613 -0.582584 1.46437 0
M  V30 3826 C 364.543 -1.70187 1.59871 0
M  V30 3827 C 365.524 -1.64066 0.449042 0
M  V30 3828 O 366.709 -1.82081 0.6753 0
M  V30 3829 C 363.839 -3.08827 1.58881 0
M  V30 3830 C 362.793 -3.29779 2.72819 0
M  V30 3831 C 362.119 -4.68947 2.5689 0
M  V30 3832 C 363.419 -3.17601 4.1464 0
M  V30 3833 H 365.113 -1.592 2.53566 0
M  V30 3834 H 362.659 -0.764472 1.22032 0
M  V30 3835 H 364.612 -3.86951 1.66873 0
M  V30 3836 H 363.336 -3.20713 0.617306 0
M  V30 3837 H 361.995 -2.54054 2.64296 0
M  V30 3838 H 361.643 -4.77599 1.57823 0
M  V30 3839 H 361.343 -4.83919 3.33312 0
M  V30 3840 H 362.867 -5.4924 2.66773 0
M  V30 3841 H 364.281 -3.8557 4.24274 0
M  V30 3842 H 362.678 -3.44094 4.9165 0
M  V30 3843 H 363.748 -2.14681 4.34788 0
M  V30 3844 N 365.091 -1.34144 -0.827227 0
M  V30 3845 C 366.339 -1.26009 -1.58007 0
M  V30 3846 C 366.66 0.170971 -1.94249 0
M  V30 3847 O 365.93 1.10256 -1.61927 0
M  V30 3848 H 364.51 -0.463414 -0.585881 0
M  V30 3849 H 367.172 -1.68005 -0.987951 0
M  V30 3850 H 366.268 -1.86187 -2.50481 0
M  V30 3851 N 366.569 1.04691 -1.17803 0
M  V30 3852 C 367.818 1.77176 -0.963931 0
M  V30 3853 C 368.131 1.88888 0.508015 0
M  V30 3854 O 369.337 2.58164 0.840465 0
M  V30 3855 C 367.793 3.18518 -1.67555 0
M  V30 3856 C 367.401 3.14919 -3.18637 0
M  V30 3857 C 369.145 3.95424 -1.54402 0
M  V30 3858 C 367.052 4.51081 -3.82466 0
M  V30 3859 H 365.982 0.664116 -0.357023 0
M  V30 3860 H 368.633 1.17303 -1.4111 0
M  V30 3861 H 367.015 3.78748 -1.15613 0
M  V30 3862 H 368.189 2.64178 -3.77554 0
M  V30 3863 H 366.504 2.51512 -3.31859 0
M  V30 3864 H 369.101 4.96106 -1.99456 0
M  V30 3865 H 369.444 4.13343 -0.495329 0
M  V30 3866 H 369.977 3.41754 -2.0359 0
M  V30 3867 H 366.716 4.38368 -4.87354 0
M  V30 3868 H 366.236 5.01951 -3.28337 0
M  V30 3869 H 367.915 5.2001 -3.84965 0
M  V30 3870 N 368.047 0.979072 1.23499 0
M  V30 3871 C 369.294 0.647219 1.91878 0
M  V30 3872 C 369.622 -0.819074 1.76413 0
M  V30 3873 O 368.877 -1.60616 1.11808 0
M  V30 3874 C 369.176 0.981932 3.43646 0
M  V30 3875 C 368.842 2.43822 3.79291 0
M  V30 3876 C 367.504 2.83622 3.88731 0
M  V30 3877 C 369.856 3.3828 3.96505 0
M  V30 3878 C 367.184 4.16897 4.12812 0
M  V30 3879 C 369.536 4.71197 4.22085 0
M  V30 3880 C 368.2 5.10758 4.29747 0
M  V30 3881 H 367.47 0.236834 0.702133 0
M  V30 3882 H 370.117 1.23268 1.46551 0
M  V30 3883 H 368.422 0.314365 3.90537 0
M  V30 3884 H 370.119 0.703395 3.94783 0
M  V30 3885 H 366.709 2.11966 3.72516 0
M  V30 3886 H 370.893 3.0871 3.88603 0
M  V30 3887 H 366.149 4.47157 4.16966 0
M  V30 3888 H 370.323 5.44348 4.34348 0
M  V30 3889 H 367.95 6.1405 4.48159 0
M  V30 3890 N 369.525 -1.3858 0.750561 0
M  V30 3891 C 370.772 -2.00184 0.305373 0
M  V30 3892 C 371.1 -1.59575 -1.11203 0
M  V30 3893 O 370.355 -0.823236 -1.77542 0
M  V30 3894 C 370.654 -3.55455 0.372373 0
M  V30 3895 C 370.32 -4.15765 1.745 0
M  V30 3896 C 368.982 -4.31951 2.12065 0
M  V30 3897 C 371.334 -4.49067 2.64553 0
M  V30 3898 C 368.662 -4.78734 3.39162 0
M  V30 3899 C 371.014 -4.97265 3.91038 0
M  V30 3900 C 369.678 -5.11658 4.28676 0
M  V30 3901 H 368.948 -0.732526 0.111744 0
M  V30 3902 H 371.595 -1.65673 0.960451 0
M  V30 3903 H 369.9 -3.90084 -0.366272 0
M  V30 3904 H 371.597 -4.00999 0.00953918 0
M  V30 3905 H 368.187 -4.03579 1.44297 0
M  V30 3906 H 372.371 -4.36166 2.36796 0
M  V30 3907 H 367.627 -4.88062 3.68246 0
M  V30 3908 H 371.801 -5.22003 4.60962 0
M  V30 3909 H 369.428 -5.47668 5.27222 0
M  V30 3910 N 371.003 -0.499398 -1.49478 0
M  V30 3911 C 371.933 0.269244 -2.31943 0
M  V30 3912 C 372.914 0.964054 -1.40143 0
M  V30 3913 O 374.099 0.955767 -1.69052 0
M  V30 3914 C 371.229 1.33504 -3.20615 0
M  V30 3915 C 370.183 0.760202 -4.21195 0
M  V30 3916 C 369.509 1.9264 -4.98792 0
M  V30 3917 C 370.809 -0.247661 -5.21712 0
M  V30 3918 H 372.503 -0.419082 -2.96452 0
M  V30 3919 H 370.049 -0.202988 -1.42562 0
M  V30 3920 H 372.002 1.88048 -3.77115 0
M  V30 3921 H 370.726 2.05253 -2.54045 0
M  V30 3922 H 369.385 0.23653 -3.65836 0
M  V30 3923 H 369.033 2.63154 -4.28671 0
M  V30 3924 H 368.733 1.54785 -5.66847 0
M  V30 3925 H 370.257 2.4762 -5.58137 0
M  V30 3926 H 371.671 0.209579 -5.72917 0
M  V30 3927 H 370.068 -0.541962 -5.97648 0
M  V30 3928 H 371.138 -1.16409 -4.7072 0
M  V30 3929 N 372.481 1.55866 -0.233164 0
M  V30 3930 C 373.721 2.00506 0.397078 0
M  V30 3931 C 374.085 1.1176 1.56121 0
M  V30 3932 O 375.286 1.45796 2.25825 0
M  V30 3933 C 373.557 3.4811 0.809601 0
M  V30 3934 S 375.116 4.14765 1.43231 0
M  V30 3935 H 371.934 0.699828 0.125547 0
M  V30 3936 H 374.536 1.92429 -0.345177 0
M  V30 3937 H 373.24 4.10373 -0.0471601 0
M  V30 3938 H 372.771 3.60085 1.58438 0
M  V30 3939 H 374.786 4.14914 2.7214 0
M  V30 3940 N 373.959 -0.0401083 1.57549 0
M  V30 3941 C 375.205 -0.728793 1.89895 0
M  V30 3942 C 375.56 -1.73551 0.830535 0
M  V30 3943 O 374.853 -1.90914 -0.162007 0
M  V30 3944 C 375.047 -1.44902 3.26708 0
M  V30 3945 C 374.876 -0.513568 4.46758 0
M  V30 3946 C 373.646 -0.138698 5.0511 0
M  V30 3947 C 375.844 0.203341 5.13898 0
M  V30 3948 N 373.826 0.799159 6.08676 0
M  V30 3949 C 375.197 0.997246 6.11927 0
M  V30 3950 C 377.252 0.271459 4.97159 0
M  V30 3951 C 375.955 1.85299 6.95023 0
M  V30 3952 C 377.981 1.11429 5.80808 0
M  V30 3953 C 377.343 1.89615 6.78399 0
M  V30 3954 H 373.442 -0.241125 0.743897 0
M  V30 3955 H 376.026 0.0108016 1.94697 0
M  V30 3956 H 374.197 -2.15914 3.22856 0
M  V30 3957 H 375.929 -2.08921 3.46603 0
M  V30 3958 H 372.684 -0.498496 4.70969 0
M  V30 3959 H 373.108 1.26227 6.65128 0
M  V30 3960 H 377.75 -0.318709 4.21597 0
M  V30 3961 H 375.468 2.454 7.69938 0
M  V30 3962 H 379.054 1.17038 5.69906 0
M  V30 3963 H 377.934 2.53779 7.42001 0
M  V30 3964 N 375.437 -1.54477 -0.31217 0
M  V30 3965 C 376.685 -1.72884 -1.04668 0
M  V30 3966 C 377.006 -0.511477 -1.88173 0
M  V30 3967 O 376.276 0.474407 -1.90069 0
M  V30 3968 H 374.856 -0.637461 -0.389425 0
M  V30 3969 H 377.518 -1.91807 -0.345852 0
M  V30 3970 H 376.614 -2.61334 -1.70619 0
M  V30 3971 N 376.915 0.57481 -1.46744 0
M  V30 3972 C 378.326 1.15695 -1.46532 0
M  V30 3973 C 378.677 1.95068 -0.210425 0
M  V30 3974 O 377.802 2.05241 0.685944 0
M  V30 3975 C 378.397 2.1048 -2.65487 0
M  V30 3976 C 376.956 2.64002 -2.68291 0
M  V30 3977 C 376.103 1.40026 -2.39349 0
M  V30 3978 H 379.054 0.362325 -1.54509 0
M  V30 3979 H 379.075 2.94074 -2.41455 0
M  V30 3980 H 378.587 1.52683 -3.56805 0
M  V30 3981 H 376.688 3.25646 -1.81067 0
M  V30 3982 H 376.801 3.06197 -3.68483 0
M  V30 3983 H 375.165 1.70106 -1.89568 0
M  V30 3984 H 375.948 0.840485 -3.32852 0
M  V30 3985 N 378.394 1.34581 0.820102 0
M  V30 3986 C 379.641 1.27096 1.57648 0
M  V30 3987 C 379.969 -0.158317 1.93855 0
M  V30 3988 O 379.224 -1.12028 1.60463 0
M  V30 3989 C 379.523 2.10997 2.8847 0
M  V30 3990 C 379.189 3.59966 2.71543 0
M  V30 3991 C 377.851 4.00575 2.66634 0
M  V30 3992 C 380.203 4.54548 2.55021 0
M  V30 3993 C 377.531 5.33953 2.43128 0
M  V30 3994 C 379.883 5.88109 2.33047 0
M  V30 3995 C 378.547 6.27878 2.26552 0
M  V30 3996 H 377.817 0.465078 0.576874 0
M  V30 3997 H 380.464 1.6635 0.948671 0
M  V30 3998 H 378.769 1.6458 3.55557 0
M  V30 3999 H 380.466 2.0255 3.46084 0
M  V30 4000 H 377.056 3.27733 2.76205 0
M  V30 4001 H 381.24 4.24069 2.57835 0
M  V30 4002 H 376.496 5.63781 2.3656 0
M  V30 4003 H 380.67 6.60985 2.19251 0
M  V30 4004 H 378.297 7.31162 2.081 0
M  V30 4005 N 379.872 -1.04064 1.18357 0
M  V30 4006 C 381.119 -1.77265 0.978947 0
M  V30 4007 C 381.447 -1.88189 -0.491428 0
M  V30 4008 O 380.702 -1.38653 -1.38108 0
M  V30 4009 C 381.001 -3.20634 1.57888 0
M  V30 4010 C 380.667 -3.29743 3.07539 0
M  V30 4011 C 379.329 -3.31937 3.48384 0
M  V30 4012 C 381.681 -3.29841 4.03552 0
M  V30 4013 C 379.009 -3.3187 4.83818 0
M  V30 4014 C 381.361 -3.31313 5.38901 0
M  V30 4015 C 380.025 -3.31799 5.79194 0
M  V30 4016 H 379.295 -0.648659 0.358222 0
M  V30 4017 H 381.942 -1.22225 1.47422 0
M  V30 4018 H 380.247 -3.78675 1.00561 0
M  V30 4019 H 381.944 -3.75917 1.39598 0
M  V30 4020 H 378.534 -3.28757 2.74986 0
M  V30 4021 H 382.718 -3.27337 3.73047 0
M  V30 4022 H 377.974 -3.30562 5.14333 0
M  V30 4023 H 382.148 -3.30338 6.13066 0
M  V30 4024 H 379.775 -3.315 6.84114 0
M  V30 4025 N 381.35 -0.985608 -1.22978 0
M  V30 4026 C 382.28 -0.549649 -2.26939 0
M  V30 4027 C 383.261 0.419803 -1.64838 0
M  V30 4028 O 384.446 0.31203 -1.91677 0
M  V30 4029 C 381.576 0.143652 -3.47003 0
M  V30 4030 C 380.53 -0.743606 -4.21491 0
M  V30 4031 C 379.856 0.0822027 -5.34637 0
M  V30 4032 C 381.156 -2.03694 -4.80943 0
M  V30 4033 H 382.85 -1.41862 -2.63658 0
M  V30 4034 H 380.396 -0.683571 -1.26741 0
M  V30 4035 H 382.349 0.459985 -4.18882 0
M  V30 4036 H 381.073 1.04711 -3.09359 0
M  V30 4037 H 379.732 -1.04347 -3.51436 0
M  V30 4038 H 379.38 0.986359 -4.93234 0
M  V30 4039 H 379.08 -0.508377 -5.85397 0
M  V30 4040 H 380.604 0.392797 -6.09335 0
M  V30 4041 H 382.018 -1.78504 -5.44802 0
M  V30 4042 H 380.415 -2.57573 -5.42011 0
M  V30 4043 H 381.485 -2.72042 -4.01399 0
M  V30 4044 N 382.828 1.3818 -0.7579 0
M  V30 4045 C 383.778 2.27741 -0.108674 0
M  V30 4046 C 384.762 1.45415 0.688709 0
M  V30 4047 O 385.954 1.68108 0.553956 0
M  V30 4048 C 383.083 3.34313 0.780367 0
M  V30 4049 C 382.169 4.24093 -0.0240977 0
M  V30 4050 N 382.56 4.9451 -1.06271 0
M  V30 4051 C 380.858 4.45542 0.202049 0
M  V30 4052 C 381.559 5.60675 -1.54979 0
M  V30 4053 N 380.535 5.36684 -0.864348 0
M  V30 4054 H 384.337 2.79649 -0.904071 0
M  V30 4055 H 381.851 1.51133 -0.594346 0
M  V30 4056 H 383.848 3.97368 1.26114 0
M  V30 4057 H 382.508 2.83962 1.57467 0
M  V30 4058 H 383.519 4.97345 -1.44459 0
M  V30 4059 H 380.196 4.06091 0.96935 0
M  V30 4060 H 381.586 6.26992 -2.41517 0
M  V30 4061 N 384.306 0.507319 1.49211 0
M  V30 4062 C 385.236 -0.256939 2.32082 0
M  V30 4063 C 386.217 -0.956609 1.40652 0
M  V30 4064 O 387.402 -0.946788 1.69557 0
M  V30 4065 C 384.532 -1.31802 3.21318 0
M  V30 4066 C 383.486 -0.737855 4.21592 0
M  V30 4067 C 382.812 -1.89992 4.99807 0
M  V30 4068 C 384.112 0.275325 5.21574 0
M  V30 4069 H 385.806 0.434798 2.96226 0
M  V30 4070 H 383.352 0.210546 1.42452 0
M  V30 4071 H 385.305 -1.86045 3.78107 0
M  V30 4072 H 384.029 -2.03903 2.5513 0
M  V30 4073 H 382.688 -0.217126 3.65956 0
M  V30 4074 H 382.336 -2.60877 4.30061 0
M  V30 4075 H 382.036 -1.51777 5.6766 0
M  V30 4076 H 383.56 -2.44657 5.59442 0
M  V30 4077 H 384.974 -0.179193 5.7302 0
M  V30 4078 H 383.371 0.573649 5.97352 0
M  V30 4079 H 384.441 1.18903 4.70096 0
M  V30 4080 N 385.784 -1.5574 0.241426 0
M  V30 4081 C 387.012 -2.03208 -0.389134 0
M  V30 4082 C 387.427 -1.12082 -1.51931 0
M  V30 4083 O 386.784 -0.134183 -1.82006 0
M  V30 4084 C 386.835 -3.50064 -0.902087 0
M  V30 4085 O 386.556 -4.37717 0.18305 0
M  V30 4086 C 388.057 -4.13268 -1.60389 0
M  V30 4087 H 385.277 -0.664509 -0.0931053 0
M  V30 4088 H 387.821 -2.0124 0.36369 0
M  V30 4089 H 385.976 -3.52583 -1.60511 0
M  V30 4090 H 386.39 -5.24097 -0.205579 0
M  V30 4091 H 387.864 -5.17733 -1.91458 0
M  V30 4092 H 388.341 -3.59434 -2.52397 0
M  V30 4093 H 388.947 -4.14655 -0.945576 0
M  V30 4094 N 387.262 0.0317525 -1.57568 0
M  V30 4095 C 388.192 1.03274 -2.0942 0
M  V30 4096 C 389.173 1.3788 -0.996143 0
M  V30 4097 O 390.358 1.46811 -1.27122 0
M  V30 4098 C 387.488 2.33448 -2.57137 0
M  V30 4099 C 386.442 2.13091 -3.71182 0
M  V30 4100 C 385.768 3.49001 -4.05095 0
M  V30 4101 C 387.068 1.51928 -4.99715 0
M  V30 4102 H 388.762 0.60112 -2.93303 0
M  V30 4103 H 386.308 0.287705 -1.41097 0
M  V30 4104 H 388.261 3.03802 -2.92032 0
M  V30 4105 H 386.985 2.78665 -1.70333 0
M  V30 4106 H 385.644 1.45171 -3.36632 0
M  V30 4107 H 385.292 3.91862 -3.15362 0
M  V30 4108 H 384.992 3.36207 -4.81911 0
M  V30 4109 H 386.516 4.20721 -4.42522 0
M  V30 4110 H 387.93 2.12196 -5.32584 0
M  V30 4111 H 386.327 1.49716 -5.81124 0
M  V30 4112 H 387.397 0.484811 -4.8247 0
M  V30 4113 N 388.74 1.54641 0.303973 0
M  V30 4114 C 389.989 1.7299 1.03717 0
M  V30 4115 C 390.302 0.521168 1.88529 0
M  V30 4116 O 391.508 0.586408 2.65092 0
M  V30 4117 C 389.964 3.06051 1.89369 0
M  V30 4118 C 389.572 4.34393 1.09574 0
M  V30 4119 C 391.316 3.3376 2.62306 0
M  V30 4120 C 389.223 5.58506 1.94486 0
M  V30 4121 H 388.153 0.64473 0.390947 0
M  V30 4122 H 390.804 1.81124 0.294328 0
M  V30 4123 H 389.186 2.91874 2.67629 0
M  V30 4124 H 390.36 4.59396 0.359485 0
M  V30 4125 H 388.675 4.13597 0.482324 0
M  V30 4126 H 391.272 4.23687 3.26181 0
M  V30 4127 H 391.615 2.52503 3.3098 0
M  V30 4128 H 392.148 3.48894 1.91097 0
M  V30 4129 H 388.887 6.42422 1.30287 0
M  V30 4130 H 388.407 5.37694 2.65792 0
M  V30 4131 H 390.086 5.95651 2.52605 0
M  V30 4132 N 390.218 -0.567019 1.47046 0
M  V30 4133 C 391.464 -1.32658 1.53394 0
M  V30 4134 C 391.797 -1.93254 0.19148 0
M  V30 4135 O 391.072 -1.77338 -0.798844 0
M  V30 4136 C 391.355 -2.44412 2.64452 0
M  V30 4137 C 391.208 -1.88749 4.08282 0
M  V30 4138 C 392.527 -3.46387 2.71485 0
M  V30 4139 H 389.646 -0.48098 0.558415 0
M  V30 4140 H 392.288 -0.635481 1.79058 0
M  V30 4141 H 390.438 -3.03363 2.427 0
M  V30 4142 H 392.11 -1.34134 4.41368 0
M  V30 4143 H 390.353 -1.19481 4.17021 0
M  V30 4144 H 391.024 -2.69491 4.81745 0
M  V30 4145 H 393.5 -2.9734 2.91081 0
M  V30 4146 H 392.376 -4.2202 3.50985 0
M  V30 4147 H 392.637 -4.04616 1.78153 0
M  V30 4148 N 391.696 -1.35014 -0.812953 0
M  V30 4149 C 392.626 -1.30069 -1.93919 0
M  V30 4150 C 393.607 -0.176275 -1.69184 0
M  V30 4151 O 394.792 -0.370227 -1.90638 0
M  V30 4152 C 391.922 -1.06547 -3.30552 0
M  V30 4153 C 390.876 -2.15561 -3.69753 0
M  V30 4154 C 390.202 -1.77214 -5.04479 0
M  V30 4155 C 391.502 -3.57476 -3.808 0
M  V30 4156 H 393.196 -2.24303 -1.98314 0
M  V30 4157 H 390.742 -1.07977 -0.952736 0
M  V30 4158 H 392.695 -1.01729 -4.08937 0
M  V30 4159 H 391.419 -0.0875719 -3.26483 0
M  V30 4160 H 390.078 -2.19466 -2.9365 0
M  V30 4161 H 389.726 -0.780589 -4.96906 0
M  V30 4162 H 389.426 -2.50184 -5.31678 0
M  V30 4163 H 390.95 -1.7391 -5.8531 0
M  V30 4164 H 392.364 -3.55929 -4.4943 0
M  V30 4165 H 390.761 -4.29152 -4.19462 0
M  V30 4166 H 391.831 -3.94091 -2.82525 0
M  V30 4167 N 393.175 1.03435 -1.18907 0
M  V30 4168 C 394.415 1.78302 -0.999391 0
M  V30 4169 C 394.779 1.86353 0.462219 0
M  V30 4170 O 395.98 2.57489 0.771543 0
M  V30 4171 C 394.251 3.17362 -1.64365 0
M  V30 4172 S 395.81 4.08488 -1.6026 0
M  V30 4173 H 392.628 0.613861 -0.358742 0
M  V30 4174 H 395.23 1.23979 -1.51161 0
M  V30 4175 H 393.934 3.09116 -2.69955 0
M  V30 4176 H 393.465 3.76762 -1.13199 0
M  V30 4177 H 395.48 4.92274 -0.622932 0
M  V30 4178 N 394.653 0.992116 1.22453 0
M  V30 4179 C 396.064 0.702776 1.72968 0
M  V30 4180 C 396.415 -0.780399 1.80012 0
M  V30 4181 O 395.54 -1.61007 1.44589 0
M  V30 4182 C 396.135 1.26903 3.14135 0
M  V30 4183 C 394.694 1.02909 3.62059 0
M  V30 4184 C 393.841 1.38969 2.39964 0
M  V30 4185 H 396.792 1.16457 1.07812 0
M  V30 4186 H 396.813 0.647223 3.74955 0
M  V30 4187 H 396.325 2.34851 3.08977 0
M  V30 4188 H 394.426 -0.0337979 3.72585 0
M  V30 4189 H 394.539 1.69191 4.48231 0
M  V30 4190 H 392.903 0.808279 2.41535 0
M  V30 4191 H 393.686 2.4792 2.37467 0
M  V30 4192 N 396.131 -1.37776 0.765217 0
M  V30 4193 C 397.041 -2.34135 0.147666 0
M  V30 4194 C 398.057 -1.59854 -0.687215 0
M  V30 4195 O 399.233 -1.91983 -0.608659 0
M  V30 4196 C 396.298 -3.3901 -0.72617 0
M  V30 4197 C 395.359 -4.2912 0.124417 0
M  V30 4198 C 394.592 -5.28986 -0.707807 0
M  V30 4199 O 394.815 -5.36205 -1.94525 0
M  V30 4200 O 393.749 -6.01779 -0.12046 0
M  V30 4201 H 397.575 -2.88664 0.943758 0
M  V30 4202 H 395.16 -1.39824 0.526277 0
M  V30 4203 H 397.042 -4.03195 -1.22524 0
M  V30 4204 H 395.717 -2.86819 -1.50056 0
M  V30 4205 H 394.624 -3.68057 0.669696 0
M  V30 4206 H 395.957 -4.84598 0.861736 0
M  V30 4207 N 397.609 -0.515225 -1.4894 0
M  V30 4208 C 398.559 0.275113 -2.26334 0
M  V30 4209 C 399.543 0.923007 -1.31793 0
M  V30 4210 O 400.735 0.828254 -1.56426 0
M  V30 4211 C 397.864 1.33041 -3.16473 0
M  V30 4212 C 396.95 0.688051 -4.18481 0
M  V30 4213 N 397.341 -0.217638 -5.05332 0
M  V30 4214 C 395.639 0.94699 -4.3583 0
M  V30 4215 C 396.34 -0.58676 -5.78733 0
M  V30 4216 N 395.316 0.0486966 -5.43578 0
M  V30 4217 H 399.118 -0.421876 -2.90856 0
M  V30 4218 H 396.632 -0.332249 -1.58965 0
M  V30 4219 H 398.629 1.9102 -3.70563 0
M  V30 4220 H 397.289 2.02894 -2.53504 0
M  V30 4221 H 398.3 -0.589343 -5.14536 0
M  V30 4222 H 394.977 1.63719 -3.8406 0
M  V30 4223 H 396.367 -1.32855 -6.58634 0
M  V30 4224 N 399.087 1.5561 -0.249682 0
M  V30 4225 C 400.498 1.84979 0.252949 0
M  V30 4226 C 400.849 1.17153 1.57384 0
M  V30 4227 O 399.974 0.450884 2.11651 0
M  V30 4228 C 400.569 3.35584 0.465732 0
M  V30 4229 C 399.128 3.65169 0.912624 0
M  V30 4230 C 398.275 2.77299 -0.00859085 0
M  V30 4231 H 401.226 1.51513 -0.47217 0
M  V30 4232 H 401.247 3.57313 1.30795 0
M  V30 4233 H 400.759 3.8492 -0.49579 0
M  V30 4234 H 398.86 3.21312 1.88652 0
M  V30 4235 H 398.973 4.72912 0.767559 0
M  V30 4236 H 397.337 2.49678 0.50327 0
M  V30 4237 H 398.12 3.29442 -0.965537 0
M  V30 4238 N 400.565 -0.0233959 1.57583 0
M  V30 4239 C 401.793 -0.724682 1.93794 0
M  V30 4240 C 402.208 -1.68588 0.849912 0
M  V30 4241 O 401.565 -1.81676 -0.173204 0
M  V30 4242 C 401.616 -1.47684 3.29957 0
M  V30 4243 O 401.337 -0.554222 4.3458 0
M  V30 4244 C 402.838 -2.27477 3.80485 0
M  V30 4245 H 400.058 -0.203317 0.639455 0
M  V30 4246 H 402.602 0.0207653 2.04489 0
M  V30 4247 H 400.757 -2.17412 3.20641 0
M  V30 4248 H 401.171 -1.08232 5.13212 0
M  V30 4249 H 402.645 -2.7564 4.78254 0
M  V30 4250 H 403.122 -3.09144 3.11972 0
M  V30 4251 H 403.728 -1.62813 3.92902 0
M  V30 4252 N 402.043 -1.548 -0.295768 0
M  V30 4253 C 403.283 -1.76069 -1.03823 0
M  V30 4254 C 403.647 -0.537992 -1.84309 0
M  V30 4255 O 404.848 -0.628514 -2.61349 0
M  V30 4256 C 403.119 -3.01705 -1.91596 0
M  V30 4257 S 404.678 -3.43998 -2.72416 0
M  V30 4258 H 401.496 -0.618852 -0.350062 0
M  V30 4259 H 404.098 -1.93009 -0.31106 0
M  V30 4260 H 402.802 -3.88812 -1.31351 0
M  V30 4261 H 402.333 -2.87366 -2.68671 0
M  V30 4262 H 404.348 -3.0148 -3.94112 0
M  V30 4263 N 403.521 0.559213 -1.47345 0
M  V30 4264 C 404.769 1.31388 -1.53563 0
M  V30 4265 C 405.09 1.93985 -0.198678 0
M  V30 4266 O 404.36 1.79825 0.777167 0
M  V30 4267 H 402.94 0.487901 -0.565652 0
M  V30 4268 H 405.602 0.65315 -1.8363 0
M  V30 4269 H 404.698 2.10844 -2.30111 0
M  V30 4270 N 404.999 1.35443 0.805782 0
M  V30 4271 C 406.239 1.30127 1.57627 0
M  V30 4272 C 406.603 -0.122567 1.91608 0
M  V30 4273 O 407.804 -0.300107 2.67119 0
M  V30 4274 C 406.075 2.18314 2.82973 0
M  V30 4275 S 407.634 2.30521 3.7337 0
M  V30 4276 H 404.452 0.462439 0.540066 0
M  V30 4277 H 407.054 1.70843 0.95042 0
M  V30 4278 H 405.758 3.20741 2.56034 0
M  V30 4279 H 405.289 1.78558 3.50543 0
M  V30 4280 H 407.304 1.49062 4.73281 0
M  V30 4281 N 406.477 -1.02803 1.19454 0
M  V30 4282 C 407.726 -1.7562 0.991996 0
M  V30 4283 C 408.039 -1.89672 -0.477901 0
M  V30 4284 O 409.245 -2.59468 -0.799287 0
M  V30 4285 C 407.701 -3.15812 1.72601 0
M  V30 4286 C 407.309 -3.0981 3.23607 0
M  V30 4287 C 409.053 -3.92918 1.60674 0
M  V30 4288 C 406.96 -4.44939 3.89594 0
M  V30 4289 H 405.89 -0.658352 0.367543 0
M  V30 4290 H 408.541 -1.15044 1.42959 0
M  V30 4291 H 406.923 -3.7686 1.21624 0
M  V30 4292 H 408.097 -2.58138 3.81709 0
M  V30 4293 H 406.412 -2.46201 3.35819 0
M  V30 4294 H 409.009 -4.9287 2.07323 0
M  V30 4295 H 409.352 -4.12502 0.561025 0
M  V30 4296 H 409.885 -3.38472 2.09001 0
M  V30 4297 H 406.624 -4.30559 4.94267 0
M  V30 4298 H 406.144 -4.96664 3.36281 0
M  V30 4299 H 407.823 -5.1382 3.93189 0
M  V30 4300 N 407.956 -0.998596 -1.21925 0
M  V30 4301 C 409.203 -0.677663 -1.90824 0
M  V30 4302 C 409.531 0.790905 -1.77693 0
M  V30 4303 O 408.786 1.58817 -1.14349 0
M  V30 4304 C 409.085 -1.03648 -3.42041 0
M  V30 4305 C 408.751 -2.49825 -3.75364 0
M  V30 4306 C 407.413 -2.8977 -3.8417 0
M  V30 4307 C 409.765 -3.44545 -3.91073 0
M  V30 4308 C 407.093 -4.23412 -4.06127 0
M  V30 4309 C 409.445 -4.77853 -4.14535 0
M  V30 4310 C 408.109 -5.17531 -4.21566 0
M  V30 4311 H 407.379 -0.247975 -0.698276 0
M  V30 4312 H 410.026 -1.25584 -1.44571 0
M  V30 4313 H 408.331 -0.376457 -3.89987 0
M  V30 4314 H 410.028 -0.766113 -3.93614 0
M  V30 4315 H 406.618 -2.17866 -3.69097 0
M  V30 4316 H 410.802 -3.14853 -3.83642 0
M  V30 4317 H 406.058 -4.53734 -4.09799 0
M  V30 4318 H 410.232 -5.51189 -4.25633 0
M  V30 4319 H 407.859 -6.21102 -4.38333 0
M  V30 4320 N 409.434 1.37368 -0.772513 0
M  V30 4321 C 410.381 2.30262 -0.157488 0
M  V30 4322 C 411.351 1.51137 0.688965 0
M  V30 4323 O 412.536 1.79704 0.641168 0
M  V30 4324 C 409.676 3.37611 0.715045 0
M  V30 4325 C 408.789 4.31746 -0.148098 0
M  V30 4326 C 407.924 5.26171 0.729213 0
M  V30 4327 C 406.963 6.11948 -0.136418 0
M  V30 4328 N 406.1 6.98613 0.698914 0
M  V30 4329 H 410.94 2.82277 -0.955179 0
M  V30 4330 H 408.477 1.38957 -0.482631 0
M  V30 4331 H 410.435 3.98479 1.23575 0
M  V30 4332 H 409.065 2.86959 1.47833 0
M  V30 4333 H 408.117 3.72178 -0.786613 0
M  V30 4334 H 409.429 4.92084 -0.81579 0
M  V30 4335 H 408.583 5.92247 1.31637 0
M  V30 4336 H 407.322 4.66246 1.43059 0
M  V30 4337 H 406.327 5.4485 -0.736102 0
M  V30 4338 H 407.552 6.73945 -0.835134 0
M  V30 4339 H 405.498 6.41215 1.38489 0
M  V30 4340 H 405.415 7.55948 0.0885358 0
M  V30 4341 H 406.683 7.69077 1.27044 0
M  V30 4342 N 410.912 0.523116 1.48665 0
M  V30 4343 C 411.86 -0.256859 2.31177 0
M  V30 4344 C 412.854 -0.94199 1.40794 0
M  V30 4345 O 414.06 -0.867157 1.57735 0
M  V30 4346 H 410.435 -0.1017 0.745091 0
M  V30 4347 H 412.406 0.458739 2.94853 0
M  V30 4348 C 411.155 -1.29503 3.22683 0
M  V30 4349 H 410.478 -0.777248 3.92172 0
M  V30 4350 H 411.918 -1.81233 3.83315 0
M  V30 4351 C 410.377 -2.32501 2.43813 0
M  V30 4352 O 410.907 -3.3881 2.15803 0
M  V30 4353 N 409.113 -2.05538 2.05432 0
M  V30 4354 H 408.66 -1.19104 2.28412 0
M  V30 4355 H 408.618 -2.74676 1.52973 0
M  V30 4356 N 412.39 -1.55475 0.257931 0
M  V30 4357 C 413.637 -1.99207 -0.363728 0
M  V30 4358 C 413.965 -1.1462 -1.57139 0
M  V30 4359 O 413.22 -0.199653 -1.94679 0
M  V30 4360 C 413.519 -3.48183 -0.806433 0
M  V30 4361 C 413.185 -4.49936 0.294684 0
M  V30 4362 C 411.847 -4.77481 0.597076 0
M  V30 4363 C 414.199 -5.10769 1.03751 0
M  V30 4364 C 411.527 -5.63132 1.64618 0
M  V30 4365 C 413.879 -5.97558 2.07622 0
M  V30 4366 C 412.543 -6.23432 2.38514 0
M  V30 4367 H 411.813 -0.728949 -0.133097 0
M  V30 4368 H 414.46 -1.8793 0.368059 0
M  V30 4369 H 412.765 -3.56848 -1.61761 0
M  V30 4370 H 414.462 -3.79415 -1.29789 0
M  V30 4371 H 411.052 -4.28572 0.0488649 0
M  V30 4372 H 415.236 -4.89527 0.817149 0
M  V30 4373 H 410.492 -5.8143 1.89074 0
M  V30 4374 H 414.666 -6.43735 2.65666 0
M  V30 4375 H 412.293 -6.89594 3.19943 0
M  V30 4376 N 413.868 0.0150385 -1.57593 0
M  V30 4377 C 414.816 1.02958 -2.08572 0
M  V30 4378 C 415.81 1.36554 -1.00246 0
M  V30 4379 O 417.016 1.35295 -1.18724 0
M  V30 4380 H 413.391 0.349619 -0.665786 0
M  V30 4381 H 415.362 0.573932 -2.92829 0
M  V30 4382 C 414.111 2.31752 -2.59203 0
M  V30 4383 H 413.434 2.06765 -3.42182 0
M  V30 4384 H 414.874 3.01053 -2.98568 0
M  V30 4385 C 413.333 3.01692 -1.49945 0
M  V30 4386 O 413.863 3.92083 -0.873704 0
M  V30 4387 N 412.069 2.6326 -1.23056 0
M  V30 4388 H 411.616 1.89838 -1.74125 0
M  V30 4389 H 411.574 3.10372 -0.501685 0
M  V30 4390 N 415.346 1.54954 0.287554 0
M  V30 4391 C 416.276 1.89839 1.35954 0
M  V30 4392 C 417.257 0.758675 1.52244 0
M  V30 4393 O 418.442 1.01557 1.65529 0
M  V30 4394 C 415.572 2.15753 2.72154 0
M  V30 4395 C 414.526 3.3159 2.70614 0
M  V30 4396 C 413.852 3.42952 4.10229 0
M  V30 4397 C 415.152 4.68359 2.31165 0
M  V30 4398 H 416.846 2.79625 1.07007 0
M  V30 4399 H 414.392 1.3454 0.513316 0
M  V30 4400 H 416.345 2.38743 3.47246 0
M  V30 4401 H 415.069 1.22752 3.02654 0
M  V30 4402 H 413.728 3.08545 1.97979 0
M  V30 4403 H 413.376 2.47443 4.37928 0
M  V30 4404 H 413.076 4.20826 4.10097 0
M  V30 4405 H 414.6 3.68218 4.87081 0
M  V30 4406 H 416.014 4.9099 2.95976 0
M  V30 4407 H 414.411 5.49044 2.42221 0
M  V30 4408 H 415.481 4.68165 1.26291 0
M  V30 4409 N 416.824 -0.551391 1.4764 0
M  V30 4410 C 418.071 -1.3083 1.54563 0
M  V30 4411 C 418.399 -1.93359 0.210361 0
M  V30 4412 O 417.654 -1.78721 -0.797332 0
M  V30 4413 C 417.953 -2.43469 2.61644 0
M  V30 4414 C 417.619 -1.98732 4.04742 0
M  V30 4415 C 416.281 -1.86248 4.43695 0
M  V30 4416 C 418.633 -1.64659 4.94507 0
M  V30 4417 C 415.961 -1.37995 5.70241 0
M  V30 4418 C 418.313 -1.17875 6.21521 0
M  V30 4419 C 416.977 -1.03992 6.5935 0
M  V30 4420 H 416.247 -0.478741 0.565587 0
M  V30 4421 H 418.894 -0.617697 1.81264 0
M  V30 4422 H 417.199 -3.18109 2.28722 0
M  V30 4423 H 418.896 -3.01642 2.64222 0
M  V30 4424 H 415.486 -2.09393 3.73968 0
M  V30 4425 H 419.67 -1.73174 4.65107 0
M  V30 4426 H 414.926 -1.25915 5.98294 0
M  V30 4427 H 419.1 -0.905739 6.90485 0
M  V30 4428 H 416.727 -0.663794 7.57296 0
M  V30 4429 N 418.302 -1.35869 -0.798587 0
M  V30 4430 C 419.232 -1.32118 -1.92528 0
M  V30 4431 C 420.213 -0.194209 -1.68988 0
M  V30 4432 O 421.398 -0.390426 -1.90235 0
M  V30 4433 C 418.528 -1.10047 -3.29404 0
M  V30 4434 C 417.482 -2.19471 -3.67446 0
M  V30 4435 C 416.808 -1.82555 -5.02571 0
M  V30 4436 C 418.108 -3.61495 -3.76987 0
M  V30 4437 H 419.802 -2.26394 -1.95924 0
M  V30 4438 H 417.348 -1.08981 -0.94123 0
M  V30 4439 H 419.301 -1.06061 -4.07835 0
M  V30 4440 H 418.025 -0.122195 -3.26371 0
M  V30 4441 H 416.684 -2.22568 -2.91306 0
M  V30 4442 H 416.332 -0.833249 -4.9605 0
M  V30 4443 H 416.032 -2.5581 -5.28995 0
M  V30 4444 H 417.556 -1.80108 -5.83432 0
M  V30 4445 H 418.97 -3.60676 -4.4563 0
M  V30 4446 H 417.367 -4.33577 -4.14887 0
M  V30 4447 H 418.437 -3.97065 -2.78329 0
M  V30 4448 N 419.78 1.02168 -1.19998 0
M  V30 4449 C 420.743 2.08765 -0.94604 0
M  V30 4450 C 421.743 1.60618 0.0763846 0
M  V30 4451 O 422.933 1.73472 -0.159135 0
M  V30 4452 C 420.065 3.38262 -0.423255 0
M  V30 4453 H 421.258 2.32726 -1.89153 0
M  V30 4454 H 418.811 1.1889 -1.01464 0
M  V30 4455 H 419.546 3.19974 0.527938 0
M  V30 4456 H 419.331 3.74532 -1.16053 0
M  V30 4457 H 420.821 4.16759 -0.264911 0
M  V30 4458 N 421.258 1.00505 1.21394 0
M  V30 4459 C 422.188 0.585684 2.26035 0
M  V30 4460 C 423.169 -0.393525 1.65485 0
M  V30 4461 O 424.354 -0.281497 1.92149 0
M  V30 4462 C 421.484 -0.0884283 3.47187 0
M  V30 4463 C 420.438 0.810567 4.20254 0
M  V30 4464 C 419.764 0.00286382 5.347 0
M  V30 4465 C 421.064 2.1132 4.77641 0
M  V30 4466 H 422.758 1.46039 2.61368 0
M  V30 4467 H 420.304 0.703648 1.25638 0
M  V30 4468 H 422.257 -0.393286 4.19561 0
M  V30 4469 H 420.981 -0.997766 3.10986 0
M  V30 4470 H 419.64 1.09925 3.49731 0
M  V30 4471 H 419.288 -0.907765 4.94741 0
M  V30 4472 H 418.988 0.601444 5.84514 0
M  V30 4473 H 420.512 -0.295808 6.09883 0
M  V30 4474 H 421.926 1.87148 5.41893 0
M  V30 4475 H 420.323 2.66164 5.37845 0
M  V30 4476 H 421.393 2.78393 3.9702 0
M  V30 4477 N 422.737 -1.36956 0.779787 0
M  V30 4478 C 423.986 -1.98738 0.344405 0
M  V30 4479 C 424.299 -1.62596 -1.08728 0
M  V30 4480 O 425.505 -2.1754 -1.62445 0
M  V30 4481 C 423.961 -3.5544 0.564829 0
M  V30 4482 C 423.569 -4.00514 2.0073 0
M  V30 4483 C 425.313 -4.24059 0.193471 0
M  V30 4484 C 423.22 -5.49957 2.17489 0
M  V30 4485 H 422.15 -0.743561 0.12503 0
M  V30 4486 H 424.801 -1.56381 0.960057 0
M  V30 4487 H 423.183 -3.95817 -0.120397 0
M  V30 4488 H 424.357 -3.71362 2.72814 0
M  V30 4489 H 422.672 -3.44703 2.336 0
M  V30 4490 H 425.269 -5.33874 0.297097 0
M  V30 4491 H 425.612 -4.07378 -0.857263 0
M  V30 4492 H 426.145 -3.89012 0.831556 0
M  V30 4493 H 422.884 -5.71574 3.2091 0
M  V30 4494 H 422.404 -5.80767 1.49899 0
M  V30 4495 H 424.083 -6.16043 1.97738 0
M  V30 4496 N 424.215 -0.530993 -1.48385 0
M  V30 4497 C 425.464 0.00474348 -2.01699 0
M  V30 4498 C 425.777 1.35227 -1.41325 0
M  V30 4499 O 426.983 1.97643 -1.86144 0
M  V30 4500 C 425.439 0.0588473 -3.59852 0
M  V30 4501 C 425.047 -1.28385 -4.2921 0
M  V30 4502 C 426.791 0.543358 -4.21008 0
M  V30 4503 C 424.698 -1.19028 -5.79298 0
M  V30 4504 H 423.628 0.00554317 -0.75398 0
M  V30 4505 H 426.279 -0.674924 -1.70637 0
M  V30 4506 H 424.661 0.803612 -3.8776 0
M  V30 4507 H 425.835 -2.04426 -4.12973 0
M  V30 4508 H 424.15 -1.70418 -3.7993 0
M  V30 4509 H 426.747 0.631351 -5.3096 0
M  V30 4510 H 427.09 1.54937 -3.86394 0
M  V30 4511 H 427.623 -0.145754 -3.97533 0
M  V30 4512 H 424.362 -2.17147 -6.18488 0
M  V30 4513 H 423.882 -0.471246 -5.97946 0
M  V30 4514 H 425.561 -0.881365 -6.40969 0
M  V30 4515 N 425.693 1.55336 -0.266172 0
M  V30 4516 C 426.933 2.01303 0.354459 0
M  V30 4517 C 427.297 1.15046 1.53715 0
M  V30 4518 O 428.498 1.50554 2.22681 0
M  V30 4519 C 426.769 3.49748 0.735579 0
M  V30 4520 S 428.328 4.1771 1.34401 0
M  V30 4521 H 425.146 0.702333 0.110674 0
M  V30 4522 H 427.748 1.91653 -0.385916 0
M  V30 4523 H 426.452 4.10181 -0.134196 0
M  V30 4524 H 425.983 3.63364 1.50764 0
M  V30 4525 H 427.998 4.20594 2.63278 0
M  V30 4526 N 427.171 -0.0066808 1.57599 0
M  V30 4527 C 428.119 -1.01851 2.09115 0
M  V30 4528 C 429.113 -1.36021 1.00969 0
M  V30 4529 O 430.319 -1.34663 1.19439 0
M  V30 4530 H 426.694 -0.346083 0.667631 0
M  V30 4531 H 428.665 -0.558394 2.93129 0
M  V30 4532 C 427.414 -2.30374 2.60429 0
M  V30 4533 H 426.737 -2.04947 3.43273 0
M  V30 4534 H 428.177 -2.99466 3.00161 0
M  V30 4535 C 426.636 -3.00893 1.51542 0
M  V30 4536 O 427.166 -3.91614 0.894484 0
M  V30 4537 N 425.372 -2.62603 1.2445 0
M  V30 4538 H 424.919 -1.88911 1.75129 0
M  V30 4539 H 424.877 -3.10101 0.518137 0
M  V30 4540 N 428.649 -1.55105 -0.279332 0
M  V30 4541 C 429.612 -1.86783 -1.32834 0
M  V30 4542 C 430.612 -0.74199 -1.42657 0
M  V30 4543 O 431.802 -1.0102 -1.41918 0
M  V30 4544 C 428.934 -2.06746 -2.71052 0
M  V30 4545 H 430.127 -2.8055 -1.05979 0
M  V30 4546 H 427.68 -1.47499 -0.517087 0
M  V30 4547 H 428.415 -1.15339 -3.03097 0
M  V30 4548 H 428.2 -2.88711 -2.65309 0
M  V30 4549 H 429.69 -2.32549 -3.46858 0
M  V30 4550 N 430.127 0.543554 -1.4793 0
M  V30 4551 C 431.376 1.29649 -1.54512 0
M  V30 4552 C 431.689 1.94382 -0.217973 0
M  V30 4553 O 432.895 2.71017 -0.161908 0
M  V30 4554 C 431.351 2.35175 -2.72435 0
M  V30 4555 C 430.959 1.76572 -4.11736 0
M  V30 4556 C 432.703 3.11564 -2.8832 0
M  V30 4557 C 430.61 2.79958 -5.20939 0
M  V30 4558 H 429.54 0.487541 -0.57517 0
M  V30 4559 H 432.191 0.575708 -1.74235 0
M  V30 4560 H 430.573 3.10229 -2.46118 0
M  V30 4561 H 431.747 1.07799 -4.48013 0
M  V30 4562 H 430.062 1.12722 -4.00852 0
M  V30 4563 H 432.659 3.88794 -3.67074 0
M  V30 4564 H 433.002 3.66594 -1.97268 0
M  V30 4565 H 433.535 2.43623 -3.14472 0
M  V30 4566 H 430.274 2.29766 -6.13912 0
M  V30 4567 H 429.794 3.47101 -4.89164 0
M  V30 4568 H 431.473 3.43198 -5.48474 0
M  V30 4569 N 431.605 1.3629 0.791371 0
M  V30 4570 C 432.854 1.29742 1.54434 0
M  V30 4571 C 433.167 -0.121729 1.95221 0
M  V30 4572 O 434.373 -0.309579 2.69729 0
M  V30 4573 C 432.829 2.27623 2.78776 0
M  V30 4574 C 432.437 3.74963 2.45166 0
M  V30 4575 C 434.181 2.30047 3.56761 0
M  V30 4576 C 432.088 4.64626 3.65891 0
M  V30 4577 H 431.018 0.482113 0.579727 0
M  V30 4578 H 433.669 1.61642 0.868565 0
M  V30 4579 H 432.051 1.88714 3.48142 0
M  V30 4580 H 433.225 4.22596 1.83709 0
M  V30 4581 H 431.54 3.75295 1.80396 0
M  V30 4582 H 434.137 2.94247 4.46456 0
M  V30 4583 H 434.48 1.30846 3.95203 0
M  V30 4584 H 435.013 2.67563 2.94372 0
M  V30 4585 H 431.752 5.64883 3.32547 0
M  V30 4586 H 431.272 4.2171 4.26521 0
M  V30 4587 H 432.951 4.80801 4.32943 0
M  V30 4588 N 433.083 -1.0153 1.20538 0
M  V30 4589 C 434.36 -1.72327 0.925343 0
M  V30 4590 C 434.74 -2.03383 -0.565547 0
M  V30 4591 O 434.088 -1.69934 -1.52757 0
M  V30 4592 C 434.298 -2.9902 1.79967 0
M  V30 4593 C 435.646 -3.72258 2.04228 0
M  V30 4594 O 436.67 -3.08979 1.77231 0
M  V30 4595 O 435.529 -4.86053 2.4983 0
M  V30 4596 H 432.623 -0.751099 0.346092 0
M  V30 4597 H 435.169 -1.07366 1.31417 0
M  V30 4598 H 433.941 -2.72402 2.80915 0
M  V30 4599 H 433.564 -3.71721 1.41099 0
M  V30 4600 N 434.561 -1.01147 -1.20859 0
M  V30 4601 C 435.972 -0.730205 -1.71828 0
M  V30 4602 C 436.323 0.751662 -1.8123 0
M  V30 4603 O 435.448 1.58686 -1.47132 0
M  V30 4604 C 436.043 -1.31885 -3.12077 0
M  V30 4605 C 434.602 -1.08656 -3.60376 0
M  V30 4606 C 433.749 -1.42769 -2.37723 0
M  V30 4607 H 436.7 -1.18158 -1.05945 0
M  V30 4608 H 436.721 -0.706793 -3.73878 0
M  V30 4609 H 436.233 -2.39737 -3.05201 0
M  V30 4610 H 434.334 -0.0254814 -3.72591 0
M  V30 4611 H 434.447 -1.76301 -4.45483 0
M  V30 4612 H 432.811 -0.846603 -2.40218 0
M  V30 4613 H 433.594 -2.51666 -2.33493 0
M  V30 4614 N 436.039 1.36541 -0.78704 0
M  V30 4615 C 436.969 2.32659 -0.197992 0
M  V30 4616 C 437.95 1.56533 0.665697 0
M  V30 4617 O 439.135 1.84698 0.60001 0
M  V30 4618 C 436.265 3.40778 0.669901 0
M  V30 4619 C 435.219 4.27897 -0.0937039 0
M  V30 4620 C 434.545 5.27163 0.894629 0
M  V30 4621 C 435.845 5.06334 -1.28154 0
M  V30 4622 H 437.539 2.82171 -1.00099 0
M  V30 4623 H 435.085 1.35665 -0.482793 0
M  V30 4624 H 437.038 4.07008 1.09191 0
M  V30 4625 H 435.762 2.89827 1.50558 0
M  V30 4626 H 434.421 3.6322 -0.49666 0
M  V30 4627 H 434.069 4.72486 1.72527 0
M  V30 4628 H 433.769 5.86317 0.388149 0
M  V30 4629 H 435.293 5.96266 1.31525 0
M  V30 4630 H 436.707 5.65617 -0.93541 0
M  V30 4631 H 435.104 5.74888 -1.72115 0
M  V30 4632 H 436.174 4.38114 -2.07807 0
M  V30 4633 N 437.518 0.538854 1.48102 0
M  V30 4634 C 438.767 0.0059532 2.01699 0
M  V30 4635 C 439.08 -1.34476 1.42041 0
M  V30 4636 O 440.286 -1.96653 1.87189 0
M  V30 4637 C 438.742 -0.0397627 3.59878 0
M  V30 4638 C 438.35 1.30659 4.28523 0
M  V30 4639 C 440.094 -0.521024 4.2129 0
M  V30 4640 C 438.001 1.22098 5.78659 0
M  V30 4641 H 436.931 -0.00154456 0.753998 0
M  V30 4642 H 439.582 0.683963 1.70277 0
M  V30 4643 H 437.964 -0.783037 3.88181 0
M  V30 4644 H 439.138 2.06613 4.11883 0
M  V30 4645 H 437.453 1.7243 3.79021 0
M  V30 4646 H 440.05 -0.603184 5.31287 0
M  V30 4647 H 440.393 -1.52885 3.8721 0
M  V30 4648 H 440.926 0.166834 3.9745 0
M  V30 4649 H 437.665 2.20424 6.17328 0
M  V30 4650 H 437.185 0.50295 5.97688 0
M  V30 4651 H 438.864 0.915345 6.40492 0
M  V30 4652 N 438.996 -1.55193 0.274407 0
M  V30 4653 C 440.226 -2.03692 -0.345442 0
M  V30 4654 C 440.634 -1.15224 -1.50067 0
M  V30 4655 O 439.977 -0.164749 -1.8296 0
M  V30 4656 C 440.039 -3.48325 -0.88939 0
M  V30 4657 C 439.703 -4.56794 0.137115 0
M  V30 4658 C 440.7 -5.11028 0.956378 0
M  V30 4659 C 438.385 -5.01568 0.27115 0
M  V30 4660 C 440.379 -6.08552 1.89587 0
M  V30 4661 C 438.066 -5.98918 1.21412 0
M  V30 4662 C 439.064 -6.52291 2.02498 0
M  V30 4663 O 438.752 -7.47738 2.952 0
M  V30 4664 H 438.484 -0.670893 -0.0829332 0
M  V30 4665 H 441.038 -2.01387 0.404056 0
M  V30 4666 H 439.268 -3.47867 -1.68895 0
M  V30 4667 H 440.957 -3.80167 -1.42225 0
M  V30 4668 H 441.723 -4.7725 0.863559 0
M  V30 4669 H 437.602 -4.5967 -0.349987 0
M  V30 4670 H 441.146 -6.50137 2.52918 0
M  V30 4671 H 437.043 -6.32114 1.30776 0
M  V30 4672 H 437.811 -7.65451 2.89874 0
M  V30 4673 N 440.474 -0.00167713 -1.576 0
M  V30 4674 C 441.437 0.974046 -2.07473 0
M  V30 4675 C 442.437 1.27143 -0.984444 0
M  V30 4676 O 443.627 1.21633 -1.24703 0
M  V30 4677 C 440.759 2.29849 -2.51759 0
M  V30 4678 H 441.952 0.54262 -2.9495 0
M  V30 4679 H 439.505 0.245829 -1.54355 0
M  V30 4680 H 440.24 2.77677 -1.67529 0
M  V30 4681 H 440.025 2.09584 -3.31386 0
M  V30 4682 H 441.515 2.9984 -2.90664 0
M  V30 4683 N 441.952 1.55251 0.271103 0
M  V30 4684 C 443.199 1.75946 1.00245 0
M  V30 4685 C 443.527 0.561611 1.86215 0
M  V30 4686 O 442.782 -0.455832 1.90317 0
M  V30 4687 C 443.081 3.01879 1.91321 0
M  V30 4688 C 442.747 4.34337 1.21086 0
M  V30 4689 C 441.409 4.70338 1.01666 0
M  V30 4690 C 443.761 5.16325 0.71119 0
M  V30 4691 C 441.089 5.8588 0.310099 0
M  V30 4692 C 443.441 6.32597 0.0182157 0
M  V30 4693 C 442.105 6.67236 -0.18768 0
M  V30 4694 H 441.375 0.643833 0.366824 0
M  V30 4695 H 444.022 1.89521 0.27458 0
M  V30 4696 H 442.327 2.83212 2.70736 0
M  V30 4697 H 444.024 3.15088 2.48033 0
M  V30 4698 H 440.614 4.06043 1.37213 0
M  V30 4699 H 444.798 4.88987 0.848844 0
M  V30 4700 H 440.054 6.1124 0.139873 0
M  V30 4701 H 444.228 6.9538 -0.376711 0
M  V30 4702 H 441.855 7.56618 -0.73715 0
M  V30 4703 N 443.43 -0.535701 1.48216 0
M  V30 4704 C 444.38 -1.63688 1.58714 0
M  V30 4705 C 445.364 -1.54635 0.444615 0
M  V30 4706 O 446.556 -1.62753 0.695742 0
M  V30 4707 C 443.685 -3.02423 1.62466 0
M  V30 4708 C 442.771 -3.16601 2.82178 0
M  V30 4709 N 443.162 -3.00771 4.06658 0
M  V30 4710 C 441.46 -3.47645 2.79391 0
M  V30 4711 C 442.161 -3.18213 4.86945 0
M  V30 4712 N 441.137 -3.45528 4.19656 0
M  V30 4713 H 444.939 -1.5005 2.5271 0
M  V30 4714 H 442.453 -0.741018 1.44508 0
M  V30 4715 H 444.45 -3.81517 1.6808 0
M  V30 4716 H 443.11 -3.17157 0.695826 0
M  V30 4717 H 444.121 -2.77652 4.37184 0
M  V30 4718 H 440.798 -3.68771 1.95739 0
M  V30 4719 H 442.188 -3.1076 5.95716 0
M  V30 4720 N 444.908 -1.36708 -0.784132 0
M  V30 4721 C 446.133 -1.34565 -1.5782 0
M  V30 4722 C 446.558 0.0695257 -1.87971 0
M  V30 4723 O 445.916 1.04302 -1.48293 0
M  V30 4724 C 445.964 -2.17952 -2.87279 0
M  V30 4725 O 445.068 -1.57563 -3.81114 0
M  V30 4726 H 444.409 -0.460337 -0.478524 0
M  V30 4727 H 446.939 -1.80064 -0.971495 0
M  V30 4728 H 446.949 -2.30721 -3.365 0
M  V30 4729 H 445.624 -3.20823 -2.64661 0
M  V30 4730 H 444.201 -1.53764 -3.39722 0
M  V30 4731 N 446.386 1.0089 -1.21074 0
M  V30 4732 C 447.318 2.09737 -0.924291 0
M  V30 4733 C 448.331 1.62546 0.0909809 0
M  V30 4734 O 449.52 1.77942 -0.141021 0
M  V30 4735 C 446.62 3.36922 -0.36559 0
M  V30 4736 C 445.793 4.13216 -1.43426 0
M  V30 4737 C 444.852 5.18696 -0.885496 0
M  V30 4738 O 443.878 5.47176 -1.56801 0
M  V30 4739 N 445.08 5.79718 0.301227 0
M  V30 4740 H 447.845 2.34895 -1.8613 0
M  V30 4741 H 445.406 1.17341 -1.11546 0
M  V30 4742 H 447.398 4.04697 0.0158407 0
M  V30 4743 H 445.968 3.08952 0.476149 0
M  V30 4744 H 445.188 3.40301 -1.9897 0
M  V30 4745 H 446.476 4.60967 -2.15376 0
M  V30 4746 H 445.874 5.58926 0.872849 0
M  V30 4747 H 444.431 6.48804 0.624211 0
M  V30 4748 N 447.864 1.01787 1.20321 0
M  V30 4749 C 448.774 0.598898 2.26827 0
M  V30 4750 C 449.79 -0.36418 1.70146 0
M  V30 4751 O 450.966 -0.224812 2.00141 0
M  V30 4752 C 448.031 -0.0549769 3.46656 0
M  V30 4753 C 447.092 0.954205 4.18561 0
M  V30 4754 C 446.325 0.331439 5.3267 0
M  V30 4755 O 446.548 -0.86851 5.63749 0
M  V30 4756 O 445.482 1.0488 5.92692 0
M  V30 4757 H 449.308 1.48562 2.64883 0
M  V30 4758 H 446.893 0.787434 1.26964 0
M  V30 4759 H 448.775 -0.420102 4.19301 0
M  V30 4760 H 447.45 -0.915876 3.10473 0
M  V30 4761 H 446.357 1.37072 3.48083 0
M  V30 4762 H 447.69 1.78511 4.58688 0
M  V30 4763 N 449.342 -1.36122 0.79427 0
M  V30 4764 C 450.272 -2.32551 0.210328 0
M  V30 4765 C 451.253 -1.56884 -0.657386 0
M  V30 4766 O 452.438 -1.85014 -0.590207 0
M  V30 4767 C 449.568 -3.41128 -0.651819 0
M  V30 4768 C 448.522 -4.27842 0.116395 0
M  V30 4769 C 447.848 -5.2763 -0.86666 0
M  V30 4770 C 449.148 -5.05647 1.30837 0
M  V30 4771 H 450.842 -2.81636 1.01594 0
M  V30 4772 H 448.388 -1.35407 0.489981 0
M  V30 4773 H 450.341 -4.07581 -1.07031 0
M  V30 4774 H 449.065 -2.90622 -1.49019 0
M  V30 4775 H 447.724 -3.62952 0.515915 0
M  V30 4776 H 447.372 -4.73395 -1.70019 0
M  V30 4777 H 447.072 -5.86514 -0.35705 0
M  V30 4778 H 448.596 -5.96955 -1.28361 0
M  V30 4779 H 450.01 -5.65113 0.965393 0
M  V30 4780 H 448.407 -5.73967 1.75161 0
M  V30 4781 H 449.477 -4.37006 2.10128 0
M  V30 4782 N 450.82 -0.546701 -1.47814 0
M  V30 4783 C 452.236 -0.205717 -1.58269 0
M  V30 4784 C 452.436 1.29153 -1.54667 0
M  V30 4785 O 451.492 2.07098 -1.44453 0
M  V30 4786 C 452.805 -0.823065 -2.89216 0
M  V30 4787 C 454.353 -0.793328 -3.02779 0
M  V30 4788 C 454.828 -1.38955 -4.36412 0
M  V30 4789 N 456.319 -1.35227 -4.43021 0
M  V30 4790 C 457.054 -1.78333 -5.44963 0
M  V30 4791 N 456.55 -2.29246 -6.53772 0
M  V30 4792 N 458.343 -1.69467 -5.35945 0
M  V30 4793 H 450.494 -1.5196 -1.48398 0
M  V30 4794 H 452.757 -0.633078 -0.705632 0
M  V30 4795 H 452.463 -1.8749 -2.97558 0
M  V30 4796 H 452.337 -0.309915 -3.75925 0
M  V30 4797 H 454.724 0.249784 -2.94041 0
M  V30 4798 H 454.805 -1.34412 -2.17639 0
M  V30 4799 H 454.449 -2.43168 -4.45906 0
M  V30 4800 H 454.379 -0.814291 -5.20266 0
M  V30 4801 H 456.87 -0.979739 -3.64979 0
M  V30 4802 H 457.183 -2.60089 -7.27718 0
M  V30 4803 H 455.528 -2.3325 -6.5469 0
M  V30 4804 H 458.719 -1.29477 -4.49837 0
M  V30 4805 H 458.892 -2.03381 -6.15256 0
M  V30 4806 N 452.299 1.55045 -0.282633 0
M  V30 4807 C 453.715 1.59441 0.0712997 0
M  V30 4808 C 453.915 1.2998 1.53972 0
M  V30 4809 O 452.971 1.06431 2.28973 0
M  V30 4810 C 454.284 2.99097 -0.310104 0
M  V30 4811 C 455.832 3.1194 -0.257343 0
M  V30 4812 C 456.307 4.53875 -0.613297 0
M  V30 4813 N 457.798 4.5974 -0.565134 0
M  V30 4814 C 458.533 5.67603 -0.81326 0
M  V30 4815 N 458.029 6.83582 -1.1264 0
M  V30 4816 N 459.822 5.57187 -0.741553 0
M  V30 4817 H 451.973 1.72458 -1.23984 0
M  V30 4818 H 454.236 0.804549 -0.501403 0
M  V30 4819 H 453.942 3.25516 -1.33163 0
M  V30 4820 H 453.816 3.75616 0.345366 0
M  V30 4821 H 456.203 2.85281 0.754905 0
M  V30 4822 H 456.284 2.37618 -0.947178 0
M  V30 4823 H 455.928 4.81261 -1.62327 0
M  V30 4824 H 455.858 5.26508 0.09841 0
M  V30 4825 H 458.349 3.76427 -0.333294 0
M  V30 4826 H 458.662 7.6175 -1.30219 0
M  V30 4827 H 457.007 6.85179 -1.16425 0
M  V30 4828 H 460.198 4.65457 -0.496705 0
M  V30 4829 H 460.371 6.41171 -0.938306 0
M  V30 4830 N 453.777 0.010035 1.57597 0
M  V30 4831 C 455.005 -0.683413 1.95287 0
M  V30 4832 C 455.42 -1.66747 0.885481 0
M  V30 4833 O 454.777 -1.82003 -0.134629 0
M  V30 4834 C 454.828 -1.40652 3.33015 0
M  V30 4835 O 454.549 -0.461916 4.35658 0
M  V30 4836 C 456.05 -2.19356 3.85225 0
M  V30 4837 H 453.27 -0.189708 0.643624 0
M  V30 4838 H 455.814 0.0641359 2.04399 0
M  V30 4839 H 453.969 -2.10562 3.2518 0
M  V30 4840 H 454.383 -0.973215 5.15392 0
M  V30 4841 H 455.857 -2.65433 4.83993 0
M  V30 4842 H 456.334 -3.02457 3.18459 0
M  V30 4843 H 456.94 -1.54442 3.96267 0
M  V30 4844 N 455.255 -1.55392 -0.262866 0
M  V30 4845 C 456.185 -1.91978 -1.32917 0
M  V30 4846 C 457.166 -0.7828 -1.51017 0
M  V30 4847 O 458.351 -1.04178 -1.63892 0
M  V30 4848 C 455.481 -2.20055 -2.68687 0
M  V30 4849 C 454.435 -3.35854 -2.65304 0
M  V30 4850 C 453.761 -3.49435 -4.04721 0
M  V30 4851 C 455.061 -4.71977 -2.23685 0
M  V30 4852 H 456.755 -2.81292 -1.02544 0
M  V30 4853 H 454.301 -1.3534 -0.491846 0
M  V30 4854 H 456.254 -2.44237 -3.43404 0
M  V30 4855 H 454.978 -1.27551 -3.00663 0
M  V30 4856 H 453.637 -3.11655 -1.93045 0
M  V30 4857 H 453.285 -2.54379 -4.33936 0
M  V30 4858 H 452.985 -4.27297 -4.0335 0
M  V30 4859 H 454.509 -3.7592 -4.81161 0
M  V30 4860 H 455.923 -4.95637 -2.88127 0
M  V30 4861 H 454.32 -5.52828 -2.33456 0
M  V30 4862 H 455.39 -4.70115 -1.18827 0
M  V30 4863 N 456.733 0.527833 -1.48498 0
M  V30 4864 C 457.68 1.6322 -1.6318 0
M  V30 4865 C 458.65 1.59199 -0.473815 0
M  V30 4866 O 459.835 1.77591 -0.697563 0
M  V30 4867 C 456.975 3.01474 -1.67951 0
M  V30 4868 C 456.088 3.15713 -2.94871 0
M  V30 4869 C 455.223 4.44539 -2.90789 0
M  V30 4870 C 454.262 4.52315 -4.12404 0
M  V30 4871 N 453.399 5.72533 -4.06387 0
M  V30 4872 H 458.239 1.50011 -2.57489 0
M  V30 4873 H 455.776 0.730298 -1.27691 0
M  V30 4874 H 457.734 3.81572 -1.68698 0
M  V30 4875 H 456.364 3.1345 -0.771306 0
M  V30 4876 H 455.416 2.28854 -3.03859 0
M  V30 4877 H 456.728 3.1732 -3.8485 0
M  V30 4878 H 455.882 5.3293 -2.89949 0
M  V30 4879 H 454.621 4.45457 -1.98542 0
M  V30 4880 H 453.626 3.62331 -4.13517 0
M  V30 4881 H 454.851 4.53134 -5.05812 0
M  V30 4882 H 452.797 5.74344 -3.16962 0
M  V30 4883 H 452.714 5.75643 -4.90073 0
M  V30 4884 H 453.982 6.63204 -4.0961 0
M  V30 4885 N 458.211 1.37122 0.776871 0
M  V30 4886 C 459.121 1.34651 1.9211 0
M  V30 4887 C 460.137 0.246824 1.7224 0
M  V30 4888 O 461.313 0.48134 1.95563 0
M  V30 4889 C 458.378 1.14748 3.2716 0
M  V30 4890 C 457.439 2.34308 3.5972 0
M  V30 4891 C 456.672 2.15345 4.88326 0
M  V30 4892 O 456.895 1.13507 5.58992 0
M  V30 4893 O 455.829 3.03414 5.1983 0
M  V30 4894 H 459.655 2.31013 1.97146 0
M  V30 4895 H 457.24 1.17799 0.918901 0
M  V30 4896 H 459.122 1.05616 4.0795 0
M  V30 4897 H 457.797 0.214562 3.22988 0
M  V30 4898 H 456.704 2.49011 2.79185 0
M  V30 4899 H 458.037 3.26149 3.68629 0
M  V30 4900 N 459.689 -1.00246 1.21608 0
M  V30 4901 C 460.935 -1.74319 1.03638 0
M  V30 4902 C 461.268 -1.89408 -0.428749 0
M  V30 4903 O 460.543 -1.43026 -1.3181 0
M  V30 4904 C 460.826 -3.15431 1.73711 0
M  V30 4905 C 460.679 -3.08049 3.27759 0
M  V30 4906 C 461.998 -4.14407 1.48173 0
M  V30 4907 H 459.117 -0.632741 0.377899 0
M  V30 4908 H 461.759 -1.16853 1.49818 0
M  V30 4909 H 459.909 -3.64493 1.34452 0
M  V30 4910 H 461.581 -2.66681 3.76403 0
M  V30 4911 H 459.824 -2.45088 3.57931 0
M  V30 4912 H 460.495 -4.07862 3.71958 0
M  V30 4913 H 462.971 -3.74061 1.82258 0
M  V30 4914 H 461.847 -5.11279 1.99713 0
M  V30 4915 H 462.108 -4.40174 0.412273 0
M  V30 4916 N 461.167 -1.02423 -1.1978 0
M  V30 4917 C 462.097 -0.62157 -2.25075 0
M  V30 4918 C 463.078 0.367148 -1.6609 0
M  V30 4919 O 464.263 0.250892 -1.92573 0
M  V30 4920 C 461.393 0.0331826 -3.47284 0
M  V30 4921 C 460.347 -0.877323 -4.18912 0
M  V30 4922 C 459.673 -0.0879296 -5.34628 0
M  V30 4923 C 460.973 -2.18892 -4.74219 0
M  V30 4924 H 462.667 -1.50179 -2.59011 0
M  V30 4925 H 460.213 -0.723547 -1.24502 0
M  V30 4926 H 462.166 0.326488 -4.20133 0
M  V30 4927 H 460.89 0.948164 -3.12534 0
M  V30 4928 H 459.549 -1.15475 -3.47938 0
M  V30 4929 H 459.197 0.828941 -4.96123 0
M  V30 4930 H 458.897 -0.694359 -5.83483 0
M  V30 4931 H 460.421 0.198743 -6.10276 0
M  V30 4932 H 461.835 -1.95746 -5.38847 0
M  V30 4933 H 460.232 -2.74686 -5.33542 0
M  V30 4934 H 461.302 -2.84674 -3.92541 0
M  V30 4935 N 462.645 1.35699 -0.801477 0
M  V30 4936 C 463.873 2.03157 -0.391768 0
M  V30 4937 C 464.288 1.60412 0.995668 0
M  V30 4938 O 463.645 0.799228 1.64069 0
M  V30 4939 C 463.696 3.58566 -0.459671 0
M  V30 4940 O 463.417 3.99756 -1.7924 0
M  V30 4941 C 464.918 4.4328 -0.0421205 0
M  V30 4942 H 462.138 0.651688 -0.159825 0
M  V30 4943 H 464.682 1.73426 -1.08368 0
M  V30 4944 H 462.837 3.86963 0.183939 0
M  V30 4945 H 463.251 4.94387 -1.75162 0
M  V30 4946 H 464.725 5.51821 -0.140754 0
M  V30 4947 H 465.202 4.27383 1.01196 0
M  V30 4948 H 465.808 4.20168 -0.658687 0
M  V30 4949 N 464.123 0.554532 1.47522 0
M  V30 4950 C 465.363 0.0317994 2.04375 0
M  V30 4951 C 465.727 -1.29242 1.41988 0
M  V30 4952 O 466.928 -1.90269 1.89872 0
M  V30 4953 C 465.199 -0.0623344 3.57346 0
M  V30 4954 S 466.758 -0.531578 4.35568 0
M  V30 4955 H 463.576 0.0238553 0.7106 0
M  V30 4956 H 466.178 0.74066 1.80927 0
M  V30 4957 H 464.882 0.905857 4.00278 0
M  V30 4958 H 464.413 -0.794831 3.85287 0
M  V30 4959 H 466.428 -1.79175 4.62721 0
M  V30 4960 N 465.601 -1.54893 0.290851 0
M  V30 4961 C 466.826 -2.04804 -0.32712 0
M  V30 4962 C 467.251 -1.16721 -1.47506 0
M  V30 4963 O 466.609 -0.169107 -1.8051 0
M  V30 4964 C 466.657 -3.52268 -0.770689 0
M  V30 4965 O 465.761 -3.67236 -1.87647 0
M  V30 4966 H 465.102 -0.660789 -0.0652227 0
M  V30 4967 H 467.632 -2.00036 0.429739 0
M  V30 4968 H 467.642 -3.9393 -1.06223 0
M  V30 4969 H 466.317 -4.15843 0.069096 0
M  V30 4970 H 464.894 -3.37479 -1.58626 0
M  V30 4971 N 467.08 -0.0183926 -1.57589 0
M  V30 4972 C 468.326 0.657813 -1.92469 0
M  V30 4973 C 468.681 1.70349 -0.894375 0
M  V30 4974 O 467.974 1.91384 0.0910389 0
M  V30 4975 C 468.168 1.32676 -3.31861 0
M  V30 4976 C 467.997 0.347403 -4.48356 0
M  V30 4977 C 466.767 -0.0488653 -5.05276 0
M  V30 4978 C 468.965 -0.393931 -5.12789 0
M  V30 4979 N 466.947 -1.02451 -6.05291 0
M  V30 4980 C 468.318 -1.22367 -6.07804 0
M  V30 4981 C 470.373 -0.455789 -4.95809 0
M  V30 4982 C 469.076 -2.10966 -6.87667 0
M  V30 4983 C 471.102 -1.32908 -5.76272 0
M  V30 4984 C 470.464 -2.14662 -6.70894 0
M  V30 4985 H 466.563 0.21335 -0.752334 0
M  V30 4986 H 469.147 -0.0830547 -1.94523 0
M  V30 4987 H 467.318 2.03782 -3.30647 0
M  V30 4988 H 469.05 1.95913 -3.54119 0
M  V30 4989 H 465.805 0.323356 -4.72495 0
M  V30 4990 H 466.229 -1.50826 -6.59985 0
M  V30 4991 H 470.871 0.162017 -4.22489 0
M  V30 4992 H 468.589 -2.73807 -7.603 0
M  V30 4993 H 472.175 -1.38109 -5.6517 0
M  V30 4994 H 471.055 -2.81143 -7.32071 0
M  V30 4995 O 468.597 1.61027 0.12348 0
M  V30 4996 H 469.288 1.78369 0.755254 0
M  V30 END ATOM
M  V30 BEGIN BOND
M  V30 END BOND
M  V30 END CTAB
M  END
$$$$
