drugbank_target|Q02054 Actinorhodin polyketide synthase acyl carrier protein (DB08585; DB08586)
 OpenBabel12092120513D

  0  0  0     0  0            999 V3000
M  V30 BEGIN CTAB
M  V30 COUNTS 1277 1282 0 0 0
M  V30 BEGIN ATOM
M  V30 1 H -0.908 1.98254 -0.117106 0
M  V30 2 N 0 1.576 0 0
M  V30 3 C 0.933 2.03868 1.02534 0
M  V30 4 C 1.911 0.928543 1.3348 0
M  V30 5 O 3.095 1.19667 1.45644 0
M  V30 6 C 0.222 2.43627 2.35294 0
M  V30 7 C -0.732 3.65373 2.2001 0
M  V30 8 S 0.101 5.13292 1.52614 0
M  V30 9 C 1.257 5.56322 2.86805 0
M  V30 10 H 1.49 2.90518 0.631377 0
M  V30 11 H -0.977 1.52953 0.210867 0
M  V30 12 H 0.981 2.67203 3.11629 0
M  V30 13 H -0.358 1.57376 2.7183 0
M  V30 14 H -1.165 3.90944 3.18086 0
M  V30 15 H -1.563 3.418 1.51819 0
M  V30 16 H 0.729 5.58782 3.83104 0
M  V30 17 H 1.672 6.56266 2.65933 0
M  V30 18 H 2.08 4.83886 2.90714 0
M  V30 19 N 1.4781 -0.272755 1.55222 0
M  V30 20 C 2.4411 -1.32041 1.87344 0
M  V30 21 C 3.4411 -1.42342 0.74803 0
M  V30 22 O 4.6311 -1.41488 1.0162 0
M  V30 23 C 1.7631 -2.70173 2.07893 0
M  V30 24 H 2.9561 -1.04789 2.80997 0
M  V30 25 H 0.5091 -0.51083 1.47717 0
M  V30 26 H 1.2441 -3.02605 1.16622 0
M  V30 27 H 1.0291 -2.64082 2.89833 0
M  V30 28 H 2.5191 -3.45869 2.34017 0
M  V30 29 N 2.9562 -1.48159 -0.537278 0
M  V30 30 C 4.1842 -1.59454 -1.31841 0
M  V30 31 C 4.5992 -0.252065 -1.8711 0
M  V30 32 O 3.9562 0.757621 -1.66031 0
M  V30 33 C 4.0072 -2.63546 -2.47439 0
M  V30 34 O 3.7282 -3.92583 -1.94449 0
M  V30 35 C 5.2292 -2.85212 -3.39366 0
M  V30 36 H 2.4492 -0.53785 -0.401196 0
M  V30 37 H 4.9932 -1.93932 -0.648891 0
M  V30 38 H 3.1482 -2.31946 -3.1029 0
M  V30 39 H 3.5622 -4.49629 -2.70063 0
M  V30 40 H 5.0362 -3.61863 -4.16844 0
M  V30 41 H 5.5132 -1.93765 -3.94147 0
M  V30 42 H 6.1192 -3.18086 -2.82314 0
M  V30 43 N 4.4343 0.785586 -1.36625 0
M  V30 44 C 5.3643 1.91259 -1.33949 0
M  V30 45 C 6.3453 1.68795 -0.210325 0
M  V30 46 O 7.5303 1.89854 -0.408561 0
M  V30 47 C 4.6603 3.28339 -1.13186 0
M  V30 48 C 3.6143 3.65335 -2.22967 0
M  V30 49 C 2.9403 5.00806 -1.87342 0
M  V30 50 C 4.2403 3.7352 -3.65075 0
M  V30 51 H 5.9343 1.93755 -2.28253 0
M  V30 52 H 3.4803 0.930788 -1.09874 0
M  V30 53 H 5.4333 4.06804 -1.09948 0
M  V30 54 H 4.1573 3.2624 -0.153332 0
M  V30 55 H 2.8163 2.89169 -2.25337 0
M  V30 56 H 2.4643 4.95233 -0.880545 0
M  V30 57 H 2.1643 5.26529 -2.60846 0
M  V30 58 H 3.6883 5.81687 -1.85667 0
M  V30 59 H 5.1023 4.42168 -3.64911 0
M  V30 60 H 3.4993 4.10731 -4.37516 0
M  V30 61 H 4.5693 2.74527 -3.99703 0
M  V30 62 N 5.9124 1.20967 1.01018 0
M  V30 63 C 6.8424 0.988272 2.11555 0
M  V30 64 C 7.8234 -0.0849778 1.69888 0
M  V30 65 O 9.0084 0.0738202 1.9406 0
M  V30 66 C 6.1384 0.546528 3.42973 0
M  V30 67 C 5.0924 1.56375 3.9841 0
M  V30 68 C 4.4184 0.97842 5.25672 0
M  V30 69 C 5.7184 2.94922 4.31066 0
M  V30 70 H 7.4124 1.91276 2.30334 0
M  V30 71 H 4.9584 0.921073 1.1069 0
M  V30 72 H 6.9114 0.378839 4.19694 0
M  V30 73 H 5.6354 -0.413598 3.23971 0
M  V30 74 H 4.2944 1.71891 3.23804 0
M  V30 75 H 3.9424 0.0101688 5.02999 0
M  V30 76 H 3.6424 1.65784 5.63728 0
M  V30 77 H 5.1664 0.821939 6.05043 0
M  V30 78 H 6.5804 2.8288 4.9865 0
M  V30 79 H 4.9774 3.5983 4.80253 0
M  V30 80 H 6.0474 3.4616 3.39561 0
M  V30 81 N 7.3905 -1.2043 1.01659 0
M  V30 82 C 8.6185 -1.93777 0.725132 0
M  V30 83 C 9.0335 -1.74772 -0.714166 0
M  V30 84 O 8.3905 -1.06169 -1.4844 0
M  V30 85 C 8.4415 -3.45876 1.05129 0
M  V30 86 O 8.1625 -3.6426 2.43406 0
M  V30 87 C 9.6635 -4.36368 0.780891 0
M  V30 88 H 6.8835 -0.615901 0.266284 0
M  V30 89 H 9.4275 -1.52922 1.35776 0
M  V30 90 H 7.5825 -3.8461 0.464065 0
M  V30 91 H 7.9965 -4.58246 2.55169 0
M  V30 92 H 9.4705 -5.41743 1.05918 0
M  V30 93 H 9.9475 -4.38275 -0.284937 0
M  V30 94 H 10.5535 -4.03296 1.35027 0
M  V30 95 N 8.8686 -0.792821 -1.36206 0
M  V30 96 C 10.0966 -0.378825 -2.03402 0
M  V30 97 C 10.5116 1.00586 -1.59774 0
M  V30 98 O 9.8686 1.64574 -0.788764 0
M  V30 99 C 9.9196 -0.43683 -3.58851 0
M  V30 100 O 9.6406 -1.76691 -4.00889 0
M  V30 101 C 11.1416 -0.0138943 -4.43298 0
M  V30 102 H 8.3616 -0.155673 -0.652692 0
M  V30 103 H 10.9056 -1.07261 -1.74113 0
M  V30 104 H 9.0606 0.208575 -3.86838 0
M  V30 105 H 9.4746 -1.72011 -4.95492 0
M  V30 106 H 10.9486 -0.105615 -5.51899 0
M  V30 107 H 11.4256 1.03915 -4.2673 0
M  V30 108 H 12.0316 -0.63192 -4.20579 0
M  V30 109 N 10.3467 1.47872 -0.545128 0
M  V30 110 C 11.6237 1.9554 0.0485222 0
M  V30 111 C 12.0037 1.4876 1.49779 0
M  V30 112 O 11.3517 0.720925 2.16829 0
M  V30 113 C 11.5617 3.48898 -0.084417 0
M  V30 114 C 12.9097 4.24547 0.0671239 0
M  V30 115 O 13.9337 3.56198 -0.0113649 0
M  V30 116 O 12.7927 5.45999 0.233882 0
M  V30 117 H 9.8867 0.823957 0.0708773 0
M  V30 118 H 12.4327 1.58327 -0.610798 0
M  V30 119 H 11.2047 3.75714 -1.09337 0
M  V30 120 H 10.8277 3.92845 0.613066 0
M  V30 121 N 11.8248 0.280983 1.55075 0
M  V30 122 C 13.1018 -0.386207 1.91749 0
M  V30 123 C 13.4818 -1.73264 1.20594 0
M  V30 124 O 12.8298 -2.26034 0.334784 0
M  V30 125 C 13.0398 -0.520687 3.45094 0
M  V30 126 C 14.3878 -0.800865 4.16979 0
M  V30 127 O 15.4118 -0.605271 3.5102 0
M  V30 128 O 14.2708 -1.1753 5.33712 0
M  V30 129 H 11.3648 -0.212408 0.799257 0
M  V30 130 H 13.9108 0.327568 1.66509 0
M  V30 131 H 12.6828 0.426633 3.88967 0
M  V30 132 H 12.3058 -1.2837 3.76307 0
M  V30 133 N 13.3029 -1.57598 0.00835791 0
M  V30 134 C 14.2329 -2.1198 -0.979113 0
M  V30 135 C 15.2139 -1.03091 -1.35301 0
M  V30 136 O 16.3989 -1.30818 -1.43528 0
M  V30 137 C 13.5289 -2.62995 -2.26828 0
M  V30 138 C 12.4829 -3.76485 -2.03576 0
M  V30 139 C 11.8089 -4.13846 -3.38579 0
M  V30 140 C 13.1089 -5.0342 -1.39161 0
M  V30 141 H 14.8029 -2.94738 -0.526281 0
M  V30 142 H 12.3489 -1.41783 -0.251704 0
M  V30 143 H 14.3019 -2.99669 -2.96271 0
M  V30 144 H 13.0259 -1.7737 -2.7424 0
M  V30 145 H 11.6849 -3.40217 -1.36557 0
M  V30 146 H 11.3329 -3.25232 -3.83709 0
M  V30 147 H 11.0329 -4.90312 -3.23834 0
M  V30 148 H 12.5569 -4.53086 -4.09323 0
M  V30 149 H 13.9709 -5.37812 -1.98573 0
M  V30 150 H 12.3679 -5.84746 -1.34878 0
M  V30 151 H 13.4379 -4.83548 -0.361868 0
M  V30 152 N 14.781 0.264519 -1.55364 0
M  V30 153 C 16.197 0.61215 -1.47394 0
M  V30 154 C 16.397 1.89134 -0.695018 0
M  V30 155 O 15.453 2.51563 -0.217275 0
M  V30 156 C 16.766 0.731235 -2.91674 0
M  V30 157 C 18.314 0.82473 -3.01939 0
M  V30 158 C 18.789 0.975522 -4.4749 0
M  V30 159 N 20.28 1.04083 -4.51354 0
M  V30 160 C 21.015 1.17646 -5.61201 0
M  V30 161 N 20.511 1.27874 -6.80896 0
M  V30 162 N 22.304 1.20823 -5.48961 0
M  V30 163 H 14.455 -0.575456 -2.04456 0
M  V30 164 H 16.718 -0.196099 -0.927496 0
M  V30 165 H 16.424 -0.138392 -3.51428 0
M  V30 166 H 16.298 1.60883 -3.41169 0
M  V30 167 H 18.685 1.68482 -2.42276 0
M  V30 168 H 18.766 -0.0776479 -2.55682 0
M  V30 169 H 18.41 0.120058 -5.07758 0
M  V30 170 H 18.34 1.89268 -4.91412 0
M  V30 171 H 20.831 0.973846 -3.65136 0
M  V30 172 H 21.144 1.38081 -7.60364 0
M  V30 173 H 19.489 1.24863 -6.83692 0
M  V30 174 H 22.68 1.12469 -4.54388 0
M  V30 175 H 22.853 1.31049 -6.3461 0
M  V30 176 N 16.2591 1.48442 0.529413 0
M  V30 177 C 17.6751 1.34575 0.858004 0
M  V30 178 C 17.8751 0.3572 1.98309 0
M  V30 179 O 16.9311 -0.221379 2.51528 0
M  V30 180 C 18.2441 2.74617 1.22499 0
M  V30 181 C 19.7921 2.83109 1.33484 0
M  V30 182 C 20.2671 4.23854 1.73526 0
M  V30 183 N 21.7581 4.2653 1.80628 0
M  V30 184 C 22.4931 5.32372 2.12997 0
M  V30 185 N 21.9891 6.48491 2.43786 0
M  V30 186 N 23.7821 5.19766 2.14008 0
M  V30 187 H 15.9331 2.1133 -0.212925 0
M  V30 188 H 18.1961 0.947439 -0.0326199 0
M  V30 189 H 17.9021 3.4852 0.471905 0
M  V30 190 H 17.7761 3.08177 2.17501 0
M  V30 191 H 20.1631 2.09462 2.0787 0
M  V30 192 H 20.2441 2.53168 0.366027 0
M  V30 193 H 19.8881 4.98018 0.997013 0
M  V30 194 H 19.8181 4.5124 2.71459 0
M  V30 195 H 22.3091 3.42772 1.59108 0
M  V30 196 H 22.6221 7.24993 2.67592 0
M  V30 197 H 20.9671 6.51765 2.41304 0
M  V30 198 H 24.1581 4.28066 1.89412 0
M  V30 199 H 24.3311 6.02354 2.38902 0
M  V30 200 N 17.7372 -0.778329 1.37039 0
M  V30 201 C 18.7002 -1.87301 1.32102 0
M  V30 202 C 19.7002 -1.59198 0.226405 0
M  V30 203 O 20.8902 -1.67403 0.481861 0
M  V30 204 C 18.0222 -3.24309 1.05055 0
M  V30 205 H 19.2152 -1.93093 2.29467 0
M  V30 206 H 16.7682 -0.977358 1.21973 0
M  V30 207 H 17.5032 -3.24196 0.0819373 0
M  V30 208 H 17.2882 -3.46098 1.84279 0
M  V30 209 H 18.7782 -4.04382 1.04234 0
M  V30 210 N 19.2153 -1.21501 -1.00376 0
M  V30 211 C 20.1453 -0.999478 -2.11028 0
M  V30 212 C 21.1263 0.0759671 -1.6993 0
M  V30 213 O 22.3113 -0.0841106 -1.94018 0
M  V30 214 C 19.4413 -0.564709 -3.42678 0
M  V30 215 C 18.3953 -1.58486 -3.97576 0
M  V30 216 C 17.7213 -1.00628 -5.25146 0
M  V30 217 C 19.0213 -2.97204 -4.29496 0
M  V30 218 H 20.7153 -1.92495 -2.29317 0
M  V30 219 H 18.2613 -0.92693 -1.102 0
M  V30 220 H 20.2143 -0.401091 -4.19487 0
M  V30 221 H 18.9383 0.396411 -3.24185 0
M  V30 222 H 17.5973 -1.73606 -3.22888 0
M  V30 223 H 17.2453 -0.0368439 -5.02987 0
M  V30 224 H 16.9453 -1.68771 -5.62841 0
M  V30 225 H 18.4693 -0.854015 -6.04598 0
M  V30 226 H 19.8833 -2.8552 -4.97143 0
M  V30 227 H 18.2803 -3.62372 -4.78338 0
M  V30 228 H 19.3503 -3.47956 -3.3772 0
M  V30 229 N 20.6934 1.19889 -1.02296 0
M  V30 230 C 21.9394 1.89701 -0.717033 0
M  V30 231 C 22.2724 1.7905 0.751989 0
M  V30 232 O 21.5474 1.17891 1.547 0
M  V30 233 C 21.8304 3.40858 -1.16136 0
M  V30 234 C 21.6834 3.60411 -2.69117 0
M  V30 235 C 23.0024 4.33876 -0.737549 0
M  V30 236 H 20.1214 0.688874 -0.261957 0
M  V30 237 H 22.7634 1.41154 -1.27183 0
M  V30 238 H 20.9134 3.82335 -0.689342 0
M  V30 239 H 22.5854 3.28145 -3.2422 0
M  V30 240 H 20.8284 3.03665 -3.0979 0
M  V30 241 H 21.4994 4.66396 -2.95261 0
M  V30 242 H 23.9754 4.00081 -1.14344 0
M  V30 243 H 22.8514 5.38242 -1.0764 0
M  V30 244 H 23.1124 4.40628 0.360436 0
M  V30 245 N 22.1715 0.800033 1.35784 0
M  V30 246 C 23.0815 0.207204 2.33683 0
M  V30 247 C 24.0975 -0.64631 1.61551 0
M  V30 248 O 25.2735 -0.559604 1.93469 0
M  V30 249 C 22.3385 -0.639659 3.40748 0
M  V30 250 C 21.3995 0.233585 4.28664 0
M  V30 251 C 20.6325 -0.572954 5.30616 0
M  V30 252 O 20.8555 -1.80816 5.40982 0
M  V30 253 O 19.7895 0.0327285 6.01891 0
M  V30 254 H 23.6155 1.01692 2.86169 0
M  V30 255 H 21.2005 0.561691 1.38439 0
M  V30 256 H 23.0825 -1.12223 4.06182 0
M  V30 257 H 21.7575 -1.42708 2.90544 0
M  V30 258 H 20.6645 0.763147 3.66233 0
M  V30 259 H 21.9975 0.984784 4.82248 0
M  V30 260 N 23.6496 -1.47581 0.552962 0
M  V30 261 C 24.8896 -2.04379 0.0296245 0
M  V30 262 C 25.2536 -1.4185 -1.29393 0
M  V30 263 O 26.4546 -1.89669 -1.90471 0
M  V30 264 C 24.7256 -3.57339 -0.0661371 0
M  V30 265 S 26.2846 -4.35511 -0.536213 0
M  V30 266 H 23.1026 -0.710625 0.0230991 0
M  V30 267 H 25.7046 -1.81005 0.738734 0
M  V30 268 H 24.4086 -4.00374 0.901596 0
M  V30 269 H 23.9396 -3.85202 -0.798931 0
M  V30 270 H 25.9546 -4.6253 -1.79668 0
M  V30 271 N 25.1277 -0.289203 -1.54924 0
M  V30 272 C 26.0907 0.579144 -2.21762 0
M  V30 273 C 27.0907 1.07047 -1.1999 0
M  V30 274 O 28.2807 0.968384 -1.44803 0
M  V30 275 C 25.4127 1.80055 -2.8947 0
M  V30 276 H 26.6057 -0.00464908 -2.999 0
M  V30 277 H 24.1587 -0.0399306 -1.56249 0
M  V30 278 H 24.8937 2.42449 -2.15381 0
M  V30 279 H 24.6787 1.45602 -3.64064 0
M  V30 280 H 26.1687 2.41773 -3.40493 0
M  V30 281 N 26.6058 1.57591 -0.0167156 0
M  V30 282 C 27.8538 1.90906 0.663285 0
M  V30 283 C 28.1748 0.892509 1.73376 0
M  V30 284 O 27.4448 -0.0677623 1.95783 0
M  V30 285 H 26.0248 0.704637 0.247983 0
M  V30 286 H 28.6868 1.94803 -0.0615909 0
M  V30 287 H 27.7828 2.9116 1.12393 0
M  V30 288 N 28.0839 -0.256276 1.55502 0
M  V30 289 C 28.9939 -1.33882 1.92647 0
M  V30 290 C 30.0099 -1.53159 0.825727 0
M  V30 291 O 31.1859 -1.66963 1.12629 0
M  V30 292 C 28.2509 -2.6751 2.20543 0
M  V30 293 C 27.3119 -2.56836 3.43997 0
M  V30 294 C 26.5449 -3.84092 3.70553 0
M  V30 295 O 26.7679 -4.85545 2.99336 0
M  V30 296 O 25.7019 -3.83288 4.64084 0
M  V30 297 H 29.5279 -1.05374 2.84833 0
M  V30 298 H 27.1129 -0.456237 1.42263 0
M  V30 299 H 28.9949 -3.46492 2.39835 0
M  V30 300 H 27.6699 -2.9577 1.31536 0
M  V30 301 H 26.5769 -1.76172 3.30021 0
M  V30 302 H 27.9099 -2.33523 4.33275 0
M  V30 303 N 29.562 -1.4872 -0.521534 0
M  V30 304 C 30.79 -1.60843 -1.30142 0
M  V30 305 C 31.205 -0.271897 -1.86832 0
M  V30 306 O 30.562 0.739969 -1.66825 0
M  V30 307 C 30.613 -2.66155 -2.4463 0
M  V30 308 O 30.334 -3.94623 -1.90275 0
M  V30 309 C 31.835 -2.88795 -3.36322 0
M  V30 310 H 29.055 -0.542075 -0.395468 0
M  V30 311 H 31.599 -1.94609 -0.628285 0
M  V30 312 H 29.754 -2.35224 -3.07812 0
M  V30 313 H 30.168 -4.52468 -2.65279 0
M  V30 314 H 31.642 -3.66264 -4.12983 0
M  V30 315 H 32.119 -1.97934 -3.9207 0
M  V30 316 H 32.725 -3.21063 -2.78924 0
M  V30 317 N 31.0401 0.771051 -1.3745 0
M  V30 318 C 32.3171 1.519 -1.23231 0
M  V30 319 C 32.6971 2.10383 0.173809 0
M  V30 320 O 32.0451 1.95583 1.18151 0
M  V30 321 C 32.2551 2.59933 -2.32886 0
M  V30 322 C 33.6031 3.27316 -2.70461 0
M  V30 323 O 34.6271 2.70228 -2.32068 0
M  V30 324 O 33.4861 4.30531 -3.36608 0
M  V30 325 H 30.5801 0.672803 -0.480901 0
M  V30 326 H 33.1261 0.807957 -1.49232 0
M  V30 327 H 31.8981 2.14842 -3.27045 0
M  V30 328 H 31.5211 3.38637 -2.08353 0
M  V30 329 N 32.5182 1.22032 0.997298 0
M  V30 330 C 33.7662 1.04016 1.73278 0
M  V30 331 C 34.0872 -0.426255 1.90284 0
M  V30 332 O 33.3572 -1.30694 1.45931 0
M  V30 333 H 31.9372 0.381897 0.642 0
M  V30 334 H 34.5992 1.5347 1.20137 0
M  V30 335 H 33.6952 1.51441 2.72896 0
M  V30 336 N 33.9963 -1.19345 1.0293 0
M  V30 337 C 35.2243 -1.92997 0.745644 0
M  V30 338 C 35.6393 -1.75519 -0.695589 0
M  V30 339 O 34.9963 -1.07737 -1.47306 0
M  V30 340 C 35.0473 -3.44741 1.08792 0
M  V30 341 O 34.7683 -3.61658 2.47256 0
M  V30 342 C 36.2693 -4.35515 0.827129 0
M  V30 343 H 33.4893 -0.613042 0.272801 0
M  V30 344 H 36.0333 -1.51473 1.3739 0
M  V30 345 H 34.1883 -3.84097 0.504832 0
M  V30 346 H 34.6023 -4.55514 2.60015 0
M  V30 347 H 36.0763 -5.40589 1.11658 0
M  V30 348 H 36.5533 -4.38552 -0.238436 0
M  V30 349 H 37.1593 -4.01841 1.39297 0
M  V30 350 N 35.4744 -0.807222 -1.35358 0
M  V30 351 C 36.7514 -0.311126 -1.9311 0
M  V30 352 C 37.1314 1.19937 -1.73719 0
M  V30 353 O 36.4794 1.99918 -1.10657 0
M  V30 354 C 36.6894 -0.723226 -3.41424 0
M  V30 355 C 38.0374 -0.713078 -4.18569 0
M  V30 356 O 39.0614 -0.664811 -3.49941 0
M  V30 357 O 37.9204 -0.772022 -5.41019 0
M  V30 358 H 35.0144 -0.081526 -0.822972 0
M  V30 359 H 37.5604 -0.890962 -1.4443 0
M  V30 360 H 36.3324 -1.76426 -3.4927 0
M  V30 361 H 35.9554 -0.118232 -3.97424 0
M  V30 362 N 36.9525 1.47285 -0.560781 0
M  V30 363 C 37.8825 2.32857 0.173105 0
M  V30 364 C 38.8635 1.44009 0.905281 0
M  V30 365 O 40.0485 1.7286 0.885046 0
M  V30 366 C 37.1785 3.25861 1.20133 0
M  V30 367 C 36.1325 4.23978 0.585388 0
M  V30 368 C 35.4585 5.06332 1.7185 0
M  V30 369 C 36.7585 5.20242 -0.463178 0
M  V30 370 H 38.4525 2.94466 -0.541307 0
M  V30 371 H 35.9985 1.41601 -0.261764 0
M  V30 372 H 37.9515 3.84569 1.72293 0
M  V30 373 H 36.6755 2.62315 1.94573 0
M  V30 374 H 35.3345 3.66501 0.085054 0
M  V30 375 H 34.9825 4.39186 2.45203 0
M  V30 376 H 34.6825 5.72762 1.31213 0
M  V30 377 H 36.2065 5.67899 2.24329 0
M  V30 378 H 37.6205 5.73293 -0.027502 0
M  V30 379 H 36.0175 5.94896 -0.788627 0
M  V30 380 H 37.0875 4.65504 -1.35773 0
M  V30 381 N 38.4306 0.297415 1.54768 0
M  V30 382 C 39.6556 -0.318435 2.04941 0
M  V30 383 C 40.0806 -1.4701 1.17345 0
M  V30 384 O 39.4386 -1.80436 0.176758 0
M  V30 385 C 39.4866 -0.755749 3.52592 0
M  V30 386 O 38.5906 -1.86088 3.68028 0
M  V30 387 H 37.9316 -0.062421 0.661059 0
M  V30 388 H 40.4616 0.438215 1.99852 0
M  V30 389 H 40.4716 -1.04552 3.94376 0
M  V30 390 H 39.1466 0.0867233 4.1581 0
M  V30 391 H 37.7236 -1.57193 3.38149 0
M  V30 392 N 39.9087 -1.5758 0.0250728 0
M  V30 393 C 41.1567 -1.91255 -0.653151 0
M  V30 394 C 41.4777 -0.901691 -1.729 0
M  V30 395 O 40.7477 0.0573785 -1.95816 0
M  V30 396 H 39.3277 -0.705942 -0.244243 0
M  V30 397 H 41.9897 -1.94767 0.0719209 0
M  V30 398 H 41.0857 -2.91752 -1.10847 0
M  V30 399 N 41.3868 0.248026 -1.55636 0
M  V30 400 C 42.6638 0.998988 -1.68165 0
M  V30 401 C 43.0438 2.03409 -0.564621 0
M  V30 402 O 42.3918 2.24378 0.432076 0
M  V30 403 C 42.6018 1.63334 -3.0842 0
M  V30 404 C 43.9498 2.13562 -3.66983 0
M  V30 405 O 44.9738 1.73277 -3.11213 0
M  V30 406 O 43.8328 2.87526 -4.64749 0
M  V30 407 H 40.9268 0.464933 -0.683935 0
M  V30 408 H 43.4728 0.241902 -1.67967 0
M  V30 409 H 42.2448 0.884583 -3.8117 0
M  V30 410 H 41.8678 2.45666 -3.12624 0
M  V30 411 N 42.8649 1.48995 0.513639 0
M  V30 412 C 44.1119 1.57843 1.26854 0
M  V30 413 C 44.4399 0.259501 1.92761 0
M  V30 414 O 43.6949 -0.75159 1.80692 0
M  V30 415 C 43.9939 2.67756 2.36731 0
M  V30 416 C 43.6599 4.09669 1.88368 0
M  V30 417 C 42.3219 4.48291 1.74896 0
M  V30 418 C 44.6739 4.98537 1.52021 0
M  V30 419 C 42.0019 5.73568 1.23438 0
M  V30 420 C 44.3539 6.24319 1.0202 0
M  V30 421 C 43.0179 6.61783 0.871778 0
M  V30 422 H 42.2879 0.577587 0.464192 0
M  V30 423 H 44.9349 1.82778 0.571366 0
M  V30 424 H 43.2399 2.36743 3.12185 0
M  V30 425 H 44.9369 2.71813 2.9482 0
M  V30 426 H 41.5269 3.79176 1.99808 0
M  V30 427 H 45.7109 4.69363 1.61281 0
M  V30 428 H 40.9669 6.01304 1.10648 0
M  V30 429 H 45.1409 6.92566 0.729722 0
M  V30 430 H 42.7679 7.5874 0.470852 0
M  V30 431 N 44.343 -0.763751 1.37857 0
M  V30 432 C 45.273 -1.89103 1.36975 0
M  V30 433 C 46.254 -1.68439 0.237152 0
M  V30 434 O 47.439 -1.8918 0.438713 0
M  V30 435 C 44.569 -3.26496 1.18395 0
M  V30 436 C 43.523 -3.61741 2.28751 0
M  V30 437 C 42.849 -4.97762 1.95286 0
M  V30 438 C 44.149 -3.67665 3.70972 0
M  V30 439 H 45.843 -1.90099 2.31307 0
M  V30 440 H 43.389 -0.91319 1.11341 0
M  V30 441 H 45.342 -4.05003 1.16406 0
M  V30 442 H 44.066 -3.25955 0.205215 0
M  V30 443 H 42.725 -2.85547 2.29909 0
M  V30 444 H 42.373 -4.93769 0.959221 0
M  V30 445 H 42.073 -5.22313 2.69189 0
M  V30 446 H 43.597 -5.7866 1.94898 0
M  V30 447 H 45.011 -4.36307 3.719 0
M  V30 448 H 43.408 -4.03718 4.43995 0
M  V30 449 H 44.478 -2.68134 4.0402 0
M  V30 450 N 45.8211 -1.22559 -0.990812 0
M  V30 451 C 47.0981 -0.959875 -1.70428 0
M  V30 452 C 47.4781 0.524455 -2.04481 0
M  V30 453 O 46.8261 1.49302 -1.72977 0
M  V30 454 C 47.0361 -1.85955 -2.95333 0
M  V30 455 C 48.3841 -2.11687 -3.68068 0
M  V30 456 O 49.4081 -1.8342 -3.05345 0
M  V30 457 O 48.2671 -2.59572 -4.80921 0
M  V30 458 H 45.3611 -0.361154 -0.743974 0
M  V30 459 H 47.9071 -1.33554 -1.04697 0
M  V30 460 H 46.6791 -2.86346 -2.66687 0
M  V30 461 H 46.3021 -1.4856 -3.68803 0
M  V30 462 N 47.2992 1.18797 -1.03562 0
M  V30 463 C 48.2292 2.24472 -0.643019 0
M  V30 464 C 49.2102 1.66433 0.351283 0
M  V30 465 O 50.3952 1.92803 0.232505 0
M  V30 466 C 47.5252 3.473 4.24935e-05 0
M  V30 467 C 46.4792 4.18055 -0.917257 0
M  V30 468 C 45.8052 5.34519 -0.138941 0
M  V30 469 C 47.1052 4.72109 -2.23407 0
M  V30 470 H 48.7992 2.57566 -1.52643 0
M  V30 471 H 46.3452 1.23806 -0.735394 0
M  V30 472 H 48.2982 4.20426 0.286383 0
M  V30 473 H 47.0222 3.13424 0.918299 0
M  V30 474 H 45.6812 3.46821 -1.1879 0
M  V30 475 H 45.3292 4.96891 0.781562 0
M  V30 476 H 45.0292 5.82794 -0.750005 0
M  V30 477 H 46.5532 6.10438 0.1405 0
M  V30 478 H 47.9672 5.36955 -2.00879 0
M  V30 479 H 46.3642 5.30897 -2.79765 0
M  V30 480 H 47.4342 3.89807 -2.88407 0
M  V30 481 N 48.7773 0.814389 1.34928 0
M  V30 482 C 50.1933 0.499084 1.51596 0
M  V30 483 C 50.3933 -0.978319 1.76157 0
M  V30 484 O 49.4493 -1.76309 1.80752 0
M  V30 485 C 50.7623 1.35121 2.68631 0
M  V30 486 C 52.3103 1.34746 2.82511 0
M  V30 487 C 52.7853 2.18388 4.0258 0
M  V30 488 N 54.2763 2.15966 4.09772 0
M  V30 489 C 55.0113 2.77437 5.01813 0
M  V30 490 N 54.5073 3.47866 5.99134 0
M  V30 491 N 56.3003 2.67037 4.94619 0
M  V30 492 H 48.4513 1.7711 1.17243 0
M  V30 493 H 50.7143 0.754256 0.574284 0
M  V30 494 H 50.4203 2.40001 2.57085 0
M  V30 495 H 50.2943 1.00991 3.63429 0
M  V30 496 H 52.6813 0.30648 2.93504 0
M  V30 497 H 52.7623 1.72869 1.88547 0
M  V30 498 H 52.4063 3.2253 3.92347 0
M  V30 499 H 52.3363 1.77621 4.9574 0
M  V30 500 H 54.8273 1.64729 3.40107 0
M  V30 501 H 55.1403 3.92038 6.65977 0
M  V30 502 H 53.4853 3.51972 5.99284 0
M  V30 503 H 56.6763 2.11597 4.17546 0
M  V30 504 H 56.8493 3.15232 5.66156 0
M  V30 505 N 50.2554 -1.46986 0.568584 0
M  V30 506 C 51.5024 -2.02441 0.0487986 0
M  V30 507 C 51.8304 -1.44169 -1.30559 0
M  V30 508 O 51.0854 -0.591213 -1.86556 0
M  V30 509 C 51.3844 -3.57306 -0.081836 0
M  V30 510 C 51.0504 -4.34552 1.20313 0
M  V30 511 C 49.7124 -4.55376 1.5552 0
M  V30 512 C 52.0644 -4.79016 2.05411 0
M  V30 513 C 49.3924 -5.17913 2.7565 0
M  V30 514 C 51.7444 -5.42879 3.24754 0
M  V30 515 C 50.4084 -5.61933 3.60261 0
M  V30 516 H 49.6784 -0.740785 0.0178567 0
M  V30 517 H 52.3254 -1.76525 0.742384 0
M  V30 518 H 50.6304 -3.8228 -0.858463 0
M  V30 519 H 52.3274 -3.97876 -0.499546 0
M  V30 520 H 48.9174 -4.18631 0.919014 0
M  V30 521 H 53.1014 -4.62696 1.79516 0
M  V30 522 H 48.3574 -5.30858 3.03315 0
M  V30 523 H 52.5314 -5.76293 3.90973 0
M  V30 524 H 50.1584 -6.10161 4.53439 0
M  V30 525 N 51.7335 -0.305618 -1.54608 0
M  V30 526 C 52.6435 0.57778 -2.27374 0
M  V30 527 C 53.6595 1.14451 -1.31061 0
M  V30 528 O 54.8355 1.16831 -1.6405 0
M  V30 529 C 51.9005 1.73123 -3.00382 0
M  V30 530 C 50.9615 1.19812 -4.12242 0
M  V30 531 C 50.1945 2.2966 -4.81759 0
M  V30 532 O 50.4175 3.49651 -4.50666 0
M  V30 533 O 49.3515 1.96091 -5.69062 0
M  V30 534 H 53.1775 -0.012624 -3.03697 0
M  V30 535 H 50.7625 -0.0719184 -1.49227 0
M  V30 536 H 52.6445 2.40315 -3.4616 0
M  V30 537 H 51.3195 2.30815 -2.26949 0
M  V30 538 H 50.2265 0.491798 -3.70853 0
M  V30 539 H 51.5595 0.666566 -4.87666 0
M  V30 540 N 53.2116 1.57565 -0.0334293 0
M  V30 541 C 54.4886 1.83282 0.683163 0
M  V30 542 C 54.8686 0.91823 1.90084 0
M  V30 543 O 54.2166 -0.025113 2.28486 0
M  V30 544 C 54.4266 3.32599 1.0573 0
M  V30 545 C 55.7746 3.99179 1.44711 0
M  V30 546 O 56.7986 3.3712 1.15015 0
M  V30 547 O 55.6576 5.08565 2.0006 0
M  V30 548 H 52.7516 0.755869 0.335546 0
M  V30 549 H 55.2976 1.69589 -0.0614402 0
M  V30 550 H 54.0696 3.90834 0.190828 0
M  V30 551 H 53.6926 3.51415 1.85993 0
M  V30 552 N 54.6897 -0.239769 1.55765 0
M  V30 553 C 55.9387 -0.964754 1.77131 0
M  V30 554 C 56.2517 -1.86213 0.59868 0
M  V30 555 O 57.4577 -2.6244 0.695522 0
M  V30 556 C 55.9137 -1.76552 3.1362 0
M  V30 557 C 55.5217 -0.915185 4.38553 0
M  V30 558 C 57.2657 -2.48281 3.44321 0
M  V30 559 C 55.1727 -1.71225 5.66071 0
M  V30 560 H 54.1027 -0.363953 0.660344 0
M  V30 561 H 56.7537 -0.219181 1.82186 0
M  V30 562 H 55.1357 -2.55331 3.02691 0
M  V30 563 H 56.3097 -0.169217 4.60489 0
M  V30 564 H 54.6247 -0.310889 4.15238 0
M  V30 565 H 57.2217 -3.08382 4.36812 0
M  V30 566 H 57.5647 -3.20256 2.65973 0
M  V30 567 H 58.0977 -1.76507 3.56497 0
M  V30 568 H 54.8367 -1.03612 6.4726 0
M  V30 569 H 54.3567 -2.43331 5.48224 0
M  V30 570 H 56.0357 -2.27758 6.05587 0
M  V30 571 N 56.1678 -1.49265 -0.50573 0
M  V30 572 C 57.4158 -1.582 -1.25766 0
M  V30 573 C 57.7368 -0.268482 -1.93143 0
M  V30 574 O 57.0068 0.711833 -1.8251 0
M  V30 575 H 55.5868 -0.582873 -0.467191 0
M  V30 576 H 58.2488 -1.85865 -0.586525 0
M  V30 577 H 57.3448 -2.37563 -2.02412 0
M  V30 578 N 57.6459 0.756429 -1.3826 0
M  V30 579 C 58.8759 1.54341 -1.3734 0
M  V30 580 C 59.2839 1.89159 0.0393917 0
M  V30 581 O 58.6269 1.5307 1.01565 0
M  V30 582 C 58.6889 2.87238 -2.16182 0
M  V30 583 C 58.3529 2.74973 -3.65019 0
M  V30 584 C 59.3499 2.44962 -4.58574 0
M  V30 585 C 57.0349 2.92515 -4.08338 0
M  V30 586 C 59.0289 2.32642 -5.93428 0
M  V30 587 C 56.7159 2.79815 -5.43274 0
M  V30 588 C 57.7139 2.49921 -6.35632 0
M  V30 589 O 57.4019 2.37275 -7.68086 0
M  V30 590 H 57.1339 0.484281 -0.471643 0
M  V30 591 H 59.6879 0.944152 -1.82414 0
M  V30 592 H 57.9179 3.49342 -1.65822 0
M  V30 593 H 59.6069 3.48731 -2.07705 0
M  V30 594 H 60.3729 2.31081 -4.26412 0
M  V30 595 H 56.2519 3.14781 -3.368 0
M  V30 596 H 59.7959 2.0923 -6.65484 0
M  V30 597 H 55.6929 2.93269 -5.75034 0
M  V30 598 H 56.4609 2.52509 -7.78577 0
M  V30 599 N 59.124 1.23083 0.984299 0
M  V30 600 C 60.401 0.9689 1.69917 0
M  V30 601 C 60.781 -0.513604 2.04757 0
M  V30 602 O 60.129 -1.48383 1.73767 0
M  V30 603 C 60.339 1.87518 2.94343 0
M  V30 604 C 61.687 2.13636 3.6694 0
M  V30 605 O 62.711 1.85036 3.04368 0
M  V30 606 O 61.57 2.62119 4.79537 0
M  V30 607 H 58.664 0.365095 0.742048 0
M  V30 608 H 61.21 1.34107 1.03987 0
M  V30 609 H 59.982 2.87756 2.65164 0
M  V30 610 H 59.605 1.50514 3.6801 0
M  V30 611 N 60.6021 -1.18246 1.0419 0
M  V30 612 C 61.8271 -1.92736 0.765996 0
M  V30 613 C 62.2521 -1.75728 -0.67091 0
M  V30 614 O 61.6101 -1.06825 -1.46486 0
M  V30 615 C 61.6581 -3.42148 1.13875 0
M  V30 616 O 60.7621 -4.11548 0.264954 0
M  V30 617 H 60.1031 -0.601238 0.281797 0
M  V30 618 H 62.6331 -1.49942 1.39207 0
M  V30 619 H 62.6431 -3.92858 1.1012 0
M  V30 620 H 61.3181 -3.53848 2.18551 0
M  V30 621 H 59.8951 -3.71137 0.362226 0
M  V30 622 N 62.0802 -0.821533 -1.34494 0
M  V30 623 C 63.0102 -0.257138 -2.3208 0
M  V30 624 C 63.9912 0.625645 -1.58176 0
M  V30 625 O 65.1762 0.552811 -1.86166 0
M  V30 626 C 62.3062 0.582958 -3.42372 0
M  V30 627 C 61.2602 -0.202571 -4.2752 0
M  V30 628 C 60.5862 0.760179 -5.29269 0
M  V30 629 C 61.8862 -1.40998 -5.02908 0
M  V30 630 H 63.5802 -1.07247 -2.79532 0
M  V30 631 H 61.1262 -0.517163 -1.34393 0
M  V30 632 H 63.0792 0.987972 -4.09655 0
M  V30 633 H 61.8032 1.43133 -2.93565 0
M  V30 634 H 60.4622 -0.588936 -3.61838 0
M  V30 635 H 60.1102 1.60447 -4.76724 0
M  V30 636 H 59.8102 0.238809 -5.87115 0
M  V30 637 H 61.3342 1.16308 -5.9942 0
M  V30 638 H 62.7482 -1.07905 -5.63054 0
M  V30 639 H 61.1452 -1.86689 -5.70322 0
M  V30 640 H 62.2152 -2.1889 -4.32684 0
M  V30 641 N 63.5583 1.46682 -0.576371 0
M  V30 642 C 64.5213 2.28707 0.150239 0
M  V30 643 C 65.5213 1.38035 0.824794 0
M  V30 644 O 66.7113 1.60476 0.677719 0
M  V30 645 C 63.8433 3.18248 1.22192 0
M  V30 646 H 65.0363 2.94423 -0.570521 0
M  V30 647 H 62.5893 1.52688 -0.334078 0
M  V30 648 H 63.3243 2.57265 1.97447 0
M  V30 649 H 63.1093 3.85 0.742812 0
M  V30 650 H 64.5993 3.80001 1.73172 0
M  V30 651 N 65.0364 0.313813 1.54444 0
M  V30 652 C 65.9664 -0.549454 2.26943 0
M  V30 653 C 66.9474 -1.12741 1.27372 0
M  V30 654 O 68.1324 -1.15436 1.56167 0
M  V30 655 C 65.2624 -1.71523 3.01989 0
M  V30 656 C 64.2164 -1.26703 4.08816 0
M  V30 657 C 63.5424 -2.51898 4.71647 0
M  V30 658 C 64.8424 -0.388962 5.2085 0
M  V30 659 H 66.5364 0.0552661 2.99349 0
M  V30 660 H 64.0824 0.0280207 1.43973 0
M  V30 661 H 66.0354 -2.32535 3.51433 0
M  V30 662 H 64.7594 -2.34639 2.27183 0
M  V30 663 H 63.4184 -0.679896 3.6024 0
M  V30 664 H 63.0664 -3.13356 3.93468 0
M  V30 665 H 62.7664 -2.22605 5.43802 0
M  V30 666 H 64.2904 -3.1369 5.23861 0
M  V30 667 H 65.7044 -0.905107 5.6611 0
M  V30 668 H 64.1014 -0.18924 5.99802 0
M  V30 669 H 65.1714 0.582699 4.81386 0
M  V30 670 N 66.5145 -1.57545 0.0417849 0
M  V30 671 C 67.4475 -2.06514 -0.970928 0
M  V30 672 C 68.4255 -0.963607 -1.30971 0
M  V30 673 O 69.6095 -1.23486 -1.4242 0
M  V30 674 C 66.7365 -2.4978 -2.28752 0
M  V30 675 C 65.7825 -3.71078 -2.10246 0
M  V30 676 S 66.6155 -5.17158 -1.38952 0
M  V30 677 C 67.7715 -5.6373 -2.71954 0
M  V30 678 H 68.0045 -2.9209 -0.554129 0
M  V30 679 H 65.5375 -1.53459 -0.17024 0
M  V30 680 H 67.4955 -2.75371 -3.04435 0
M  V30 681 H 66.1565 -1.64527 -2.67562 0
M  V30 682 H 65.3495 -3.9924 -3.07609 0
M  V30 683 H 64.9515 -3.45705 -1.42704 0
M  V30 684 H 67.2435 -5.68743 -3.68154 0
M  V30 685 H 68.1865 -6.63086 -2.4844 0
M  V30 686 H 68.5945 -4.91424 -2.77782 0
M  V30 687 N 67.9926 0.231505 -1.5589 0
M  V30 688 C 68.9026 1.308 -1.94752 0
M  V30 689 C 69.9186 1.51826 -0.849989 0
M  V30 690 O 71.0946 1.6515 -1.15271 0
M  V30 691 C 68.1596 2.63968 -2.24771 0
M  V30 692 C 67.2206 2.51331 -3.48039 0
M  V30 693 C 66.4536 3.78148 -3.76616 0
M  V30 694 O 66.6766 4.80722 -3.07022 0
M  V30 695 O 65.6106 3.75857 -4.70123 0
M  V30 696 H 69.4366 1.0083 -2.86474 0
M  V30 697 H 67.0216 0.433547 -1.42971 0
M  V30 698 H 68.9036 3.42633 -2.45318 0
M  V30 699 H 67.5786 2.9364 -1.36225 0
M  V30 700 H 66.4856 1.709 -3.32782 0
M  V30 701 H 67.8186 2.26601 -4.36936 0
M  V30 702 N 69.4707 1.49531 0.497807 0
M  V30 703 C 70.6987 1.62893 1.27567 0
M  V30 704 C 71.1137 0.301585 1.86376 0
M  V30 705 O 70.4707 -0.713335 1.67982 0
M  V30 706 C 70.5217 2.70013 2.40364 0
M  V30 707 O 70.2427 3.976 1.83972 0
M  V30 708 C 71.7437 2.94109 3.31685 0
M  V30 709 H 68.9637 0.548298 0.386794 0
M  V30 710 H 71.5077 1.95584 0.597245 0
M  V30 711 H 69.6627 2.40092 3.04031 0
M  V30 712 H 70.0767 4.56631 2.58047 0
M  V30 713 H 71.5507 3.72788 4.07104 0
M  V30 714 H 72.0277 2.04147 3.88871 0
M  V30 715 H 72.6337 3.2546 2.73781 0
M  V30 716 N 70.9488 -0.749086 1.3866 0
M  V30 717 C 71.9118 -1.84457 1.36045 0
M  V30 718 C 72.9118 -1.58682 0.260122 0
M  V30 719 O 74.1018 -1.66343 0.517261 0
M  V30 720 C 71.2338 -3.22008 1.11911 0
M  V30 721 H 72.4268 -1.88182 2.33512 0
M  V30 722 H 69.9798 -0.951266 1.24019 0
M  V30 723 H 70.7148 -3.2395 0.150686 0
M  V30 724 H 70.4998 -3.42111 1.91579 0
M  V30 725 H 71.9898 -4.0208 1.12788 0
M  V30 726 N 72.4269 -1.23603 -0.977757 0
M  V30 727 C 73.3899 -1.02069 -2.05218 0
M  V30 728 C 74.3899 0.0184305 -1.60789 0
M  V30 729 O 75.5799 -0.221569 -1.72785 0
M  V30 730 C 72.7119 -0.544926 -3.36517 0
M  V30 731 H 73.9049 -1.9742 -2.25755 0
M  V30 732 H 71.4579 -1.05684 -1.15155 0
M  V30 733 H 72.1929 0.412241 -3.21669 0
M  V30 734 H 71.9779 -1.2948 -3.70105 0
M  V30 735 H 73.4679 -0.414985 -4.15533 0
M  V30 736 N 73.905 1.17692 -1.04816 0
M  V30 737 C 75.321 1.39863 -0.768794 0
M  V30 738 C 75.521 1.91118 0.638451 0
M  V30 739 O 74.577 2.10036 1.40146 0
M  V30 740 C 75.89 2.39274 -1.82122 0
M  V30 741 C 77.438 2.52987 -1.843 0
M  V30 742 C 77.913 3.55669 -2.88555 0
M  V30 743 N 79.404 3.63183 -2.87493 0
M  V30 744 C 80.139 4.42381 -3.64811 0
M  V30 745 N 79.635 5.25125 -4.51903 0
M  V30 746 N 81.428 4.37217 -3.53267 0
M  V30 747 H 73.579 0.82752 -1.95617 0
M  V30 748 H 75.842 0.426123 -0.846831 0
M  V30 749 H 75.548 2.08678 -2.83102 0
M  V30 750 H 75.422 3.38725 -1.65967 0
M  V30 751 H 77.809 2.82896 -0.839869 0
M  V30 752 H 77.89 1.53623 -2.04532 0
M  V30 753 H 77.534 3.26499 -3.89051 0
M  V30 754 H 77.464 4.54728 -2.65575 0
M  V30 755 H 79.955 3.04103 -2.24343 0
M  V30 756 H 80.268 5.82728 -5.07591 0
M  V30 757 H 78.613 5.24519 -4.55966 0
M  V30 758 H 81.804 3.71626 -2.84625 0
M  V30 759 H 81.977 4.98696 -4.13771 0
M  V30 760 N 75.3831 0.828654 1.34056 0
M  V30 761 C 76.3131 0.269443 2.3194 0
M  V30 762 C 77.2941 -0.617247 1.58506 0
M  V30 763 O 78.4791 -0.542931 1.86456 0
M  V30 764 C 75.6091 -0.564793 3.42677 0
M  V30 765 C 74.5631 0.225241 4.27407 0
M  V30 766 C 73.8891 -0.7321 5.29664 0
M  V30 767 C 75.1891 1.43663 5.02154 0
M  V30 768 H 76.8831 1.08728 2.7896 0
M  V30 769 H 74.4291 0.524283 1.34117 0
M  V30 770 H 76.3821 -0.966233 4.10173 0
M  V30 771 H 75.1061 -1.41574 2.9432 0
M  V30 772 H 73.7651 0.608117 3.61521 0
M  V30 773 H 73.4131 -1.57916 4.77568 0
M  V30 774 H 73.1131 -0.20767 5.87233 0
M  V30 775 H 74.6371 -1.13128 6.00029 0
M  V30 776 H 76.0511 1.1089 5.62473 0
M  V30 777 H 74.4481 1.89711 5.69324 0
M  V30 778 H 75.5181 2.21181 4.31517 0
M  V30 779 N 76.8612 -1.46375 0.584142 0
M  V30 780 C 77.7712 -2.34115 -0.150728 0
M  V30 781 C 78.7872 -1.49838 -0.884567 0
M  V30 782 O 79.9632 -1.82704 -0.847429 0
M  V30 783 C 77.0282 -3.2705 -1.15062 0
M  V30 784 C 76.0892 -4.27228 -0.421293 0
M  V30 785 C 75.3222 -5.15722 -1.37355 0
M  V30 786 O 75.5452 -5.07176 -2.61014 0
M  V30 787 O 74.4792 -5.95383 -0.883355 0
M  V30 788 H 78.3052 -2.98309 0.569708 0
M  V30 789 H 75.8902 -1.45373 0.344535 0
M  V30 790 H 77.7722 -3.84381 -1.72712 0
M  V30 791 H 76.4472 -2.65451 -1.8525 0
M  V30 792 H 75.3542 -3.7358 0.197085 0
M  V30 793 H 76.6872 -4.91616 0.239641 0
M  V30 794 N 78.3393 -0.321999 -1.54275 0
M  V30 795 C 79.5643 0.285791 -2.05422 0
M  V30 796 C 79.9893 1.45124 -1.19669 0
M  V30 797 O 79.3473 1.80132 -0.205441 0
M  V30 798 C 79.3953 0.69956 -3.53749 0
M  V30 799 O 78.4993 1.8021 -3.70942 0
M  V30 800 H 77.8403 0.0518962 -0.661969 0
M  V30 801 H 80.3703 -0.469954 -1.9913 0
M  V30 802 H 80.3803 0.982649 -3.9599 0
M  V30 803 H 79.0553 -0.152864 -4.15619 0
M  V30 804 H 77.6323 1.51794 -3.40607 0
M  V30 805 N 79.8174 1.5752 -0.0501392 0
M  V30 806 C 81.2334 1.56631 0.306402 0
M  V30 807 C 81.4334 1.0577 1.71508 0
M  V30 808 O 80.4894 0.713837 2.422 0
M  V30 809 C 81.8024 3.00393 0.135811 0
M  V30 810 C 83.3504 3.12315 0.206993 0
M  V30 811 C 83.8254 4.57954 0.064944 0
M  V30 812 N 85.3164 4.63041 0.121254 0
M  V30 813 C 86.0514 5.73389 0.0354381 0
M  V30 814 N 85.5474 6.92724 -0.102666 0
M  V30 815 N 87.3404 5.62026 0.090946 0
M  V30 816 H 79.4914 1.88903 -0.971046 0
M  V30 817 H 81.7544 0.869876 -0.376855 0
M  V30 818 H 81.4604 3.41635 -0.835384 0
M  V30 819 H 81.3344 3.66373 0.897275 0
M  V30 820 H 83.7214 2.70973 1.16866 0
M  V30 821 H 83.8024 2.49016 -0.585208 0
M  V30 822 H 83.4464 4.99981 -0.893394 0
M  V30 823 H 83.3764 5.19258 0.876277 0
M  V30 824 H 85.8674 3.77216 0.227284 0
M  V30 825 H 86.1804 7.72633 -0.160882 0
M  V30 826 H 84.5254 6.94864 -0.137737 0
M  V30 827 H 87.7164 4.67684 0.197388 0
M  V30 828 H 87.8894 6.47997 0.0206089 0
M  V30 829 N 81.2955 -0.223234 1.56011 0
M  V30 830 C 82.5255 -0.963413 1.82762 0
M  V30 831 C 82.9335 -1.78516 0.626804 0
M  V30 832 O 82.2765 -1.78974 -0.414014 0
M  V30 833 C 82.3385 -1.93126 3.0322 0
M  V30 834 C 82.0025 -1.2942 4.38291 0
M  V30 835 C 82.9995 -0.684916 5.15369 0
M  V30 836 C 80.6845 -1.30647 4.85012 0
M  V30 837 C 82.6785 -0.0963971 6.37327 0
M  V30 838 C 80.3655 -0.71411 6.06913 0
M  V30 839 C 81.3635 -0.110123 6.82911 0
M  V30 840 O 81.0515 0.47303 8.02507 0
M  V30 841 H 80.7835 -0.288011 0.611576 0
M  V30 842 H 83.3375 -0.244103 2.03944 0
M  V30 843 H 81.5675 -2.68952 2.77852 0
M  V30 844 H 83.2565 -2.53685 3.16857 0
M  V30 845 H 84.0225 -0.667774 4.80381 0
M  V30 846 H 79.9015 -1.76598 4.25833 0
M  V30 847 H 83.4455 0.375657 6.96588 0
M  V30 848 H 79.3425 -0.728659 6.41374 0
M  V30 849 H 80.1105 0.367186 8.17676 0
M  V30 850 N 82.7736 -1.49793 -0.48987 0
M  V30 851 C 84.0216 -1.59525 -1.24081 0
M  V30 852 C 84.3426 -0.288953 -1.92847 0
M  V30 853 O 83.6126 0.692436 -1.83254 0
M  V30 854 H 82.1926 -0.587796 -0.460983 0
M  V30 855 H 84.8546 -1.86477 -0.566778 0
M  V30 856 H 83.9506 -2.39696 -1.99881 0
M  V30 857 N 84.2517 0.741722 -1.39055 0
M  V30 858 C 85.4977 1.50336 -1.36113 0
M  V30 859 C 85.8307 1.94148 0.0450796 0
M  V30 860 O 85.1057 1.66301 1.00868 0
M  V30 861 C 85.3887 2.74773 -2.32749 0
M  V30 862 C 85.2417 2.37023 -3.82283 0
M  V30 863 C 86.5607 3.76846 -2.27322 0
M  V30 864 H 83.6797 0.545351 -0.495743 0
M  V30 865 H 86.3217 0.848624 -1.69995 0
M  V30 866 H 84.4717 3.30639 -2.03986 0
M  V30 867 H 86.1437 1.8684 -4.21768 0
M  V30 868 H 84.3867 1.69334 -3.99385 0
M  V30 869 H 85.0577 3.26104 -4.45376 0
M  V30 870 H 87.5337 3.30548 -2.5274 0
M  V30 871 H 86.4097 4.6159 -2.97028 0
M  V30 872 H 86.6707 4.23286 -1.27599 0
M  V30 873 N 85.7298 1.2412 0.971189 0
M  V30 874 C 86.9548 1.10667 1.75407 0
M  V30 875 C 87.3798 -0.337048 1.85056 0
M  V30 876 O 86.7378 -1.24396 1.31892 0
M  V30 877 C 86.7858 1.74726 3.15441 0
M  V30 878 O 85.8898 1.01566 3.99697 0
M  V30 879 H 85.2308 0.387341 0.539317 0
M  V30 880 H 87.7608 1.64358 1.2185 0
M  V30 881 H 87.7708 1.80341 3.6598 0
M  V30 882 H 86.4458 2.79773 3.07734 0
M  V30 883 H 85.0228 1.03713 3.58187 0
M  V30 884 N 87.2079 -1.17134 1.05439 0
M  V30 885 C 88.4569 -1.86791 0.761049 0
M  V30 886 C 88.7699 -1.82072 -0.714795 0
M  V30 887 O 89.9759 -2.47223 -1.12218 0
M  V30 888 C 88.4319 -3.35166 1.31117 0
M  V30 889 C 88.0399 -3.48381 2.81664 0
M  V30 890 C 89.7839 -4.10134 1.09499 0
M  V30 891 C 87.6909 -4.90793 3.29964 0
M  V30 892 H 86.6209 -0.699681 0.281002 0
M  V30 893 H 89.2719 -1.3226 1.27199 0
M  V30 894 H 87.6539 -3.8925 0.72803 0
M  V30 895 H 88.8279 -3.04502 3.45855 0
M  V30 896 H 87.1429 -2.86836 3.01851 0
M  V30 897 H 89.7399 -5.152 1.43084 0
M  V30 898 H 90.0829 -4.16287 0.0328772 0
M  V30 899 H 90.6159 -3.62264 1.64346 0
M  V30 900 H 87.3549 -4.89816 4.35616 0
M  V30 901 H 86.8749 -5.35333 2.70516 0
M  V30 902 H 88.5539 -5.59573 3.24787 0
M  V30 903 N 88.686 -0.835752 -1.33615 0
M  V30 904 C 90.097 -0.487099 -1.80234 0
M  V30 905 C 90.448 0.993627 -1.69179 0
M  V30 906 O 89.573 1.77403 -1.23924 0
M  V30 907 C 90.168 -0.877385 -3.27242 0
M  V30 908 C 88.727 -0.580915 -3.7189 0
M  V30 909 C 87.874 -1.0874 -2.5509 0
M  V30 910 H 90.825 -1.02474 -1.2118 0
M  V30 911 H 90.846 -0.186195 -3.80044 0
M  V30 912 H 90.358 -1.95512 -3.35256 0
M  V30 913 H 88.459 0.486881 -3.69405 0
M  V30 914 H 88.572 -1.13396 -4.65487 0
M  V30 915 H 86.936 -0.508392 -2.49575 0
M  V30 916 H 87.719 -2.17184 -2.65868 0
M  V30 917 N 90.1641 1.46063 -0.591896 0
M  V30 918 C 91.4411 1.95595 -0.0137119 0
M  V30 919 C 91.8211 1.5345 1.4497 0
M  V30 920 O 91.1691 0.789543 2.14426 0
M  V30 921 C 91.3791 3.48453 -0.195373 0
M  V30 922 C 92.7271 4.24546 -0.0679765 0
M  V30 923 O 93.7511 3.55982 -0.124681 0
M  V30 924 O 92.6101 5.46467 0.0600579 0
M  V30 925 H 89.7041 0.825795 0.0446279 0
M  V30 926 H 92.2501 1.56303 -0.660859 0
M  V30 927 H 91.0221 3.72045 -1.21235 0
M  V30 928 H 90.6451 3.94597 0.487775 0
M  V30 929 N 91.6422 0.330177 1.54103 0
M  V30 930 C 92.9192 -0.325007 1.92881 0
M  V30 931 C 93.2992 -1.6934 1.26045 0
M  V30 932 O 92.6472 -2.24855 0.406526 0
M  V30 933 C 92.8572 -0.410634 3.46576 0
M  V30 934 C 94.2052 -0.667801 4.19316 0
M  V30 935 O 95.2292 -0.49329 3.52768 0
M  V30 936 O 94.0882 -1.00491 5.37181 0
M  V30 937 H 91.1822 -0.186873 0.80561 0
M  V30 938 H 93.7282 0.380376 1.65382 0
M  V30 939 H 92.5002 0.550164 3.87413 0
M  V30 940 H 92.1232 -1.16333 3.802 0
M  V30 941 N 93.1203 -1.57491 0.0584922 0
M  V30 942 C 94.3663 -1.93264 -0.614558 0
M  V30 943 C 94.6993 -0.937717 -1.7006 0
M  V30 944 O 93.9743 0.0351652 -1.94468 0
M  V30 945 C 94.2573 -3.3938 -1.20386 0
M  V30 946 C 94.1103 -4.49625 -0.125375 0
M  V30 947 C 95.4293 -3.86039 -2.11334 0
M  V30 948 H 92.5483 -0.702791 -0.221933 0
M  V30 949 H 95.1903 -1.8961 0.12175 0
M  V30 950 H 93.3403 -3.42626 -1.83139 0
M  V30 951 H 95.0123 -4.58506 0.506971 0
M  V30 952 H 93.2553 -4.30354 0.545672 0
M  V30 953 H 93.9263 -5.48967 -0.577861 0
M  V30 954 H 96.4023 -3.84716 -1.58534 0
M  V30 955 H 95.2783 -4.88914 -2.49507 0
M  V30 956 H 95.5393 -3.23215 -3.01636 0
M  V30 957 N 94.5984 0.214957 -1.56127 0
M  V30 958 C 95.5614 1.24997 -1.92116 0
M  V30 959 C 96.5614 1.39467 -0.800344 0
M  V30 960 O 97.7514 1.37619 -1.06802 0
M  V30 961 C 94.8834 2.62271 -2.17777 0
M  V30 962 H 96.0764 0.942875 -2.84693 0
M  V30 963 H 93.6294 0.455654 -1.49511 0
M  V30 964 H 94.3644 2.98068 -1.27773 0
M  V30 965 H 94.1494 2.53143 -2.99434 0
M  V30 966 H 95.6394 3.36946 -2.46693 0
M  V30 967 N 96.0765 1.50051 0.48192 0
M  V30 968 C 97.3245 1.60181 1.23234 0
M  V30 969 C 97.6455 0.299176 1.92691 0
M  V30 970 O 96.9155 -0.682708 1.83619 0
M  V30 971 H 95.4955 0.590232 0.457859 0
M  V30 972 H 98.1575 1.86775 0.556881 0
M  V30 973 H 97.2535 2.40753 1.98607 0
M  V30 974 N 97.5546 -0.734337 1.39446 0
M  V30 975 C 98.9706 -1.03997 1.21065 0
M  V30 976 C 99.1706 -2.01369 0.0727019 0
M  V30 977 O 98.2266 -2.45856 -0.575426 0
M  V30 978 C 99.5396 -1.60163 2.54496 0
M  V30 979 C 101.088 -1.7224 2.61347 0
M  V30 980 C 101.563 -2.31814 3.95002 0
M  V30 981 N 103.054 -2.39223 3.96644 0
M  V30 982 C 103.789 -2.86258 4.96834 0
M  V30 983 N 103.285 -3.33184 6.07421 0
M  V30 984 N 105.078 -2.85473 4.84213 0
M  V30 985 H 97.2286 -0.0885624 2.12215 0
M  V30 986 H 99.4916 -0.10191 0.942506 0
M  V30 987 H 99.1976 -0.960811 3.38321 0
M  V30 988 H 99.0716 -2.5896 2.74262 0
M  V30 989 H 101.459 -2.35443 1.77906 0
M  V30 990 H 101.54 -0.720939 2.4543 0
M  V30 991 H 101.184 -1.69238 4.78875 0
M  V30 992 H 101.114 -3.32638 4.08239 0
M  V30 993 H 103.605 -2.06057 3.16779 0
M  V30 994 H 103.918 -3.67586 6.7978 0
M  V30 995 H 102.263 -3.31191 6.11013 0
M  V30 996 H 105.454 -2.48136 3.96921 0
M  V30 997 H 105.627 -3.21814 5.62441 0
M  V30 998 N 99.0327 -1.24633 -0.964593 0
M  V30 999 C 100.279 -1.08949 -1.71049 0
M  V30 1000 C 100.612 0.370302 -1.90637 0
M  V30 1001 O 99.8867 1.27349 -1.47011 0
M  V30 1002 C 100.17 -1.83329 -3.0994 0
M  V30 1003 C 100.023 -3.37077 -2.97824 0
M  V30 1004 C 101.342 -1.60846 -4.09654 0
M  V30 1005 H 98.4607 -0.397178 -0.620821 0
M  V30 1006 H 101.103 -1.5334 -1.12191 0
M  V30 1007 H 99.2527 -1.45597 -3.60186 0
M  V30 1008 H 100.925 -3.84425 -2.5498 0
M  V30 1009 H 99.1677 -3.65298 -2.33965 0
M  V30 1010 H 99.8387 -3.84324 -3.96231 0
M  V30 1011 H 102.315 -1.93674 -3.68279 0
M  V30 1012 H 101.191 -2.1534 -5.04896 0
M  V30 1013 H 101.452 -0.547434 -4.38698 0
M  V30 1014 N 100.511 1.16574 -1.06058 0
M  V30 1015 C 101.788 1.83048 -0.689416 0
M  V30 1016 C 102.168 1.94122 0.829443 0
M  V30 1017 O 101.516 1.48249 1.7388 0
M  V30 1018 C 101.726 3.20186 -1.38859 0
M  V30 1019 C 103.074 3.95989 -1.53226 0
M  V30 1020 O 104.098 3.29696 -1.3483 0
M  V30 1021 O 102.957 5.14813 -1.83384 0
M  V30 1022 H 100.051 0.790258 -0.243764 0
M  V30 1023 H 102.597 1.23797 -1.16071 0
M  V30 1024 H 101.369 3.07146 -2.4244 0
M  V30 1025 H 100.992 3.87112 -0.907216 0
M  V30 1026 N 101.989 0.842826 1.3317 0
M  V30 1027 C 103.217 0.454055 2.01856 0
M  V30 1028 C 103.632 -0.94587 1.63397 0
M  V30 1029 O 102.989 -1.61534 0.849302 0
M  V30 1030 C 103.04 0.569715 3.56982 0
M  V30 1031 O 102.761 1.91448 3.94055 0
M  V30 1032 C 104.262 0.178412 4.42941 0
M  V30 1033 H 101.482 0.17979 0.646465 0
M  V30 1034 H 104.026 1.1365 1.70012 0
M  V30 1035 H 102.181 -0.0648587 3.87346 0
M  V30 1036 H 102.595 1.90282 4.88767 0
M  V30 1037 H 104.069 0.310376 5.51127 0
M  V30 1038 H 104.546 -0.880056 4.30293 0
M  V30 1039 H 105.152 0.787579 4.17944 0
M  V30 1040 N 103.467 -1.45747 0.599634 0
M  V30 1041 C 104.878 -1.85853 0.177681 0
M  V30 1042 C 105.229 -1.50102 -1.26348 0
M  V30 1043 O 104.354 -0.923905 -1.95686 0
M  V30 1044 C 104.949 -3.37326 0.315688 0
M  V30 1045 C 103.508 -3.76365 -0.0515144 0
M  V30 1046 C 102.655 -2.69722 0.643822 0
M  V30 1047 H 105.606 -1.36661 0.806814 0
M  V30 1048 H 105.627 -3.77778 -0.454321 0
M  V30 1049 H 105.139 -3.63315 1.36468 0
M  V30 1050 H 103.24 -3.55993 -1.09999 0
M  V30 1051 H 103.353 -4.77916 0.336594 0
M  V30 1052 H 101.717 -2.54567 0.0822881 0
M  V30 1053 H 102.5 -2.98549 1.6948 0
M  V30 1054 N 104.945 -0.338344 -1.53925 0
M  V30 1055 C 106.361 0.0137736 -1.59594 0
M  V30 1056 C 106.561 1.49186 -1.35447 0
M  V30 1057 O 105.617 2.24987 -1.14616 0
M  V30 1058 C 106.93 -0.41773 -2.97784 0
M  V30 1059 C 108.478 -0.369633 -3.1081 0
M  V30 1060 C 108.953 -0.776524 -4.51369 0
M  V30 1061 N 110.444 -0.730506 -4.57403 0
M  V30 1062 C 111.179 -1.01736 -5.64303 0
M  V30 1063 N 110.675 -1.3721 -6.79077 0
M  V30 1064 N 112.468 -0.941942 -5.54151 0
M  V30 1065 H 104.619 -1.3012 -1.67876 0
M  V30 1066 H 106.882 -0.530082 -0.78595 0
M  V30 1067 H 106.588 -1.44811 -3.20504 0
M  V30 1068 H 106.462 0.209729 -3.76616 0
M  V30 1069 H 108.849 0.651568 -2.87817 0
M  V30 1070 H 108.93 -1.03223 -2.34049 0
M  V30 1071 H 108.574 -1.79571 -4.75096 0
M  V30 1072 H 108.504 -0.0914649 -5.26521 0
M  V30 1073 H 110.995 -0.468783 -3.74981 0
M  V30 1074 H 111.308 -1.57597 -7.5656 0
M  V30 1075 H 109.653 -1.4105 -6.80536 0
M  V30 1076 H 112.844 -0.664184 -4.63364 0
M  V30 1077 H 113.017 -1.16884 -6.37371 0
M  V30 1078 N 106.423 1.57458 -0.0668435 0
M  V30 1079 C 107.333 2.15937 0.916975 0
M  V30 1080 C 108.349 1.12123 1.33058 0
M  V30 1081 O 109.525 1.44366 1.40429 0
M  V30 1082 C 106.59 2.70547 2.16807 0
M  V30 1083 C 105.651 3.89215 1.81135 0
M  V30 1084 C 104.884 4.41211 3.0028 0
M  V30 1085 O 105.107 3.92225 4.14144 0
M  V30 1086 O 104.041 5.32605 2.80384 0
M  V30 1087 H 107.867 3.00354 0.449561 0
M  V30 1088 H 105.452 1.48584 0.155949 0
M  V30 1089 H 107.334 3.0557 2.90181 0
M  V30 1090 H 106.009 1.89192 2.62656 0
M  V30 1091 H 104.916 3.59054 1.05028 0
M  V30 1092 H 106.249 4.71848 1.40073 0
M  V30 1093 N 107.901 -0.206675 1.56239 0
M  V30 1094 C 108.831 -1.25909 1.96645 0
M  V30 1095 C 109.812 -1.48097 0.836734 0
M  V30 1096 O 110.997 -1.6003 1.10019 0
M  V30 1097 C 108.127 -2.6058 2.29599 0
M  V30 1098 C 107.081 -2.53024 3.452 0
M  V30 1099 C 106.407 -3.91861 3.63798 0
M  V30 1100 C 107.707 -2.06524 4.79734 0
M  V30 1101 H 109.401 -0.923369 2.84806 0
M  V30 1102 H 106.947 -0.442735 1.37025 0
M  V30 1103 H 108.9 -3.34375 2.56459 0
M  V30 1104 H 107.624 -2.95869 1.38307 0
M  V30 1105 H 106.283 -1.81684 3.18412 0
M  V30 1106 H 105.931 -4.24483 2.69857 0
M  V30 1107 H 105.631 -3.87683 4.4156 0
M  V30 1108 H 107.155 -4.67296 3.93022 0
M  V30 1109 H 108.569 -2.70072 5.05702 0
M  V30 1110 H 106.966 -2.13374 5.60885 0
M  V30 1111 H 108.036 -1.01802 4.74093 0
M  V30 1112 N 109.379 -1.50304 -0.473955 0
M  V30 1113 C 110.309 -1.71886 -1.58042 0
M  V30 1114 C 111.29 -0.567799 -1.60344 0
M  V30 1115 O 112.475 -0.806623 -1.76656 0
M  V30 1116 C 109.605 -1.81036 -2.96384 0
M  V30 1117 C 108.559 -2.962 -3.08949 0
M  V30 1118 C 107.885 -2.9049 -4.48909 0
M  V30 1119 C 109.185 -4.36752 -2.86434 0
M  V30 1120 H 110.879 -2.64527 -1.40234 0
M  V30 1121 H 108.425 -1.27295 -0.673201 0
M  V30 1122 H 110.378 -1.94719 -3.73714 0
M  V30 1123 H 109.102 -0.850147 -3.15341 0
M  V30 1124 H 107.761 -2.82164 -2.3405 0
M  V30 1125 H 107.409 -1.92321 -4.64781 0
M  V30 1126 H 107.109 -3.67802 -4.58253 0
M  V30 1127 H 108.633 -3.06218 -5.28264 0
M  V30 1128 H 110.047 -4.5133 -3.53517 0
M  V30 1129 H 108.444 -5.15493 -3.07225 0
M  V30 1130 H 109.514 -4.49321 -1.82316 0
M  V30 1131 N 110.857 0.726932 -1.39834 0
M  V30 1132 C 112.134 1.47902 -1.28001 0
M  V30 1133 C 112.514 2.1083 0.106789 0
M  V30 1134 O 111.862 1.99242 1.11869 0
M  V30 1135 C 112.072 2.52392 -2.41038 0
M  V30 1136 C 113.42 3.18546 -2.80737 0
M  V30 1137 O 114.444 2.62708 -2.40547 0
M  V30 1138 O 113.303 4.19604 -3.50135 0
M  V30 1139 H 110.397 0.657163 -0.502062 0
M  V30 1140 H 112.943 0.760071 -1.51727 0
M  V30 1141 H 111.715 2.04329 -3.33715 0
M  V30 1142 H 111.338 3.31837 -2.19021 0
M  V30 1143 N 112.336 1.25143 0.95797 0
M  V30 1144 C 113.266 1.07711 2.07173 0
M  V30 1145 C 114.247 -0.0128462 1.70095 0
M  V30 1146 O 115.432 0.156061 1.93572 0
M  V30 1147 C 112.562 0.691503 3.40346 0
M  V30 1148 C 111.516 1.73132 3.9142 0
M  V30 1149 C 110.842 1.20049 5.21049 0
M  V30 1150 C 112.142 3.1294 4.1817 0
M  V30 1151 H 113.836 2.00873 2.22014 0
M  V30 1152 H 111.382 0.967191 1.06684 0
M  V30 1153 H 113.335 0.556505 4.17709 0
M  V30 1154 H 112.059 -0.275819 3.25433 0
M  V30 1155 H 110.718 1.8547 3.16222 0
M  V30 1156 H 110.366 0.223499 5.02503 0
M  V30 1157 H 110.066 1.89545 5.56189 0
M  V30 1158 H 111.59 1.07782 6.01012 0
M  V30 1159 H 113.004 3.03775 4.86203 0
M  V30 1160 H 111.401 3.79875 4.64559 0
M  V30 1161 H 112.471 3.6025 3.24573 0
M  V30 1162 N 113.814 -1.1601 1.06675 0
M  V30 1163 C 115.063 -1.85973 0.780818 0
M  V30 1164 C 115.376 -1.82819 -0.695444 0
M  V30 1165 O 116.582 -2.484 -1.09589 0
M  V30 1166 C 115.038 -3.33757 1.34665 0
M  V30 1167 C 114.646 -3.45374 2.85343 0
M  V30 1168 C 116.39 -4.0895 1.13843 0
M  V30 1169 C 114.297 -4.87266 3.35151 0
M  V30 1170 H 113.227 -0.696661 0.288407 0
M  V30 1171 H 115.878 -1.30903 1.28595 0
M  V30 1172 H 114.26 -3.88456 0.769274 0
M  V30 1173 H 115.434 -3.00816 3.49065 0
M  V30 1174 H 113.749 -2.83619 3.04876 0
M  V30 1175 H 116.346 -5.13654 1.4854 0
M  V30 1176 H 116.689 -4.16229 0.0770282 0
M  V30 1177 H 117.222 -3.605 1.68179 0
M  V30 1178 H 113.961 -4.85168 4.40786 0
M  V30 1179 H 113.481 -5.32433 2.76179 0
M  V30 1180 H 115.16 -5.56097 3.30704 0
M  V30 1181 N 115.292 -0.849877 -1.32721 0
M  V30 1182 C 116.24 -0.279745 -2.30912 0
M  V30 1183 C 117.234 0.594278 -1.58634 0
M  V30 1184 O 118.44 0.482613 -1.73409 0
M  V30 1185 H 114.815 -0.0717521 -0.748569 0
M  V30 1186 H 116.786 -1.12222 -2.76494 0
M  V30 1187 C 115.535 0.521108 -3.43773 0
M  V30 1188 H 114.858 -0.142141 -3.99547 0
M  V30 1189 H 116.298 0.885693 -4.14646 0
M  V30 1190 C 114.757 1.70442 -2.90605 0
M  V30 1191 O 115.287 2.8034 -2.87702 0
M  V30 1192 N 113.493 1.52991 -2.47067 0
M  V30 1193 H 113.04 0.635914 -2.49628 0
M  V30 1194 H 112.998 2.32311 -2.11847 0
M  V30 1195 N 116.77 1.45427 -0.607355 0
M  V30 1196 C 118.018 2.01841 -0.102253 0
M  V30 1197 C 118.339 1.47832 1.27164 0
M  V30 1198 O 117.609 0.672497 1.83995 0
M  V30 1199 H 116.189 0.746188 -0.0348101 0
M  V30 1200 H 118.851 1.78229 -0.7887 0
M  V30 1201 H 117.947 3.12057 -0.0518585 0
M  V30 1202 N 118.248 0.346503 1.53744 0
M  V30 1203 C 119.211 -0.496439 2.23759 0
M  V30 1204 C 120.211 -1.0252 1.2388 0
M  V30 1205 O 121.401 -0.913974 1.48297 0
M  V30 1206 C 118.533 -1.69187 2.95954 0
M  V30 1207 H 119.726 0.115952 2.99676 0
M  V30 1208 H 117.279 0.0978939 1.55993 0
M  V30 1209 H 118.014 -2.34288 2.24231 0
M  V30 1210 H 117.799 -1.31989 3.69217 0
M  V30 1211 H 119.289 -2.28969 3.49232 0
M  V30 1212 N 119.726 -1.57421 0.075193 0
M  V30 1213 C 120.656 -2.15942 -0.888324 0
M  V30 1214 C 121.637 -1.08737 -1.30806 0
M  V30 1215 O 122.822 -1.36787 -1.37851 0
M  V30 1216 C 119.952 -2.72379 -2.1547 0
M  V30 1217 C 118.906 -3.8478 -1.87425 0
M  V30 1218 C 118.232 -4.27834 -3.20721 0
M  V30 1219 C 119.532 -5.08869 -1.17684 0
M  V30 1220 H 121.226 -2.96705 -0.400799 0
M  V30 1221 H 118.772 -1.42723 -0.191342 0
M  V30 1222 H 120.725 -3.11965 -2.83295 0
M  V30 1223 H 119.449 -1.88841 -2.6647 0
M  V30 1224 H 118.108 -3.45703 -1.22004 0
M  V30 1225 H 117.756 -3.41214 -3.6957 0
M  V30 1226 H 117.456 -5.03605 -3.02746 0
M  V30 1227 H 118.98 -4.70039 -3.89738 0
M  V30 1228 H 120.394 -5.4575 -1.75584 0
M  V30 1229 H 118.791 -5.8994 -1.09956 0
M  V30 1230 H 119.861 -4.84648 -0.156453 0
M  V30 1231 N 121.204 0.198386 -1.56346 0
M  V30 1232 C 122.167 1.22952 -1.93431 0
M  V30 1233 C 123.167 1.38611 -0.815092 0
M  V30 1234 O 124.357 1.36479 -1.08255 0
M  V30 1235 C 121.489 2.59946 -2.20546 0
M  V30 1236 H 122.682 0.912626 -2.85677 0
M  V30 1237 H 120.235 0.43977 -1.49986 0
M  V30 1238 H 120.97 2.96696 -1.30927 0
M  V30 1239 H 120.755 2.49953 -3.02102 0
M  V30 1240 H 122.245 3.3431 -2.50253 0
M  V30 1241 N 122.682 1.50554 0.465978 0
M  V30 1242 C 123.592 1.72585 1.58907 0
M  V30 1243 C 124.608 0.60911 1.6299 0
M  V30 1244 O 125.784 0.88804 1.80765 0
M  V30 1245 C 122.849 1.81995 2.95091 0
M  V30 1246 C 121.91 3.05751 3.01355 0
M  V30 1247 C 121.143 3.14702 4.31043 0
M  V30 1248 O 121.366 2.30313 5.21835 0
M  V30 1249 O 120.3 4.07468 4.43005 0
M  V30 1250 H 124.126 2.67799 1.43239 0
M  V30 1251 H 121.711 1.34711 0.646013 0
M  V30 1252 H 123.593 1.90335 3.75966 0
M  V30 1253 H 122.268 0.899659 3.10947 0
M  V30 1254 H 121.175 3.02908 2.19539 0
M  V30 1255 H 122.508 3.97375 2.90437 0
M  V30 1256 N 124.16 -0.719506 1.40217 0
M  V30 1257 C 125.123 -1.8153 1.39927 0
M  V30 1258 C 126.123 -1.58095 0.293723 0
M  V30 1259 O 127.313 -1.65209 0.552429 0
M  V30 1260 C 124.445 -3.19561 1.18716 0
M  V30 1261 H 125.638 -1.83186 2.37451 0
M  V30 1262 H 123.191 -0.924746 1.26008 0
M  V30 1263 H 123.926 -3.23557 0.219366 0
M  V30 1264 H 123.711 -3.3797 1.98793 0
M  V30 1265 H 125.201 -3.99598 1.21291 0
M  V30 1266 N 125.638 -1.25649 -0.95132 0
M  V30 1267 C 126.601 -1.06399 -2.03007 0
M  V30 1268 C 127.601 -0.0156794 -1.60792 0
M  V30 1269 O 128.791 -0.25817 -1.72276 0
M  V30 1270 C 125.923 -0.616184 -3.35285 0
M  V30 1271 H 127.116 -2.02164 -2.21517 0
M  V30 1272 H 124.669 -1.08103 -1.12887 0
M  V30 1273 H 125.404 0.343917 -3.22471 0
M  V30 1274 H 125.189 -1.37301 -3.67275 0
M  V30 1275 H 126.679 -0.503032 -4.14559 0
M  V30 1276 O 127.155 1.08449 -1.1967 0
M  V30 1277 H 127.846 1.68999 -0.946525 0
M  V30 END ATOM
M  V30 BEGIN BOND
M  V30 END BOND
M  V30 END CTAB
M  END
$$$$
