drugbank_target|Q02169 Septum formation protein Maf (DB02333)
 OpenBabel12092119553D

  0  0  0     0  0            999 V3000
M  V30 BEGIN CTAB
M  V30 COUNTS 2997 3026 0 0 0
M  V30 BEGIN ATOM
M  V30 1 H -0.908 1.98254 -0.117106 0
M  V30 2 N 0 1.576 0 0
M  V30 3 C 0.933 2.03868 1.02534 0
M  V30 4 C 1.911 0.928543 1.3348 0
M  V30 5 O 3.095 1.19667 1.45644 0
M  V30 6 C 0.222 2.43627 2.35294 0
M  V30 7 C -0.732 3.65373 2.2001 0
M  V30 8 S 0.101 5.13292 1.52614 0
M  V30 9 C 1.257 5.56322 2.86805 0
M  V30 10 H 1.49 2.90518 0.631377 0
M  V30 11 H -0.977 1.52953 0.210867 0
M  V30 12 H 0.981 2.67203 3.11629 0
M  V30 13 H -0.358 1.57376 2.7183 0
M  V30 14 H -1.165 3.90944 3.18086 0
M  V30 15 H -1.563 3.418 1.51819 0
M  V30 16 H 0.729 5.58782 3.83104 0
M  V30 17 H 1.672 6.56266 2.65933 0
M  V30 18 H 2.08 4.83886 2.90714 0
M  V30 19 N 1.4781 -0.272755 1.55222 0
M  V30 20 C 2.7061 -1.02255 1.79865 0
M  V30 21 C 3.1211 -1.79924 0.572088 0
M  V30 22 O 2.4781 -1.76638 -0.458842 0
M  V30 23 C 2.5291 -1.98094 3.02392 0
M  V30 24 O 2.2501 -1.23572 4.20311 0
M  V30 25 C 3.7511 -2.84884 3.39641 0
M  V30 26 H 0.9711 -0.302057 0.599168 0
M  V30 27 H 3.5151 -0.303465 2.02236 0
M  V30 28 H 1.6701 -2.65465 2.82147 0
M  V30 29 H 2.0841 -1.88172 4.89583 0
M  V30 30 H 3.5581 -3.47927 4.28545 0
M  V30 31 H 4.0351 -3.54665 2.59055 0
M  V30 32 H 4.6411 -2.23003 3.62146 0
M  V30 33 N 2.9562 -1.48159 -0.537278 0
M  V30 34 C 3.9032 -1.62138 -1.64256 0
M  V30 35 C 4.8732 -0.463668 -1.59497 0
M  V30 36 O 6.0582 -0.686241 -1.78032 0
M  V30 37 C 3.1982 -1.66028 -3.02537 0
M  V30 38 C 2.3112 -2.92855 -3.17585 0
M  V30 39 C 1.4462 -2.87952 -4.46382 0
M  V30 40 C 0.4852 -4.09516 -4.54932 0
M  V30 41 N -0.3778 -4.02733 -5.75109 0
M  V30 42 H 4.4622 -2.56529 -1.51647 0
M  V30 43 H 1.9992 -1.27224 -0.738414 0
M  V30 44 H 3.9572 -1.66265 -3.82638 0
M  V30 45 H 2.5872 -0.751331 -3.13934 0
M  V30 46 H 1.6392 -3.02395 -2.30784 0
M  V30 47 H 2.9512 -3.82822 -3.19764 0
M  V30 48 H 2.1052 -2.8655 -5.34765 0
M  V30 49 H 0.8442 -1.95702 -4.46712 0
M  V30 50 H -0.1508 -4.11201 -3.64957 0
M  V30 51 H 1.0742 -5.02917 -4.56346 0
M  V30 52 H -0.9798 -3.13299 -5.76351 0
M  V30 53 H -1.0628 -4.86397 -5.78752 0
M  V30 54 H 0.2052 -4.05379 -6.65799 0
M  V30 55 N 4.4343 0.785586 -1.36625 0
M  V30 56 C 5.8453 1.36101 -1.27803 0
M  V30 57 C 6.1963 1.96035 0.0804875 0
M  V30 58 O 5.3213 1.92834 0.982042 0
M  V30 59 C 5.9163 2.47442 -2.31426 0
M  V30 60 C 4.4753 3.00789 -2.26281 0
M  V30 61 C 3.6223 1.73896 -2.15999 0
M  V30 62 H 6.5733 0.586928 -1.47448 0
M  V30 63 H 6.5943 3.2656 -1.95291 0
M  V30 64 H 6.1063 2.03791 -3.30289 0
M  V30 65 H 4.2073 3.48851 -1.30896 0
M  V30 66 H 4.3203 3.57343 -3.19128 0
M  V30 67 H 2.6843 1.9628 -1.62316 0
M  V30 68 H 3.4673 1.32368 -3.16755 0
M  V30 69 N 5.9124 1.20967 1.01018 0
M  V30 70 C 6.8424 0.988272 2.11555 0
M  V30 71 C 7.8234 -0.0849778 1.69888 0
M  V30 72 O 9.0084 0.0738202 1.9406 0
M  V30 73 C 6.1384 0.546528 3.42973 0
M  V30 74 C 5.0924 1.56375 3.9841 0
M  V30 75 C 4.4184 0.97842 5.25672 0
M  V30 76 C 5.7184 2.94922 4.31066 0
M  V30 77 H 7.4124 1.91276 2.30334 0
M  V30 78 H 4.9584 0.921073 1.1069 0
M  V30 79 H 6.9114 0.378839 4.19694 0
M  V30 80 H 5.6354 -0.413598 3.23971 0
M  V30 81 H 4.2944 1.71891 3.23804 0
M  V30 82 H 3.9424 0.0101688 5.02999 0
M  V30 83 H 3.6424 1.65784 5.63728 0
M  V30 84 H 5.1664 0.821939 6.05043 0
M  V30 85 H 6.5804 2.8288 4.9865 0
M  V30 86 H 4.9774 3.5983 4.80253 0
M  V30 87 H 6.0474 3.4616 3.39561 0
M  V30 88 N 7.3905 -1.2043 1.01659 0
M  V30 89 C 8.6395 -1.89118 0.701237 0
M  V30 90 C 8.9525 -1.79705 -0.772358 0
M  V30 91 O 10.1585 -2.43528 -1.20026 0
M  V30 92 C 8.6145 -3.39168 1.20388 0
M  V30 93 C 8.2225 -3.57166 2.70438 0
M  V30 94 C 9.9665 -4.1341 0.963953 0
M  V30 95 C 7.8735 -5.01042 3.14183 0
M  V30 96 H 6.8035 -0.708267 0.2586 0
M  V30 97 H 9.4545 -1.36239 1.22927 0
M  V30 98 H 7.8365 -3.91369 0.603824 0
M  V30 99 H 9.0105 -3.15351 3.35992 0
M  V30 100 H 7.3255 -2.96294 2.92572 0
M  V30 101 H 9.9225 -5.19491 1.26621 0
M  V30 102 H 10.2655 -4.16181 -0.099578 0
M  V30 103 H 10.7985 -3.67309 1.52738 0
M  V30 104 H 7.5375 -5.03426 4.19812 0
M  V30 105 H 7.0575 -5.43668 2.53348 0
M  V30 106 H 8.7365 -5.69623 3.0682 0
M  V30 107 N 8.8686 -0.792821 -1.36206 0
M  V30 108 C 9.7986 -0.207853 -2.32573 0
M  V30 109 C 10.7796 0.659055 -1.56813 0
M  V30 110 O 11.9646 0.592176 -1.84951 0
M  V30 111 C 9.0946 0.655449 -3.41059 0
M  V30 112 C 8.0486 -0.111842 -4.27854 0
M  V30 113 C 7.3746 0.872274 -5.27537 0
M  V30 114 C 8.6746 -1.30299 -5.05786 0
M  V30 115 H 10.3686 -1.01294 -2.81744 0
M  V30 116 H 7.9146 -0.48854 -1.3546 0
M  V30 117 H 9.8676 1.07464 -4.07467 0
M  V30 118 H 8.5916 1.49328 -2.90463 0
M  V30 119 H 7.2506 -0.512053 -3.63006 0
M  V30 120 H 6.8986 1.70523 -4.73214 0
M  V30 121 H 6.5986 0.363291 -5.86476 0
M  V30 122 H 8.1226 1.28996 -5.96818 0
M  V30 123 H 9.5366 -0.959379 -5.65216 0
M  V30 124 H 7.9336 -1.7455 -5.74154 0
M  V30 125 H 9.0036 -2.09663 -4.37229 0
M  V30 126 N 10.3467 1.47872 -0.545128 0
M  V30 127 C 11.3097 2.28337 0.198717 0
M  V30 128 C 12.3097 1.36255 0.853888 0
M  V30 129 O 13.4997 1.59003 0.711606 0
M  V30 130 C 10.6317 3.15585 1.28915 0
M  V30 131 H 11.8247 2.95567 -0.507941 0
M  V30 132 H 9.3777 1.53362 -0.301616 0
M  V30 133 H 10.1127 2.53019 2.02859 0
M  V30 134 H 9.8977 3.83337 0.824309 0
M  V30 135 H 11.3877 3.76243 1.81194 0
M  V30 136 N 11.8248 0.280983 1.55075 0
M  V30 137 C 13.0498 -0.340154 2.04592 0
M  V30 138 C 13.4748 -1.48246 1.15779 0
M  V30 139 O 12.8328 -1.80614 0.15761 0
M  V30 140 C 12.8808 -0.793104 3.5177 0
M  V30 141 O 11.9848 -1.89981 3.66034 0
M  V30 142 H 11.3258 -0.0694289 0.66036 0
M  V30 143 H 13.8558 0.416993 2.00306 0
M  V30 144 H 13.8658 -1.08729 3.93245 0
M  V30 145 H 12.5408 0.0426163 4.15878 0
M  V30 146 H 11.1178 -1.60771 3.36463 0
M  V30 147 N 13.3029 -1.57598 0.00835791 0
M  V30 148 C 14.2349 -2.05811 -1.00868 0
M  V30 149 C 15.2479 -0.977579 -1.30182 0
M  V30 150 O 16.4369 -1.25421 -1.27011 0
M  V30 151 C 13.5369 -2.45016 -2.34137 0
M  V30 152 C 12.7099 -3.75903 -2.23643 0
M  V30 153 C 11.7689 -4.01884 -3.3967 0
M  V30 154 O 10.7949 -4.72433 -3.17483 0
M  V30 155 N 11.9969 -3.50432 -4.62793 0
M  V30 156 H 14.7619 -2.93684 -0.597458 0
M  V30 157 H 12.3229 -1.60909 -0.178852 0
M  V30 158 H 14.3149 -2.59506 -3.10546 0
M  V30 159 H 12.8849 -1.62618 -2.66972 0
M  V30 160 H 12.1049 -3.7141 -1.32091 0
M  V30 161 H 13.3929 -4.61695 -2.13812 0
M  V30 162 H 12.7909 -2.93317 -4.83716 0
M  V30 163 H 11.3479 -3.70236 -5.3644 0
M  V30 164 N 14.781 0.264519 -1.55364 0
M  V30 165 C 16.006 1.01726 -1.80739 0
M  V30 166 C 16.431 1.78836 -0.583044 0
M  V30 167 O 15.789 1.75167 0.467566 0
M  V30 168 C 15.837 1.94482 -3.03659 0
M  V30 169 O 14.941 3.03386 -2.7934 0
M  V30 170 H 14.282 0.290395 -0.597132 0
M  V30 171 H 16.812 0.290854 -2.02522 0
M  V30 172 H 16.822 2.36278 -3.32621 0
M  V30 173 H 15.497 1.37772 -3.92418 0
M  V30 174 H 14.074 2.65844 -2.61498 0
M  V30 175 N 16.2591 1.48442 0.529413 0
M  V30 176 C 17.6701 1.5002 1.11134 0
M  V30 177 C 18.0211 0.27031 1.94329 0
M  V30 178 O 17.1461 -0.622507 2.07253 0
M  V30 179 C 17.7411 2.71834 2.02217 0
M  V30 180 C 16.3001 2.76283 2.55627 0
M  V30 181 C 15.4471 2.43542 1.326 0
M  V30 182 H 18.3981 1.5555 0.314641 0
M  V30 183 H 18.4191 2.50384 2.8651 0
M  V30 184 H 17.9311 3.61331 1.41639 0
M  V30 185 H 16.0321 1.90995 3.19924 0
M  V30 186 H 16.1451 3.77725 2.94721 0
M  V30 187 H 14.5091 1.94709 1.64196 0
M  V30 188 H 15.2921 3.3528 0.737734 0
M  V30 189 N 17.7372 -0.778329 1.37039 0
M  V30 190 C 19.1532 -1.07796 1.17695 0
M  V30 191 C 19.3532 -2.01498 0.00860115 0
M  V30 192 O 18.4092 -2.43901 -0.653352 0
M  V30 193 C 19.7222 -1.68178 2.49272 0
M  V30 194 C 21.2702 -1.80467 2.55735 0
M  V30 195 C 21.7452 -2.44263 3.87427 0
M  V30 196 N 23.2362 -2.51721 3.88833 0
M  V30 197 C 23.9712 -3.01919 4.87476 0
M  V30 198 N 23.4672 -3.5234 5.96513 0
M  V30 199 N 25.2602 -3.00733 4.74885 0
M  V30 200 H 17.4112 -0.156032 2.11826 0
M  V30 201 H 19.6742 -0.131844 0.938787 0
M  V30 202 H 19.3802 -1.06796 3.35093 0
M  V30 203 H 19.2542 -2.67554 2.65885 0
M  V30 204 H 21.6412 -2.40984 1.70325 0
M  V30 205 H 21.7222 -0.798656 2.43013 0
M  V30 206 H 21.3662 -1.84388 4.73248 0
M  V30 207 H 21.2962 -3.45458 3.9745 0
M  V30 208 H 23.7872 -2.1603 3.10063 0
M  V30 209 H 24.1002 -3.89027 6.67741 0
M  V30 210 H 22.4452 -3.50462 6.00168 0
M  V30 211 H 25.6362 -2.60638 3.88826 0
M  V30 212 H 25.8092 -3.39545 5.51918 0
M  V30 213 N 19.2153 -1.21501 -1.00376 0
M  V30 214 C 20.6313 -0.972629 -1.26539 0
M  V30 215 C 20.8313 0.340257 -1.98606 0
M  V30 216 O 19.8873 1.06561 -2.28913 0
M  V30 217 C 21.2003 -2.16404 -2.08781 0
M  V30 218 C 22.7483 -2.20643 -2.22004 0
M  V30 219 C 23.2233 -3.39306 -3.07629 0
M  V30 220 N 24.7143 -3.39401 -3.15217 0
M  V30 221 C 25.4493 -4.27867 -3.81729 0
M  V30 222 N 24.9453 -5.26533 -4.5026 0
M  V30 223 N 26.7383 -4.15672 -3.78382 0
M  V30 224 H 18.8893 -2.05929 -0.520281 0
M  V30 225 H 21.1523 -0.901803 -0.292328 0
M  V30 226 H 20.8583 -3.11554 -1.63178 0
M  V30 227 H 20.7323 -2.15567 -3.09533 0
M  V30 228 H 23.1193 -1.26048 -2.66825 0
M  V30 229 H 23.2003 -2.25523 -1.20718 0
M  V30 230 H 22.8443 -4.34195 -2.63509 0
M  V30 231 H 22.7743 -3.31665 -4.09031 0
M  V30 232 H 25.2653 -2.67997 -2.66432 0
M  V30 233 H 25.5783 -5.90337 -4.98721 0
M  V30 234 H 23.9233 -5.30457 -4.49044 0
M  V30 235 H 27.1143 -3.3785 -3.23998 0
M  V30 236 H 27.2873 -4.84825 -4.2994 0
M  V30 237 N 20.6934 1.19889 -1.02296 0
M  V30 238 C 21.6404 2.22901 -0.598651 0
M  V30 239 C 22.6104 1.61588 0.384521 0
M  V30 240 O 23.7954 1.88697 0.282522 0
M  V30 241 C 20.9354 3.45063 0.0504476 0
M  V30 242 C 20.0484 4.20783 -0.978053 0
M  V30 243 C 19.1834 5.30356 -0.299338 0
M  V30 244 C 18.2224 5.97826 -1.31416 0
M  V30 245 N 17.3594 6.98975 -0.661667 0
M  V30 246 H 22.1994 2.58554 -1.48169 0
M  V30 247 H 19.7364 1.27039 -0.741584 0
M  V30 248 H 21.6944 4.14831 0.443971 0
M  V30 249 H 20.3244 3.10084 0.897097 0
M  V30 250 H 19.3764 3.50018 -1.48969 0
M  V30 251 H 20.6884 4.67109 -1.74958 0
M  V30 252 H 19.8424 6.06516 0.149347 0
M  V30 253 H 18.5814 4.85084 0.504445 0
M  V30 254 H 17.5864 5.20422 -1.77317 0
M  V30 255 H 18.8114 6.45183 -2.11933 0
M  V30 256 H 16.7574 6.55886 0.122132 0
M  V30 257 H 16.6744 7.43461 -1.37117 0
M  V30 258 H 17.9424 7.7914 -0.236785 0
M  V30 259 N 22.1715 0.800033 1.35784 0
M  V30 260 C 23.0815 0.207204 2.33683 0
M  V30 261 C 24.0975 -0.64631 1.61551 0
M  V30 262 O 25.2735 -0.559604 1.93469 0
M  V30 263 C 22.3385 -0.639659 3.40748 0
M  V30 264 C 21.3995 0.233585 4.28664 0
M  V30 265 C 20.6325 -0.572954 5.30616 0
M  V30 266 O 20.8555 -1.80816 5.40982 0
M  V30 267 O 19.7895 0.0327285 6.01891 0
M  V30 268 H 23.6155 1.01692 2.86169 0
M  V30 269 H 21.2005 0.561691 1.38439 0
M  V30 270 H 23.0825 -1.12223 4.06182 0
M  V30 271 H 21.7575 -1.42708 2.90544 0
M  V30 272 H 20.6645 0.763147 3.66233 0
M  V30 273 H 21.9975 0.984784 4.82248 0
M  V30 274 N 23.6496 -1.47581 0.552962 0
M  V30 275 C 24.5796 -2.32762 -0.185451 0
M  V30 276 C 25.5606 -1.43527 -0.912905 0
M  V30 277 O 26.7456 -1.72388 -0.894201 0
M  V30 278 C 23.8756 -3.25219 -1.21859 0
M  V30 279 C 22.8296 -4.23661 -0.607864 0
M  V30 280 C 22.1556 -5.05413 -1.74533 0
M  V30 281 C 23.4556 -5.20481 0.435582 0
M  V30 282 H 25.1496 -2.94749 0.525684 0
M  V30 283 H 22.6956 -1.41738 0.254251 0
M  V30 284 H 24.6486 -3.8365 -1.7433 0
M  V30 285 H 23.3726 -2.61279 -1.95961 0
M  V30 286 H 22.0316 -3.66451 -0.104489 0
M  V30 287 H 21.6796 -4.3788 -2.47529 0
M  V30 288 H 21.3796 -5.72059 -1.34249 0
M  V30 289 H 22.9036 -5.66701 -2.27338 0
M  V30 290 H 24.3176 -5.733 -0.00290157 0
M  V30 291 H 22.7146 -5.95305 0.757067 0
M  V30 292 H 23.7846 -4.66217 1.33303 0
M  V30 293 N 25.1277 -0.289203 -1.54924 0
M  V30 294 C 26.0577 0.58549 -2.2604 0
M  V30 295 C 27.0387 1.14753 -1.25562 0
M  V30 296 O 28.2237 1.17906 -1.54311 0
M  V30 297 C 25.3537 1.76305 -2.99222 0
M  V30 298 C 24.3077 1.33191 -4.06748 0
M  V30 299 C 23.6337 2.5937 -4.6758 0
M  V30 300 C 24.9337 0.471775 -5.20165 0
M  V30 301 H 26.6277 -0.00763532 -2.99399 0
M  V30 302 H 24.1737 -0.00511229 -1.43999 0
M  V30 303 H 26.1267 2.38097 -3.47689 0
M  V30 304 H 24.8507 2.38223 -2.23422 0
M  V30 305 H 23.5097 0.737121 -3.59113 0
M  V30 306 H 23.1577 3.19576 -3.88433 0
M  V30 307 H 22.8577 2.31228 -5.40192 0
M  V30 308 H 24.3817 3.21985 -5.18804 0
M  V30 309 H 25.7957 0.995056 -5.64599 0
M  V30 310 H 24.1927 0.284639 -5.99425 0
M  V30 311 H 25.2627 -0.506041 -4.82252 0
M  V30 312 N 26.6058 1.57591 -0.0167156 0
M  V30 313 C 27.8828 1.82547 0.702564 0
M  V30 314 C 28.2628 0.898018 1.91047 0
M  V30 315 O 27.6108 -0.0493456 2.28447 0
M  V30 316 C 27.8208 3.31459 1.09251 0
M  V30 317 C 29.1688 3.97622 1.48937 0
M  V30 318 O 30.1928 3.35881 1.18584 0
M  V30 319 O 29.0518 5.06415 2.05442 0
M  V30 320 H 26.1458 0.752268 0.343544 0
M  V30 321 H 28.6918 1.69644 -0.0434495 0
M  V30 322 H 27.4638 3.9061 0.23227 0
M  V30 323 H 27.0868 3.49422 1.89709 0
M  V30 324 N 28.0839 -0.256276 1.55502 0
M  V30 325 C 29.0139 -1.32102 1.92539 0
M  V30 326 C 29.9949 -1.50684 0.789194 0
M  V30 327 O 31.1799 -1.63449 1.04872 0
M  V30 328 C 28.3099 -2.67752 2.21192 0
M  V30 329 C 27.2639 -2.63878 3.36975 0
M  V30 330 C 26.5899 -4.03236 3.51147 0
M  V30 331 C 27.8899 -2.21682 4.72921 0
M  V30 332 H 29.5839 -1.01351 2.81724 0
M  V30 333 H 27.1299 -0.486105 1.35547 0
M  V30 334 H 29.0829 -3.42365 2.45691 0
M  V30 335 H 27.8069 -3.0012 1.28824 0
M  V30 336 H 26.4659 -1.91722 3.12471 0
M  V30 337 H 26.1139 -4.32854 2.56216 0
M  V30 338 H 25.8139 -4.01535 4.29003 0
M  V30 339 H 27.3379 -4.79563 3.77957 0
M  V30 340 H 28.7519 -2.86023 4.96854 0
M  V30 341 H 27.1489 -2.3111 5.53812 0
M  V30 342 H 28.2189 -1.16833 4.70615 0
M  V30 343 N 29.562 -1.4872 -0.521534 0
M  V30 344 C 30.492 -1.66771 -1.63431 0
M  V30 345 C 31.473 -0.516499 -1.62069 0
M  V30 346 O 32.658 -0.750013 -1.79132 0
M  V30 347 C 29.788 -1.71515 -3.01993 0
M  V30 348 C 28.742 -2.86222 -3.18216 0
M  V30 349 C 28.068 -2.76061 -4.57924 0
M  V30 350 C 29.368 -4.27419 -3.00184 0
M  V30 351 H 31.062 -2.59932 -1.48579 0
M  V30 352 H 28.608 -1.25089 -0.713358 0
M  V30 353 H 30.561 -1.82731 -3.7972 0
M  V30 354 H 29.285 -0.749393 -3.17886 0
M  V30 355 H 27.944 -2.74575 -2.42908 0
M  V30 356 H 27.592 -1.77437 -4.70665 0
M  V30 357 H 27.292 -3.53037 -4.69722 0
M  V30 358 H 28.816 -2.89256 -5.37739 0
M  V30 359 H 30.23 -4.39855 -3.67697 0
M  V30 360 H 28.627 -5.05458 -3.2347 0
M  V30 361 H 29.697 -4.43293 -1.96518 0
M  V30 362 N 31.0401 0.771051 -1.3745 0
M  V30 363 C 31.9721 1.89352 -1.29146 0
M  V30 364 C 32.9851 1.61477 -0.207124 0
M  V30 365 O 34.1741 1.72382 -0.463324 0
M  V30 366 C 31.2741 3.24596 -0.974195 0
M  V30 367 C 30.4471 3.80111 -2.16413 0
M  V30 368 C 29.5061 4.93832 -1.81703 0
M  V30 369 O 28.5321 5.09382 -2.54006 0
M  V30 370 N 29.7341 5.75483 -0.761573 0
M  V30 371 H 32.4991 1.96991 -2.25864 0
M  V30 372 H 30.0601 0.950191 -1.31084 0
M  V30 373 H 32.0521 3.98193 -0.722828 0
M  V30 374 H 30.6221 3.12454 -0.0955527 0
M  V30 375 H 29.8421 2.98284 -2.57721 0
M  V30 376 H 31.1301 4.13932 -2.95867 0
M  V30 377 H 30.5281 5.65469 -0.161609 0
M  V30 378 H 29.0851 6.49302 -0.570064 0
M  V30 379 N 32.5182 1.22032 0.997298 0
M  V30 380 C 33.4482 1.01065 2.10495 0
M  V30 381 C 34.4292 -0.0669542 1.69968 0
M  V30 382 O 35.6142 0.0943987 1.9397 0
M  V30 383 C 32.7442 0.582874 3.42374 0
M  V30 384 C 31.6982 1.60592 3.96729 0
M  V30 385 C 31.0242 1.03412 5.24605 0
M  V30 386 C 32.3242 2.99478 4.27914 0
M  V30 387 H 34.0182 1.93708 2.28292 0
M  V30 388 H 31.5642 0.932761 1.09707 0
M  V30 389 H 33.5172 0.423332 4.19268 0
M  V30 390 H 32.2412 -0.379213 3.24391 0
M  V30 391 H 30.9002 1.75316 3.21963 0
M  V30 392 H 30.5482 0.063518 5.0296 0
M  V30 393 H 30.2482 1.71754 5.61938 0
M  V30 394 H 31.7722 0.886066 6.04137 0
M  V30 395 H 33.1862 2.88153 4.95622 0
M  V30 396 H 31.5832 3.64903 4.76409 0
M  V30 397 H 32.6532 3.49742 3.3587 0
M  V30 398 N 33.9963 -1.19345 1.0293 0
M  V30 399 C 35.4073 -1.70725 0.755633 0
M  V30 400 C 35.7583 -1.82326 -0.724676 0
M  V30 401 O 34.8833 -1.49471 -1.56484 0
M  V30 402 C 35.4783 -3.10084 1.36503 0
M  V30 403 C 34.0373 -3.58723 1.13994 0
M  V30 404 C 33.1843 -2.35577 1.46283 0
M  V30 405 H 36.1353 -1.0418 1.19718 0
M  V30 406 H 36.1563 -3.72787 0.762217 0
M  V30 407 H 35.6683 -3.01609 2.44241 0
M  V30 408 H 33.7693 -3.72512 0.0807901 0
M  V30 409 H 33.8823 -4.42816 1.82894 0
M  V30 410 H 32.2463 -2.38935 0.88217 0
M  V30 411 H 33.0293 -2.29731 2.55105 0
M  V30 412 N 35.4744 -0.807222 -1.35358 0
M  V30 413 C 36.7044 -0.399796 -2.02695 0
M  V30 414 C 37.1124 0.994176 -1.60974 0
M  V30 415 O 36.4554 1.65209 -0.803226 0
M  V30 416 C 36.5174 -0.404445 -3.57218 0
M  V30 417 C 36.1814 -1.74904 -4.22206 0
M  V30 418 C 37.1784 -2.70743 -4.4384 0
M  V30 419 C 34.8634 -2.03322 -4.5931 0
M  V30 420 C 36.8574 -3.93183 -5.01683 0
M  V30 421 C 34.5444 -3.26026 -5.16866 0
M  V30 422 C 35.5424 -4.20774 -5.37994 0
M  V30 423 O 35.2304 -5.41312 -5.94337 0
M  V30 424 H 34.9624 -0.160517 -0.656666 0
M  V30 425 H 37.5164 -1.09235 -1.73945 0
M  V30 426 H 35.7464 0.344707 -3.85161 0
M  V30 427 H 37.4354 -0.0192429 -4.05895 0
M  V30 428 H 38.2014 -2.5008 -4.15554 0
M  V30 429 H 34.0804 -1.30384 -4.42178 0
M  V30 430 H 37.6244 -4.6715 -5.1809 0
M  V30 431 H 33.5214 -3.46559 -5.44579 0
M  V30 432 H 34.2894 -5.42618 -6.12787 0
M  V30 433 N 36.9525 1.47285 -0.560781 0
M  V30 434 C 38.1775 2.07359 -0.0410566 0
M  V30 435 C 38.6025 1.41017 1.24483 0
M  V30 436 O 37.9605 0.486368 1.74654 0
M  V30 437 C 38.0085 3.6035 0.134123 0
M  V30 438 O 37.1125 3.94681 1.19587 0
M  V30 439 H 36.4535 0.661887 -0.0529291 0
M  V30 440 H 38.9835 1.89252 -0.777482 0
M  V30 441 H 38.9935 4.0652 0.347207 0
M  V30 442 H 37.6685 4.08034 -0.805047 0
M  V30 443 H 36.2455 3.60251 0.962987 0
M  V30 444 N 38.4306 0.297415 1.54768 0
M  V30 445 C 39.6796 -0.313669 1.99246 0
M  V30 446 C 39.9926 -1.55281 1.18942 0
M  V30 447 O 41.1986 -2.23825 1.5367 0
M  V30 448 C 39.6546 -0.609407 3.54703 0
M  V30 449 C 39.2626 0.611192 4.43811 0
M  V30 450 C 41.0066 -1.18188 4.07715 0
M  V30 451 C 38.9136 0.288805 5.90694 0
M  V30 452 H 37.8436 -0.120979 0.744231 0
M  V30 453 H 40.4946 0.40556 1.78962 0
M  V30 454 H 38.8766 -1.38813 3.70873 0
M  V30 455 H 40.0506 1.3875 4.39414 0
M  V30 456 H 38.3656 1.10205 4.01552 0
M  V30 457 H 40.9626 -1.43727 5.15021 0
M  V30 458 H 41.3056 -2.12299 3.58099 0
M  V30 459 H 41.8386 -0.464944 3.95074 0
M  V30 460 H 38.5776 1.19838 6.44453 0
M  V30 461 H 38.0976 -0.450305 5.98107 0
M  V30 462 H 39.7766 -0.110933 6.46905 0
M  V30 463 N 39.9087 -1.5758 0.0250728 0
M  V30 464 C 41.1577 -1.90811 -0.653767 0
M  V30 465 C 41.4707 -0.90273 -1.73523 0
M  V30 466 O 42.6767 -1.12614 -2.47043 0
M  V30 467 C 41.1327 -3.38804 -1.21409 0
M  V30 468 C 40.7407 -4.47692 -0.166126 0
M  V30 469 C 42.4847 -3.81108 -1.86967 0
M  V30 470 C 40.3917 -5.86779 -0.737856 0
M  V30 471 H 39.3217 -0.712063 -0.247956 0
M  V30 472 H 41.9727 -1.83281 0.0897137 0
M  V30 473 H 40.3547 -3.41252 -2.00905 0
M  V30 474 H 41.5287 -4.56797 0.606079 0
M  V30 475 H 39.8437 -4.14565 0.390466 0
M  V30 476 H 42.4407 -4.82375 -2.30692 0
M  V30 477 H 42.7837 -3.15953 -2.71071 0
M  V30 478 H 43.3167 -3.81065 -1.14167 0
M  V30 479 H 40.0557 -6.55468 0.0649577 0
M  V30 480 H 39.5757 -5.81288 -1.47864 0
M  V30 481 H 41.2547 -6.35223 -1.22884 0
M  V30 482 N 41.3868 0.248026 -1.55636 0
M  V30 483 C 42.6328 0.97767 -1.77678 0
M  V30 484 C 42.9658 1.85016 -0.590135 0
M  V30 485 O 42.2408 1.90095 0.411611 0
M  V30 486 C 42.5238 1.83914 -3.09593 0
M  V30 487 C 42.3768 0.99491 -4.38659 0
M  V30 488 C 43.6958 2.82183 -3.37729 0
M  V30 489 H 40.8148 0.354005 -0.646413 0
M  V30 490 H 43.4568 0.248253 -1.88371 0
M  V30 491 H 41.6068 2.46104 -3.00608 0
M  V30 492 H 43.2788 0.391789 -4.59633 0
M  V30 493 H 41.5218 0.299231 -4.32767 0
M  V30 494 H 42.1928 1.63145 -5.2734 0
M  V30 495 H 44.6688 2.30129 -3.4667 0
M  V30 496 H 43.5448 3.39582 -4.31249 0
M  V30 497 H 43.8058 3.58588 -2.58586 0
M  V30 498 N 42.8649 1.48995 0.513639 0
M  V30 499 C 44.0899 1.61792 1.29762 0
M  V30 500 C 44.5149 0.284475 1.85936 0
M  V30 501 O 43.8729 -0.746185 1.65232 0
M  V30 502 C 43.9209 2.67993 2.41272 0
M  V30 503 O 43.0249 2.26287 3.44772 0
M  V30 504 H 42.3659 0.541963 0.38363 0
M  V30 505 H 44.8959 1.95097 0.616307 0
M  V30 506 H 44.9059 2.89772 2.87221 0
M  V30 507 H 43.5809 3.64791 1.9975 0
M  V30 508 H 42.1579 2.14788 3.04829 0
M  V30 509 N 44.343 -0.763751 1.37857 0
M  V30 510 C 45.253 -1.90817 1.36478 0
M  V30 511 C 46.269 -1.71997 0.263248 0
M  V30 512 O 47.445 -1.95095 0.499979 0
M  V30 513 C 44.51 -3.2605 1.17864 0
M  V30 514 C 43.571 -3.57467 2.3773 0
M  V30 515 C 42.804 -4.86249 2.19995 0
M  V30 516 O 43.027 -5.57884 1.18836 0
M  V30 517 O 41.961 -5.16911 3.08361 0
M  V30 518 H 45.787 -1.94933 2.32884 0
M  V30 519 H 43.372 -0.907619 1.1867 0
M  V30 520 H 45.254 -4.06924 1.09504 0
M  V30 521 H 43.929 -3.22769 0.245372 0
M  V30 522 H 42.836 -2.76796 2.51664 0
M  V30 523 H 44.169 -3.655 3.29652 0
M  V30 524 N 45.8211 -1.22559 -0.990812 0
M  V30 525 C 47.0671 -1.05297 -1.73322 0
M  V30 526 C 47.4001 0.410655 -1.89808 0
M  V30 527 O 46.6751 1.30439 -1.44277 0
M  V30 528 C 46.9581 -1.76713 -3.13759 0
M  V30 529 C 46.8111 -3.30684 -3.04907 0
M  V30 530 C 48.1301 -1.52121 -4.12974 0
M  V30 531 H 45.2491 -0.38392 -0.629106 0
M  V30 532 H 47.8911 -1.50926 -1.15418 0
M  V30 533 H 46.0411 -1.37924 -3.63193 0
M  V30 534 H 47.7131 -3.7893 -2.63077 0
M  V30 535 H 45.9561 -3.60253 -2.41661 0
M  V30 536 H 46.6271 -3.75833 -4.04294 0
M  V30 537 H 49.1031 -1.85819 -3.72304 0
M  V30 538 H 47.9791 -2.04582 -5.0935 0
M  V30 539 H 48.2401 -0.454257 -4.3976 0
M  V30 540 N 47.2992 1.18797 -1.03562 0
M  V30 541 C 48.2092 2.25913 -0.632505 0
M  V30 542 C 49.2252 1.70668 0.338882 0
M  V30 543 O 50.4012 2.00453 0.195076 0
M  V30 544 C 47.4662 3.467 0.00350942 0
M  V30 545 C 46.5272 4.17098 -1.01624 0
M  V30 546 C 45.7602 5.32119 -0.410478 0
M  V30 547 O 45.9832 5.64976 0.784725 0
M  V30 548 O 44.9172 5.9107 -1.13667 0
M  V30 549 H 48.7432 2.62648 -1.52478 0
M  V30 550 H 46.3282 1.25781 -0.806195 0
M  V30 551 H 48.2102 4.19878 0.35781 0
M  V30 552 H 46.8852 3.11798 0.869686 0
M  V30 553 H 45.7922 3.4601 -1.42224 0
M  V30 554 H 47.1252 4.55987 -1.85301 0
M  V30 555 N 48.7773 0.814389 1.34928 0
M  V30 556 C 49.6873 0.231978 2.3345 0
M  V30 557 C 50.7033 -0.629139 1.62228 0
M  V30 558 O 51.8793 -0.539052 1.94052 0
M  V30 559 C 48.9443 -0.603482 3.41407 0
M  V30 560 C 48.0053 0.279037 4.28392 0
M  V30 561 C 47.2383 -0.516643 5.31193 0
M  V30 562 O 47.4613 -1.75068 5.4287 0
M  V30 563 O 46.3953 0.0965652 6.01823 0
M  V30 564 H 50.2213 1.04721 2.85074 0
M  V30 565 H 47.8063 0.576343 1.37836 0
M  V30 566 H 49.6883 -1.07908 4.0735 0
M  V30 567 H 48.3633 -1.39618 2.92042 0
M  V30 568 H 47.2703 0.801948 3.65403 0
M  V30 569 H 48.6033 1.03588 4.81176 0
M  V30 570 N 50.2554 -1.46986 0.568584 0
M  V30 571 C 51.2024 -2.30153 -0.172707 0
M  V30 572 C 52.1724 -1.39759 -0.897586 0
M  V30 573 O 53.3574 -1.68716 -0.891044 0
M  V30 574 C 50.4974 -3.23952 -1.1895 0
M  V30 575 C 49.6104 -4.29441 -0.469517 0
M  V30 576 C 48.7454 -5.1038 -1.47259 0
M  V30 577 C 47.7844 -6.07632 -0.738225 0
M  V30 578 N 46.9214 -6.8149 -1.68868 0
M  V30 579 H 51.7614 -2.93019 0.542596 0
M  V30 580 H 49.2984 -1.44422 0.279401 0
M  V30 581 H 51.2564 -3.76767 -1.79173 0
M  V30 582 H 49.8864 -2.62926 -1.87269 0
M  V30 583 H 48.9384 -3.79594 0.247467 0
M  V30 584 H 50.2504 -4.98689 0.105241 0
M  V30 585 H 49.4044 -5.67402 -2.14803 0
M  V30 586 H 48.1434 -4.4106 -2.08128 0
M  V30 587 H 47.1484 -5.49778 -0.0489293 0
M  V30 588 H 48.3734 -6.78966 -0.135129 0
M  V30 589 H 46.3194 -6.14891 -2.28573 0
M  V30 590 H 46.2364 -7.46948 -1.16636 0
M  V30 591 H 47.5044 -7.43078 -2.3549 0
M  V30 592 N 51.7335 -0.305618 -1.54608 0
M  V30 593 C 52.6635 0.561482 -2.26649 0
M  V30 594 C 53.6445 1.13415 -1.26772 0
M  V30 595 O 54.8295 1.16262 -1.55553 0
M  V30 596 C 51.9595 1.73122 -3.01075 0
M  V30 597 C 50.9135 1.2887 -4.08138 0
M  V30 598 C 50.2395 2.54396 -4.70305 0
M  V30 599 C 51.5395 0.416578 -5.20636 0
M  V30 600 H 53.2335 -0.0393902 -2.99374 0
M  V30 601 H 50.7795 -0.020385 -1.43986 0
M  V30 602 H 52.7325 2.34396 -3.50195 0
M  V30 603 H 51.4565 2.3584 -2.25936 0
M  V30 604 H 50.1155 0.698991 -3.59875 0
M  V30 605 H 49.7635 3.15439 -3.918 0
M  V30 606 H 49.4635 2.25486 -5.42614 0
M  V30 607 H 50.9875 3.16464 -5.2219 0
M  V30 608 H 52.4015 0.935116 -5.65622 0
M  V30 609 H 50.7985 0.221046 -5.99693 0
M  V30 610 H 51.8685 -0.557162 -4.81688 0
M  V30 611 N 53.2116 1.57565 -0.0334293 0
M  V30 612 C 54.1596 2.1164 0.96496 0
M  V30 613 C 55.1536 1.04398 1.33407 0
M  V30 614 O 56.3596 1.22828 1.3158 0
M  V30 615 H 52.7346 0.676222 0.32898 0
M  V30 616 H 54.7056 2.94455 0.483614 0
M  V30 617 C 53.4546 2.66207 2.23672 0
M  V30 618 H 52.7776 3.48378 1.96145 0
M  V30 619 H 54.2176 3.07685 2.9173 0
M  V30 620 C 52.6766 1.59151 2.96939 0
M  V30 621 O 53.2066 0.993858 3.89211 0
M  V30 622 N 51.4126 1.31093 2.59351 0
M  V30 623 H 50.9596 1.7988 1.84393 0
M  V30 624 H 50.9176 0.596889 3.08682 0
M  V30 625 N 54.6897 -0.239769 1.55765 0
M  V30 626 C 56.1057 -0.588624 1.48349 0
M  V30 627 C 56.3057 -1.88005 0.72502 0
M  V30 628 O 55.3617 -2.51186 0.257269 0
M  V30 629 C 56.6747 -0.68474 2.928 0
M  V30 630 C 58.2227 -0.77659 3.03213 0
M  V30 631 C 58.6977 -0.904207 4.48986 0
M  V30 632 N 60.1887 -0.968896 4.52953 0
M  V30 633 C 60.9237 -1.08703 5.63002 0
M  V30 634 N 60.4197 -1.17026 6.82845 0
M  V30 635 N 62.2127 -1.12074 5.50814 0
M  V30 636 H 54.3637 0.607911 2.03515 0
M  V30 637 H 56.6267 0.21083 0.924259 0
M  V30 638 H 56.3327 0.194284 3.51163 0
M  V30 639 H 56.2067 -1.55435 3.43686 0
M  V30 640 H 58.5937 -1.64606 2.44926 0
M  V30 641 H 58.6747 0.118315 2.55526 0
M  V30 642 H 58.3187 -0.0392633 5.07885 0
M  V30 643 H 58.2487 -1.81426 4.9436 0
M  V30 644 H 60.7397 -0.915633 3.6664 0
M  V30 645 H 61.0527 -1.25966 7.62465 0
M  V30 646 H 59.3977 -1.13971 6.85591 0
M  V30 647 H 62.5887 -1.05226 4.5612 0
M  V30 648 H 62.7617 -1.20936 6.36615 0
M  V30 649 N 56.1678 -1.49265 -0.50573 0
M  V30 650 C 57.1158 -1.66065 -1.62866 0
M  V30 651 C 58.1098 -0.526636 -1.61006 0
M  V30 652 O 59.3158 -0.706126 -1.65571 0
M  V30 653 H 55.6908 -0.52356 -0.539805 0
M  V30 654 H 57.6618 -2.60329 -1.45848 0
M  V30 655 C 56.4108 -1.74008 -3.01026 0
M  V30 656 H 55.7338 -2.6064 -3.03161 0
M  V30 657 H 57.1738 -1.89798 -3.79147 0
M  V30 658 C 55.6328 -0.483868 -3.33407 0
M  V30 659 O 56.1628 0.392548 -3.99777 0
M  V30 660 N 54.3688 -0.348236 -2.88506 0
M  V30 661 H 53.9158 -1.06242 -2.34671 0
M  V30 662 H 53.8738 0.491204 -3.10539 0
M  V30 663 N 57.6459 0.756429 -1.3826 0
M  V30 664 C 58.8929 1.51547 -1.34312 0
M  V30 665 C 59.2209 1.94382 0.0677144 0
M  V30 666 O 58.4759 1.65514 1.04421 0
M  V30 667 C 58.7749 2.78313 -2.24224 0
M  V30 668 C 58.4409 2.54455 -3.72241 0
M  V30 669 C 57.1029 2.47657 -4.12576 0
M  V30 670 C 59.4549 2.3354 -4.65949 0
M  V30 671 C 56.7829 2.17956 -5.44713 0
M  V30 672 C 59.1349 2.05359 -5.9834 0
M  V30 673 C 57.7989 1.97016 -6.37762 0
M  V30 674 H 57.0689 0.55455 -0.491482 0
M  V30 675 H 59.7159 0.870039 -1.70595 0
M  V30 676 H 58.0209 3.47492 -1.80987 0
M  V30 677 H 59.7179 3.36259 -2.18474 0
M  V30 678 H 56.3079 2.60616 -3.40261 0
M  V30 679 H 60.4919 2.37772 -4.35635 0
M  V30 680 H 55.7479 2.10003 -5.74203 0
M  V30 681 H 59.9219 1.88179 -6.70494 0
M  V30 682 H 57.5489 1.73766 -7.40074 0
M  V30 683 N 59.124 1.23083 0.984299 0
M  V30 684 C 60.349 1.088 1.76571 0
M  V30 685 C 60.774 -0.356657 1.84688 0
M  V30 686 O 60.132 -1.25788 1.30565 0
M  V30 687 C 60.18 1.71371 3.17277 0
M  V30 688 O 59.284 0.973213 4.00752 0
M  V30 689 H 58.625 0.381599 0.543395 0
M  V30 690 H 61.155 1.63057 1.23587 0
M  V30 691 H 61.165 1.76449 3.67872 0
M  V30 692 H 59.84 2.76493 3.10684 0
M  V30 693 H 58.417 0.999078 3.59267 0
M  V30 694 N 60.6021 -1.18246 1.0419 0
M  V30 695 C 62.0131 -1.69914 0.773698 0
M  V30 696 C 62.3641 -1.83085 -0.705297 0
M  V30 697 O 61.4891 -1.51123 -1.5489 0
M  V30 698 C 62.0841 -3.08619 1.39784 0
M  V30 699 C 60.6431 -3.57494 1.17792 0
M  V30 700 C 59.7901 -2.34013 1.48773 0
M  V30 701 H 62.7411 -1.02904 1.20816 0
M  V30 702 H 62.7621 -3.71958 0.801714 0
M  V30 703 H 62.2741 -2.99001 2.47426 0
M  V30 704 H 60.3751 -3.72406 0.120295 0
M  V30 705 H 60.4881 -4.40852 1.87581 0
M  V30 706 H 58.8521 -2.37986 0.907463 0
M  V30 707 H 59.6351 -2.27013 2.57527 0
M  V30 708 N 62.0802 -0.821533 -1.34494 0
M  V30 709 C 62.9902 -0.244355 -2.33324 0
M  V30 710 C 64.0062 0.620527 -1.62559 0
M  V30 711 O 65.1822 0.528754 -1.94335 0
M  V30 712 C 62.2472 0.585368 -3.41723 0
M  V30 713 C 61.3082 -0.301752 -4.28238 0
M  V30 714 C 60.5412 0.488466 -5.3146 0
M  V30 715 O 60.7642 1.72186 -5.4379 0
M  V30 716 O 59.6982 -0.12848 -6.01763 0
M  V30 717 H 63.5242 -1.06231 -2.84515 0
M  V30 718 H 61.1092 -0.583645 -1.37528 0
M  V30 719 H 62.9912 1.05747 -4.07916 0
M  V30 720 H 61.6662 1.38068 -2.92778 0
M  V30 721 H 60.5732 -0.821315 -3.64973 0
M  V30 722 H 61.9062 -1.06138 -4.8062 0
M  V30 723 N 63.5583 1.46682 -0.576371 0
M  V30 724 C 64.4683 2.34032 0.163141 0
M  V30 725 C 65.4843 1.49367 0.892501 0
M  V30 726 O 66.6603 1.82252 0.857106 0
M  V30 727 C 63.7253 3.26435 1.16795 0
M  V30 728 C 62.7863 4.26998 0.443944 0
M  V30 729 C 62.0193 5.14986 1.40088 0
M  V30 730 O 62.2423 5.05785 2.637 0
M  V30 731 O 61.1763 5.94906 0.914917 0
M  V30 732 H 65.0023 2.98607 -0.55388 0
M  V30 733 H 62.5873 1.45554 -0.336821 0
M  V30 734 H 64.4693 3.83459 1.74748 0
M  V30 735 H 63.1443 2.64465 1.86655 0
M  V30 736 H 62.0513 3.7368 -0.177271 0
M  V30 737 H 63.3843 4.91736 -0.213566 0
M  V30 738 N 65.0364 0.313813 1.54444 0
M  V30 739 C 65.9844 -0.572171 2.25453 0
M  V30 740 C 66.9784 -1.12657 1.2651 0
M  V30 741 O 68.1844 -1.07573 1.44319 0
M  V30 742 H 64.5594 -0.203146 0.724041 0
M  V30 743 H 66.5304 0.0491145 2.9836 0
M  V30 744 C 65.2794 -1.72626 3.0182 0
M  V30 745 H 64.6024 -1.30891 3.77767 0
M  V30 746 H 66.0424 -2.32199 3.54767 0
M  V30 747 C 64.5014 -2.63806 2.09542 0
M  V30 748 O 65.0314 -3.65256 1.67185 0
M  V30 749 N 63.2374 -2.31824 1.75232 0
M  V30 750 H 62.7844 -1.49368 2.09873 0
M  V30 751 H 62.7424 -2.93095 1.13767 0
M  V30 752 N 66.5145 -1.57545 0.0417849 0
M  V30 753 C 67.7605 -1.92601 -0.635021 0
M  V30 754 C 68.0935 -0.919627 -1.71045 0
M  V30 755 O 67.3685 0.0557892 -1.9442 0
M  V30 756 C 67.6515 -3.38085 -1.23979 0
M  V30 757 C 67.5045 -4.49467 -0.173057 0
M  V30 758 C 68.8235 -3.83776 -2.15416 0
M  V30 759 H 65.9425 -0.700397 -0.229374 0
M  V30 760 H 68.5845 -1.89728 0.101633 0
M  V30 761 H 66.7345 -3.40664 -1.86762 0
M  V30 762 H 68.4065 -4.59018 0.458312 0
M  V30 763 H 66.6495 -4.30909 0.499996 0
M  V30 764 H 67.3205 -5.48323 -0.636054 0
M  V30 765 H 69.7965 -3.83013 -1.62605 0
M  V30 766 H 68.6725 -4.8624 -2.54679 0
M  V30 767 H 68.9335 -3.19998 -3.05047 0
M  V30 768 N 67.9926 0.231505 -1.5589 0
M  V30 769 C 68.9246 1.31006 -1.8807 0
M  V30 770 C 69.9376 1.43539 -0.768145 0
M  V30 771 O 71.1266 1.44614 -1.04638 0
M  V30 772 C 68.2266 2.68688 -2.06543 0
M  V30 773 C 67.3996 2.78228 -3.37502 0
M  V30 774 C 66.4586 3.96857 -3.4553 0
M  V30 775 O 65.4846 3.85662 -4.18633 0
M  V30 776 N 66.6866 5.1072 -2.75944 0
M  V30 777 H 69.4516 1.03731 -2.81176 0
M  V30 778 H 67.0126 0.421573 -1.56315 0
M  V30 779 H 69.0046 3.46412 -2.09239 0
M  V30 780 H 67.5746 2.88605 -1.20109 0
M  V30 781 H 66.7946 1.87059 -3.46991 0
M  V30 782 H 68.0826 2.81564 -4.23791 0
M  V30 783 H 67.4806 5.2271 -2.16311 0
M  V30 784 H 66.0376 5.86523 -2.84314 0
M  V30 785 N 69.4707 1.49531 0.497807 0
M  V30 786 C 70.7167 1.60388 1.25089 0
M  V30 787 C 71.0717 0.288328 1.90227 0
M  V30 788 O 70.3647 -0.711706 1.77891 0
M  V30 789 C 70.5587 2.70252 2.33878 0
M  V30 790 C 70.3877 4.12363 1.79408 0
M  V30 791 C 69.1577 4.7911 1.60566 0
M  V30 792 C 71.3557 4.97491 1.30412 0
M  V30 793 N 69.3377 6.05525 1.01059 0
M  V30 794 C 70.7087 6.14411 0.830595 0
M  V30 795 C 72.7637 4.83466 1.19015 0
M  V30 796 C 71.4667 7.1885 0.254371 0
M  V30 797 C 73.4927 5.88057 0.627892 0
M  V30 798 C 72.8547 7.04208 0.16461 0
M  V30 799 H 68.9537 0.641246 0.447579 0
M  V30 800 H 71.5377 1.86549 0.557441 0
M  V30 801 H 69.7087 2.45858 3.0068 0
M  V30 802 H 71.4407 2.70613 3.00917 0
M  V30 803 H 68.1957 4.35961 1.85026 0
M  V30 804 H 68.6197 6.73028 0.732236 0
M  V30 805 H 73.2617 3.93978 1.53431 0
M  V30 806 H 70.9797 8.08036 -0.102052 0
M  V30 807 H 74.5657 5.79266 0.542444 0
M  V30 808 H 73.4457 7.83757 -0.263669 0
M  V30 809 N 70.9488 -0.749086 1.3866 0
M  V30 810 C 71.8788 -1.8764 1.38973 0
M  V30 811 C 72.8598 -1.68178 0.255004 0
M  V30 812 O 74.0448 -1.88704 0.458754 0
M  V30 813 C 71.1748 -3.25222 1.21851 0
M  V30 814 C 70.1288 -3.59295 2.32575 0
M  V30 815 C 69.4548 -4.95663 2.00555 0
M  V30 816 C 70.7548 -3.63709 3.7485 0
M  V30 817 H 72.4488 -1.87635 2.3331 0
M  V30 818 H 69.9948 -0.901329 1.12303 0
M  V30 819 H 71.9478 -4.03746 1.20695 0
M  V30 820 H 70.6718 -3.25719 0.239775 0
M  V30 821 H 69.3308 -2.83093 2.32925 0
M  V30 822 H 68.9788 -4.92724 1.01154 0
M  V30 823 H 68.6788 -5.19429 2.74714 0
M  V30 824 H 70.2028 -5.7656 2.01024 0
M  V30 825 H 71.6168 -4.32338 3.76506 0
M  V30 826 H 70.0138 -3.98986 4.48252 0
M  V30 827 H 71.0838 -2.63834 4.06841 0
M  V30 828 N 72.4269 -1.23603 -0.977757 0
M  V30 829 C 73.3899 -1.02069 -2.05218 0
M  V30 830 C 74.3899 0.0184305 -1.60789 0
M  V30 831 O 75.5799 -0.221569 -1.72785 0
M  V30 832 C 72.7119 -0.544926 -3.36517 0
M  V30 833 H 73.9049 -1.9742 -2.25755 0
M  V30 834 H 71.4579 -1.05684 -1.15155 0
M  V30 835 H 72.1929 0.412241 -3.21669 0
M  V30 836 H 71.9779 -1.2948 -3.70105 0
M  V30 837 H 73.4679 -0.414985 -4.15533 0
M  V30 838 N 73.905 1.17692 -1.04816 0
M  V30 839 C 74.852 2.21581 -0.645797 0
M  V30 840 C 75.822 1.62367 0.350159 0
M  V30 841 O 77.007 1.89254 0.242433 0
M  V30 842 C 74.147 3.45092 -0.0227568 0
M  V30 843 C 73.26 4.18613 -1.06709 0
M  V30 844 C 72.395 5.29602 -0.411767 0
M  V30 845 C 71.434 5.94904 -1.44067 0
M  V30 846 N 70.571 6.97414 -0.809781 0
M  V30 847 H 75.411 2.55353 -1.5362 0
M  V30 848 H 72.948 1.25438 -0.768364 0
M  V30 849 H 74.906 4.15679 0.35588 0
M  V30 850 H 73.536 3.11917 0.831122 0
M  V30 851 H 72.588 3.46779 -1.5636 0
M  V30 852 H 73.9 4.63293 -1.84827 0
M  V30 853 H 73.054 6.06696 0.0206623 0
M  V30 854 H 71.793 4.86045 0.401438 0
M  V30 855 H 70.798 5.16544 -1.88316 0
M  V30 856 H 72.023 6.40542 -2.25571 0
M  V30 857 H 69.969 6.55998 -0.0170186 0
M  V30 858 H 69.886 7.40386 -1.52856 0
M  V30 859 H 71.154 7.78463 -0.401999 0
M  V30 860 N 75.3831 0.828654 1.34056 0
M  V30 861 C 76.3151 0.212052 2.28217 0
M  V30 862 C 77.3281 -0.601362 1.51286 0
M  V30 863 O 78.5171 -0.430104 1.73241 0
M  V30 864 C 75.6171 -0.72088 3.31144 0
M  V30 865 C 74.7901 0.0509587 4.3737 0
M  V30 866 C 73.8491 -0.803766 5.20025 0
M  V30 867 O 72.8751 -0.246667 5.68665 0
M  V30 868 N 74.0771 -2.1227 5.40298 0
M  V30 869 H 76.8421 1.02105 2.81771 0
M  V30 870 H 74.4031 0.686153 1.46641 0
M  V30 871 H 76.3951 -1.29742 3.8334 0
M  V30 872 H 74.9651 -1.43061 2.77943 0
M  V30 873 H 74.1851 0.808831 3.85813 0
M  V30 874 H 75.4731 0.582065 5.0546 0
M  V30 875 H 74.8711 -2.59898 5.02464 0
M  V30 876 H 73.4281 -2.64796 5.95589 0
M  V30 877 N 76.8612 -1.46375 0.584142 0
M  V30 878 C 77.8082 -2.30323 -0.148286 0
M  V30 879 C 78.7782 -1.40703 -0.882713 0
M  V30 880 O 79.9632 -1.69651 -0.873099 0
M  V30 881 C 77.1032 -3.25196 -1.15507 0
M  V30 882 C 76.2162 -4.29915 -0.423943 0
M  V30 883 C 75.3512 -5.11914 -1.41838 0
M  V30 884 C 74.3902 -6.08381 -0.673736 0
M  V30 885 N 73.5272 -6.83242 -1.6163 0
M  V30 886 H 78.3672 -2.92427 0.573644 0
M  V30 887 H 75.9042 -1.44118 0.294703 0
M  V30 888 H 77.8622 -3.78646 -1.75166 0
M  V30 889 H 76.4922 -2.64898 -1.8447 0
M  V30 890 H 75.5442 -3.7931 0.287714 0
M  V30 891 H 76.8562 -4.98549 0.158128 0
M  V30 892 H 76.0102 -5.69648 -2.08773 0
M  V30 893 H 74.7492 -4.43243 -2.03438 0
M  V30 894 H 73.7542 -5.49799 0.00938483 0
M  V30 895 H 74.9792 -6.79071 -0.0631082 0
M  V30 896 H 72.9252 -6.1728 -2.22038 0
M  V30 897 H 72.8422 -7.48144 -1.08707 0
M  V30 898 H 74.1102 -7.45534 -2.27596 0
M  V30 899 N 78.3393 -0.321999 -1.54275 0
M  V30 900 C 79.3023 0.531975 -2.22941 0
M  V30 901 C 80.3023 1.04478 -1.22234 0
M  V30 902 O 81.4923 0.937452 -1.46825 0
M  V30 903 C 78.6243 1.73874 -2.93224 0
M  V30 904 H 79.8173 -0.0682612 -2.99822 0
M  V30 905 H 77.3703 -0.0730644 -1.56129 0
M  V30 906 H 78.1053 2.37825 -2.20476 0
M  V30 907 H 77.8903 1.37847 -3.6707 0
M  V30 908 H 79.3803 2.34496 -3.45545 0
M  V30 909 N 79.8174 1.5752 -0.0501392 0
M  V30 910 C 80.7644 2.1147 0.924603 0
M  V30 911 C 81.7344 1.02182 1.30951 0
M  V30 912 O 82.9194 1.29723 1.39916 0
M  V30 913 C 80.0594 2.66337 2.19451 0
M  V30 914 C 79.1724 3.89708 1.86418 0
M  V30 915 C 78.3074 4.32893 3.07859 0
M  V30 916 C 77.3464 5.48967 2.70742 0
M  V30 917 N 76.4834 5.87211 3.84874 0
M  V30 918 H 81.3234 2.94465 0.457639 0
M  V30 919 H 78.8604 1.45531 0.214266 0
M  V30 920 H 80.8184 2.96247 2.93758 0
M  V30 921 H 79.4484 1.86141 2.63726 0
M  V30 922 H 78.5004 3.66396 1.02264 0
M  V30 923 H 79.8124 4.74074 1.55096 0
M  V30 924 H 78.9664 4.6435 3.90466 0
M  V30 925 H 77.7054 3.47336 3.42358 0
M  V30 926 H 76.7104 5.17183 1.86551 0
M  V30 927 H 77.9354 6.3624 2.37436 0
M  V30 928 H 75.8814 5.04607 4.19175 0
M  V30 929 H 75.7984 6.66266 3.57247 0
M  V30 930 H 77.0664 6.23282 4.68123 0
M  V30 931 N 81.2955 -0.223234 1.56011 0
M  V30 932 C 82.2585 -1.26014 1.9145 0
M  V30 933 C 83.2585 -1.3989 0.792937 0
M  V30 934 O 84.4485 -1.38184 1.0607 0
M  V30 935 C 81.5805 -2.63422 2.16383 0
M  V30 936 H 82.7735 -0.95796 2.84189 0
M  V30 937 H 80.3265 -0.463576 1.49267 0
M  V30 938 H 81.0615 -2.98741 1.2619 0
M  V30 939 H 80.8465 -2.54728 2.98088 0
M  V30 940 H 82.3365 -3.38249 2.44903 0
M  V30 941 N 82.7736 -1.49793 -0.48987 0
M  V30 942 C 84.0196 -1.60078 -1.24511 0
M  V30 943 C 84.3526 -0.291608 -1.91998 0
M  V30 944 O 83.6276 0.705647 -1.81248 0
M  V30 945 C 83.9106 -2.76791 -2.30345 0
M  V30 946 C 83.7636 -4.17535 -1.67286 0
M  V30 947 C 85.0826 -2.89111 -3.31817 0
M  V30 948 H 82.2016 -0.582645 -0.451324 0
M  V30 949 H 84.8436 -1.82117 -0.541612 0
M  V30 950 H 82.9936 -2.5813 -2.90346 0
M  V30 951 H 84.6656 -4.4774 -1.11026 0
M  V30 952 H 82.9086 -4.22665 -0.976577 0
M  V30 953 H 83.5796 -4.95094 -2.44103 0
M  V30 954 H 86.0556 -3.06133 -2.81819 0
M  V30 955 H 84.9316 -3.72433 -4.03219 0
M  V30 956 H 85.1926 -1.9893 -3.94815 0
M  V30 957 N 84.2517 0.741722 -1.39055 0
M  V30 958 C 85.2147 1.83733 -1.37021 0
M  V30 959 C 86.2147 1.58542 -0.268534 0
M  V30 960 O 87.4047 1.66067 -0.526076 0
M  V30 961 C 84.5367 3.2141 -1.13617 0
M  V30 962 H 85.7297 1.86941 -2.34506 0
M  V30 963 H 83.2827 0.944676 -1.24521 0
M  V30 964 H 84.0177 3.23865 -0.167863 0
M  V30 965 H 83.8027 3.4109 -1.93391 0
M  V30 966 H 85.2927 4.01477 -1.14918 0
M  V30 967 N 85.7298 1.2412 0.971189 0
M  V30 968 C 87.0068 0.986867 1.6888 0
M  V30 969 C 87.3868 -0.491857 2.0529 0
M  V30 970 O 86.7348 -1.46531 1.75331 0
M  V30 971 C 86.9448 1.9063 2.92338 0
M  V30 972 C 88.2928 2.17515 3.64654 0
M  V30 973 O 89.3168 1.88254 3.02388 0
M  V30 974 O 88.1758 2.6719 4.7673 0
M  V30 975 H 85.2698 0.372944 0.738134 0
M  V30 976 H 87.8158 1.35203 1.02559 0
M  V30 977 H 86.5878 2.90552 2.62097 0
M  V30 978 H 86.2108 1.54408 3.66393 0
M  V30 979 N 87.2079 -1.17134 1.05439 0
M  V30 980 C 88.1379 -2.2342 0.678649 0
M  V30 981 C 89.1189 -1.66971 -0.32476 0
M  V30 982 O 90.3039 -1.93149 -0.201802 0
M  V30 983 C 87.4339 -3.47256 0.0552099 0
M  V30 984 C 86.3879 -4.16543 0.98365 0
M  V30 985 C 85.7139 -5.34231 0.223961 0
M  V30 986 C 87.0139 -4.68495 2.3089 0
M  V30 987 H 88.7079 -2.55105 1.56722 0
M  V30 988 H 86.2539 -1.2262 0.754998 0
M  V30 989 H 88.2069 -4.20828 -0.21946 0
M  V30 990 H 86.9309 -3.14846 -0.868319 0
M  V30 991 H 85.5899 -3.44887 1.24293 0
M  V30 992 H 85.2379 -4.98071 -0.702412 0
M  V30 993 H 84.9379 -5.81527 0.842627 0
M  V30 994 H 86.4619 -6.10585 -0.0433671 0
M  V30 995 H 87.8759 -5.33691 2.09396 0
M  V30 996 H 86.2729 -5.26379 2.88176 0
M  V30 997 H 87.3429 -3.85169 2.94572 0
M  V30 998 N 88.686 -0.835752 -1.33615 0
M  V30 999 C 89.636 -0.238856 -2.26745 0
M  V30 1000 C 90.62 0.604343 -1.49119 0
M  V30 1001 O 91.812 0.456822 -1.71003 0
M  V30 1002 C 88.941 0.587725 -3.38232 0
M  V30 1003 C 88.027 -0.266811 -4.2326 0
M  V30 1004 N 88.418 -1.34403 -4.87616 0
M  V30 1005 C 86.716 -0.0533131 -4.45968 0
M  V30 1006 C 87.417 -1.86819 -5.50884 0
M  V30 1007 N 86.393 -1.17013 -5.30857 0
M  V30 1008 H 90.195 -1.06266 -2.74016 0
M  V30 1009 H 87.709 -0.679881 -1.47483 0
M  V30 1010 H 89.706 1.03161 -4.03935 0
M  V30 1011 H 88.366 1.40954 -2.9251 0
M  V30 1012 H 89.377 -1.7269 -4.88261 0
M  V30 1013 H 86.054 0.735312 -4.10974 0
M  V30 1014 H 87.444 -2.7701 -6.1214 0
M  V30 1015 N 90.1641 1.46063 -0.591896 0
M  V30 1016 C 91.5751 1.85944 -0.167822 0
M  V30 1017 C 91.9261 1.49429 1.27143 0
M  V30 1018 O 91.0511 0.913515 1.96173 0
M  V30 1019 C 91.6461 3.37489 -0.297794 0
M  V30 1020 C 90.2051 3.76332 0.0714732 0
M  V30 1021 C 89.3521 2.7006 -0.629509 0
M  V30 1022 H 92.3031 1.37087 -0.799555 0
M  V30 1023 H 92.3241 3.77532 0.474349 0
M  V30 1024 H 91.8361 3.64034 -1.3454 0
M  V30 1025 H 89.9371 3.55405 1.11886 0
M  V30 1026 H 90.0501 4.78088 -0.311245 0
M  V30 1027 H 88.4141 2.54607 -0.0687867 0
M  V30 1028 H 89.1971 2.99444 -1.67894 0
M  V30 1029 N 91.6422 0.330177 1.54103 0
M  V30 1030 C 92.5922 -0.548456 2.21305 0
M  V30 1031 C 93.5762 -1.07651 1.19583 0
M  V30 1032 O 94.7682 -1.01243 1.45186 0
M  V30 1033 C 91.8972 -1.70559 2.97934 0
M  V30 1034 C 90.9832 -1.19212 4.07 0
M  V30 1035 N 91.3742 -0.398831 5.04225 0
M  V30 1036 C 89.6722 -1.47024 4.2107 0
M  V30 1037 C 90.3732 -0.121761 5.81573 0
M  V30 1038 N 89.3492 -0.709722 5.38947 0
M  V30 1039 H 93.1512 0.0648483 2.93828 0
M  V30 1040 H 90.6652 0.136363 1.61826 0
M  V30 1041 H 92.6622 -2.34688 3.44568 0
M  V30 1042 H 91.3222 -2.32231 2.26934 0
M  V30 1043 H 92.3332 -0.0410869 5.17884 0
M  V30 1044 H 89.0102 -2.09232 3.61287 0
M  V30 1045 H 90.4002 0.517298 6.69906 0
M  V30 1046 N 93.1203 -1.57491 0.0584922 0
M  V30 1047 C 94.0833 -2.1085 -0.898617 0
M  V30 1048 C 95.0833 -1.02964 -1.23511 0
M  V30 1049 O 96.2733 -1.29007 -1.17059 0
M  V30 1050 C 93.4053 -2.59881 -2.20623 0
M  V30 1051 H 94.5983 -2.96715 -0.435936 0
M  V30 1052 H 92.1513 -1.55141 -0.190023 0
M  V30 1053 H 92.8863 -1.77431 -2.71457 0
M  V30 1054 H 92.6713 -3.38727 -1.97501 0
M  V30 1055 H 94.1613 -3.01285 -2.89166 0
M  V30 1056 N 94.5984 0.214957 -1.56127 0
M  V30 1057 C 95.8474 0.936451 -1.78643 0
M  V30 1058 C 96.1604 1.85237 -0.628229 0
M  V30 1059 O 97.3664 2.613 -0.737186 0
M  V30 1060 C 95.8224 1.7154 -3.16389 0
M  V30 1061 C 95.4304 0.845299 -4.39953 0
M  V30 1062 C 97.1744 2.42772 -3.48227 0
M  V30 1063 C 95.0814 1.62198 -5.68723 0
M  V30 1064 H 94.0114 0.353401 -0.666051 0
M  V30 1065 H 96.6624 0.190169 -1.82512 0
M  V30 1066 H 95.0444 2.50484 -3.06715 0
M  V30 1067 H 96.2184 0.0959353 -4.607 0
M  V30 1068 H 94.5334 0.244789 -4.1568 0
M  V30 1069 H 97.1304 3.01394 -4.41663 0
M  V30 1070 H 97.4734 3.15984 -2.71035 0
M  V30 1071 H 98.0064 1.70813 -3.5926 0
M  V30 1072 H 94.7454 0.933011 -6.48826 0
M  V30 1073 H 94.2654 2.34579 -5.52026 0
M  V30 1074 H 95.9444 2.18095 -6.09133 0
M  V30 1075 N 96.0765 1.50051 0.48192 0
M  V30 1076 C 97.3225 1.60736 1.2366 0
M  V30 1077 C 97.6555 0.301786 1.91841 0
M  V30 1078 O 96.9305 -0.696025 1.8162 0
M  V30 1079 C 97.2135 2.78009 2.28874 0
M  V30 1080 C 97.0665 4.18416 1.65069 0
M  V30 1081 C 98.3855 2.90867 3.30279 0
M  V30 1082 H 95.5045 0.585031 0.448228 0
M  V30 1083 H 98.1465 1.82402 0.531946 0
M  V30 1084 H 96.2965 2.59667 2.88973 0
M  V30 1085 H 97.9685 4.48322 1.0865 0
M  V30 1086 H 96.2115 4.23177 0.954148 0
M  V30 1087 H 96.8825 4.96381 2.41474 0
M  V30 1088 H 99.3585 3.07623 2.80191 0
M  V30 1089 H 98.2345 3.74566 4.01238 0
M  V30 1090 H 98.4955 2.01021 3.93755 0
M  V30 1091 N 97.5546 -0.734337 1.39446 0
M  V30 1092 C 98.8036 -1.48937 1.36017 0
M  V30 1093 C 99.1166 -1.95557 -0.0409005 0
M  V30 1094 O 100.323 -2.70779 -0.19778 0
M  V30 1095 C 98.7786 -2.69125 2.38955 0
M  V30 1096 C 98.3866 -2.29452 3.8478 0
M  V30 1097 C 100.131 -3.46944 2.44603 0
M  V30 1098 C 98.0376 -3.46366 4.79358 0
M  V30 1099 H 96.9676 -0.559296 0.505672 0
M  V30 1100 H 99.6186 -0.800983 1.65095 0
M  V30 1101 H 98.0006 -3.40041 2.02948 0
M  V30 1102 H 99.1746 -1.66077 4.29831 0
M  V30 1103 H 97.4896 -1.64723 3.82433 0
M  V30 1104 H 100.087 -4.33907 3.12456 0
M  V30 1105 H 100.43 -3.89454 1.47076 0
M  V30 1106 H 100.963 -2.83056 2.79507 0
M  V30 1107 H 97.7016 -3.08905 5.78151 0
M  V30 1108 H 97.2216 -4.08719 4.38986 0
M  V30 1109 H 98.9006 -4.12691 4.98292 0
M  V30 1110 N 99.0327 -1.24633 -0.964593 0
M  V30 1111 C 100.281 -1.08573 -1.70459 0
M  V30 1112 C 100.602 0.375655 -1.91347 0
M  V30 1113 O 99.8717 1.26779 -1.49345 0
M  V30 1114 H 98.4517 -0.398784 -0.631649 0
M  V30 1115 H 101.114 -1.56601 -1.16026 0
M  V30 1116 H 100.21 -1.58623 -2.68785 0
M  V30 1117 N 100.511 1.16574 -1.06058 0
M  V30 1118 C 101.474 2.19085 -0.673392 0
M  V30 1119 C 102.474 1.5835 0.279648 0
M  V30 1120 O 103.664 1.74088 0.0623488 0
M  V30 1121 C 100.796 3.40899 0.00954234 0
M  V30 1122 H 101.989 2.54853 -1.58081 0
M  V30 1123 H 99.5418 1.30808 -0.855516 0
M  V30 1124 H 100.277 3.10684 0.929826 0
M  V30 1125 H 100.062 3.86233 -0.67573 0
M  V30 1126 H 101.552 4.1675 0.266245 0
M  V30 1127 N 101.989 0.842826 1.3317 0
M  V30 1128 C 103.266 0.362216 1.92217 0
M  V30 1129 C 103.646 -1.15289 1.76838 0
M  V30 1130 O 102.994 -1.96914 1.15919 0
M  V30 1131 C 103.204 0.813495 3.39387 0
M  V30 1132 C 104.552 0.823804 4.16532 0
M  V30 1133 O 105.576 0.757358 3.48055 0
M  V30 1134 O 104.435 0.915193 5.38782 0
M  V30 1135 H 101.529 0.103317 0.820521 0
M  V30 1136 H 104.075 0.928942 1.42017 0
M  V30 1137 H 102.847 1.85624 3.4447 0
M  V30 1138 H 102.47 0.223561 3.96971 0
M  V30 1139 N 103.467 -1.45747 0.599634 0
M  V30 1140 C 104.695 -2.06668 0.0978551 0
M  V30 1141 C 105.11 -1.44562 -1.21439 0
M  V30 1142 O 104.467 -0.556923 -1.73795 0
M  V30 1143 C 104.518 -3.61456 -0.0567044 0
M  V30 1144 O 104.239 -4.21242 1.20361 0
M  V30 1145 C 105.74 -4.39345 -0.590869 0
M  V30 1146 H 102.96 -0.667825 0.0651943 0
M  V30 1147 H 105.504 -1.87115 0.82511 0
M  V30 1148 H 103.659 -3.80378 -0.734251 0
M  V30 1149 H 104.073 -5.14323 1.02821 0
M  V30 1150 H 105.547 -5.48182 -0.648131 0
M  V30 1151 H 106.024 -4.08568 -1.61147 0
M  V30 1152 H 106.63 -4.25268 0.0523679 0
M  V30 1153 N 104.945 -0.338344 -1.53925 0
M  V30 1154 C 105.878 0.563758 -2.21127 0
M  V30 1155 C 106.856 1.10433 -1.19345 0
M  V30 1156 O 108.04 1.16557 -1.48144 0
M  V30 1157 C 105.167 1.77505 -2.88461 0
M  V30 1158 C 104.213 1.3644 -4.04087 0
M  V30 1159 S 105.046 0.388593 -5.34088 0
M  V30 1160 C 106.202 1.60683 -6.04923 0
M  V30 1161 H 106.435 -0.00704546 -2.97299 0
M  V30 1162 H 103.968 -0.122418 -1.53914 0
M  V30 1163 H 105.926 2.46999 -3.27875 0
M  V30 1164 H 104.587 2.31706 -2.12064 0
M  V30 1165 H 103.78 2.26739 -4.50117 0
M  V30 1166 H 103.382 0.748998 -3.66423 0
M  V30 1167 H 105.674 2.54209 -6.28 0
M  V30 1168 H 106.617 1.18842 -6.98056 0
M  V30 1169 H 107.025 1.80052 -5.35015 0
M  V30 1170 N 106.423 1.57458 -0.0668435 0
M  V30 1171 C 107.669 1.93587 0.6043 0
M  V30 1172 C 108.002 0.946722 1.69561 0
M  V30 1173 O 107.277 -0.0248516 1.94484 0
M  V30 1174 C 107.56 3.40014 1.18585 0
M  V30 1175 C 107.413 4.49685 0.101529 0
M  V30 1176 C 108.732 3.87154 2.09284 0
M  V30 1177 H 105.851 0.703958 0.218202 0
M  V30 1178 H 108.493 1.89542 -0.131804 0
M  V30 1179 H 106.643 3.43592 1.81319 0
M  V30 1180 H 108.315 4.5823 -0.531279 0
M  V30 1181 H 106.558 4.30059 -0.568487 0
M  V30 1182 H 107.229 5.49266 0.54874 0
M  V30 1183 H 109.705 3.85551 1.56491 0
M  V30 1184 H 108.581 4.90231 2.46911 0
M  V30 1185 H 108.842 3.2481 2.99918 0
M  V30 1186 N 107.901 -0.206675 1.56239 0
M  V30 1187 C 109.141 -0.93574 1.81723 0
M  V30 1188 C 109.505 -1.80927 0.642609 0
M  V30 1189 O 110.706 -2.57323 0.777081 0
M  V30 1190 C 108.977 -1.74012 3.12177 0
M  V30 1191 S 110.536 -2.52279 3.59028 0
M  V30 1192 H 107.354 -0.314065 0.637875 0
M  V30 1193 H 109.956 -0.200071 1.94474 0
M  V30 1194 H 108.66 -1.0888 3.95693 0
M  V30 1195 H 108.191 -2.51782 3.02274 0
M  V30 1196 H 110.206 -3.76209 3.23545 0
M  V30 1197 N 109.379 -1.50304 -0.473955 0
M  V30 1198 C 110.309 -1.71886 -1.58042 0
M  V30 1199 C 111.29 -0.567799 -1.60344 0
M  V30 1200 O 112.475 -0.806623 -1.76656 0
M  V30 1201 C 109.605 -1.81036 -2.96384 0
M  V30 1202 C 108.559 -2.962 -3.08949 0
M  V30 1203 C 107.885 -2.9049 -4.48909 0
M  V30 1204 C 109.185 -4.36752 -2.86434 0
M  V30 1205 H 110.879 -2.64527 -1.40234 0
M  V30 1206 H 108.425 -1.27295 -0.673201 0
M  V30 1207 H 110.378 -1.94719 -3.73714 0
M  V30 1208 H 109.102 -0.850147 -3.15341 0
M  V30 1209 H 107.761 -2.82164 -2.3405 0
M  V30 1210 H 107.409 -1.92321 -4.64781 0
M  V30 1211 H 107.109 -3.67802 -4.58253 0
M  V30 1212 H 108.633 -3.06218 -5.28264 0
M  V30 1213 H 110.047 -4.5133 -3.53517 0
M  V30 1214 H 108.444 -5.15493 -3.07225 0
M  V30 1215 H 109.514 -4.49321 -1.82316 0
M  V30 1216 N 110.857 0.726932 -1.39834 0
M  V30 1217 C 112.134 1.47902 -1.28001 0
M  V30 1218 C 112.514 2.1083 0.106789 0
M  V30 1219 O 111.862 1.99242 1.11869 0
M  V30 1220 C 112.072 2.52392 -2.41038 0
M  V30 1221 C 113.42 3.18546 -2.80737 0
M  V30 1222 O 114.444 2.62708 -2.40547 0
M  V30 1223 O 113.303 4.19604 -3.50135 0
M  V30 1224 H 110.397 0.657163 -0.502062 0
M  V30 1225 H 112.943 0.760071 -1.51727 0
M  V30 1226 H 111.715 2.04329 -3.33715 0
M  V30 1227 H 111.338 3.31837 -2.19021 0
M  V30 1228 N 112.336 1.25143 0.95797 0
M  V30 1229 C 113.584 1.09476 1.69881 0
M  V30 1230 C 113.905 -0.365502 1.91544 0
M  V30 1231 O 113.175 -1.25985 1.50015 0
M  V30 1232 H 111.755 0.402128 0.629525 0
M  V30 1233 H 114.417 1.57214 1.15194 0
M  V30 1234 H 113.513 1.60046 2.6794 0
M  V30 1235 N 113.814 -1.1601 1.06675 0
M  V30 1236 C 114.724 -2.24156 0.692179 0
M  V30 1237 C 115.74 -1.71507 -0.293513 0
M  V30 1238 O 116.916 -2.009 -0.141861 0
M  V30 1239 C 113.981 -3.46587 0.0884131 0
M  V30 1240 C 113.042 -4.14257 1.12646 0
M  V30 1241 C 112.275 -5.30844 0.551416 0
M  V30 1242 O 112.498 -5.66858 -0.634656 0
M  V30 1243 O 111.432 -5.87848 1.29298 0
M  V30 1244 H 115.258 -2.58513 1.59388 0
M  V30 1245 H 112.843 -1.23599 0.83926 0
M  V30 1246 H 114.725 -4.20679 -0.246361 0
M  V30 1247 H 113.4 -3.13994 -0.786712 0
M  V30 1248 H 112.307 -3.42118 1.51348 0
M  V30 1249 H 113.64 -4.50914 1.97325 0
M  V30 1250 N 115.292 -0.849877 -1.32721 0
M  V30 1251 C 116.532 -0.457146 -1.99222 0
M  V30 1252 C 116.896 0.968038 -1.6581 0
M  V30 1253 O 118.097 1.46507 -2.25364 0
M  V30 1254 C 116.368 -0.683966 -3.50794 0
M  V30 1255 S 117.927 -0.388095 -4.3708 0
M  V30 1256 H 114.745 -0.171464 -0.690015 0
M  V30 1257 H 117.347 -1.10155 -1.61512 0
M  V30 1258 H 116.051 -1.72038 -3.726 0
M  V30 1259 H 115.582 -0.0258086 -3.93392 0
M  V30 1260 H 117.597 0.787791 -4.89906 0
M  V30 1261 N 116.77 1.45427 -0.607355 0
M  V30 1262 C 117.7 2.3329 0.0989352 0
M  V30 1263 C 118.681 1.46816 0.859007 0
M  V30 1264 O 119.866 1.75588 0.829604 0
M  V30 1265 C 116.996 3.29518 1.09705 0
M  V30 1266 C 115.95 4.25626 0.450206 0
M  V30 1267 C 115.276 5.11542 1.55655 0
M  V30 1268 C 116.576 5.18505 -0.628455 0
M  V30 1269 H 118.27 2.92595 -0.634716 0
M  V30 1270 H 115.816 1.40696 -0.306681 0
M  V30 1271 H 117.769 3.89855 1.59971 0
M  V30 1272 H 116.493 2.68372 1.86129 0
M  V30 1273 H 115.152 3.66586 -0.0315886 0
M  V30 1274 H 114.8 4.46765 2.31107 0
M  V30 1275 H 114.5 5.76647 1.12925 0
M  V30 1276 H 116.024 5.74748 2.06148 0
M  V30 1277 H 117.438 5.72916 -0.209877 0
M  V30 1278 H 115.835 5.92085 -0.977489 0
M  V30 1279 H 116.905 4.60948 -1.50514 0
M  V30 1280 N 118.248 0.346503 1.53744 0
M  V30 1281 C 119.496 -0.248612 2.00565 0
M  V30 1282 C 119.817 -1.5083 1.23593 0
M  V30 1283 O 119.087 -1.92858 0.343912 0
M  V30 1284 H 117.667 -0.0948564 0.740953 0
M  V30 1285 H 120.329 0.468341 1.89189 0
M  V30 1286 H 119.425 -0.488994 3.08245 0
M  V30 1287 N 119.726 -1.57421 0.075193 0
M  V30 1288 C 120.673 -2.12915 -0.890843 0
M  V30 1289 C 121.643 -1.04252 -1.29309 0
M  V30 1290 O 122.828 -1.31933 -1.37834 0
M  V30 1291 C 119.968 -2.69795 -2.15186 0
M  V30 1292 C 119.081 -3.92624 -1.80194 0
M  V30 1293 C 118.216 -4.37736 -3.00933 0
M  V30 1294 C 117.255 -5.53205 -2.61974 0
M  V30 1295 N 116.392 -5.9326 -3.75483 0
M  V30 1296 H 121.232 -2.95156 -0.410735 0
M  V30 1297 H 118.769 -1.45854 -0.191086 0
M  V30 1298 H 120.727 -3.00883 -2.89008 0
M  V30 1299 H 119.357 -1.90313 -2.60731 0
M  V30 1300 H 118.409 -3.67977 -0.964218 0
M  V30 1301 H 119.721 -4.76482 -1.47534 0
M  V30 1302 H 118.875 -4.70503 -3.8303 0
M  V30 1303 H 117.614 -3.52739 -3.36789 0
M  V30 1304 H 116.619 -5.20086 -1.783 0
M  V30 1305 H 117.844 -6.39936 -2.27284 0
M  V30 1306 H 115.79 -5.11212 -4.11094 0
M  V30 1307 H 115.707 -6.71865 -3.46602 0
M  V30 1308 H 116.975 -6.30651 -4.58148 0
M  V30 1309 N 121.204 0.198386 -1.56346 0
M  V30 1310 C 122.615 0.763358 -1.70381 0
M  V30 1311 C 122.966 1.83995 -0.681203 0
M  V30 1312 O 122.091 2.15785 0.16305 0
M  V30 1313 C 122.686 1.39143 -3.08909 0
M  V30 1314 C 121.245 1.90352 -3.2472 0
M  V30 1315 C 120.392 0.772233 -2.6633 0
M  V30 1316 H 123.343 -0.0266377 -1.58678 0
M  V30 1317 H 123.364 2.26076 -3.06055 0
M  V30 1318 H 122.876 0.607638 -3.83314 0
M  V30 1319 H 120.977 2.71461 -2.55225 0
M  V30 1320 H 121.09 2.06757 -4.3219 0
M  V30 1321 H 119.454 1.18566 -2.2542 0
M  V30 1322 H 120.237 0.00073556 -3.433 0
M  V30 1323 N 122.682 1.50554 0.465978 0
M  V30 1324 C 123.614 1.65949 1.58093 0
M  V30 1325 C 124.627 0.540827 1.53554 0
M  V30 1326 O 125.816 0.814187 1.5885 0
M  V30 1327 C 122.916 1.63261 2.96983 0
M  V30 1328 C 122.089 2.91245 3.26336 0
M  V30 1329 C 121.148 2.8113 4.44806 0
M  V30 1330 O 120.174 3.55086 4.44862 0
M  V30 1331 N 121.376 1.95032 5.46756 0
M  V30 1332 H 124.141 2.62122 1.45301 0
M  V30 1333 H 121.702 1.48082 0.65448 0
M  V30 1334 H 123.694 1.54101 3.74212 0
M  V30 1335 H 122.264 0.748032 3.03518 0
M  V30 1336 H 121.484 3.14493 2.37672 0
M  V30 1337 H 122.772 3.76022 3.42761 0
M  V30 1338 H 122.17 1.3427 5.49534 0
M  V30 1339 H 120.727 1.91772 6.2295 0
M  V30 1340 N 124.16 -0.719506 1.40217 0
M  V30 1341 C 125.437 -1.47221 1.28784 0
M  V30 1342 C 125.817 -2.10883 -0.0956067 0
M  V30 1343 O 125.165 -1.99833 -1.10811 0
M  V30 1344 C 125.375 -2.5111 2.42373 0
M  V30 1345 C 126.723 -3.17053 2.82423 0
M  V30 1346 O 127.747 -2.61429 2.41937 0
M  V30 1347 O 126.606 -4.17742 3.52355 0
M  V30 1348 H 123.7 -0.654491 0.50554 0
M  V30 1349 H 126.246 -0.752014 1.52128 0
M  V30 1350 H 125.018 -2.02556 3.34793 0
M  V30 1351 H 124.641 -3.3067 2.20778 0
M  V30 1352 N 125.638 -1.25649 -0.95132 0
M  V30 1353 C 126.57 -1.02112 -2.05197 0
M  V30 1354 C 127.583 0.0150571 -1.62793 0
M  V30 1355 O 128.772 -0.223874 -1.77091 0
M  V30 1356 C 125.872 -0.522361 -3.3485 0
M  V30 1357 C 125.045 -1.62546 -4.06076 0
M  V30 1358 C 124.104 -1.12649 -5.14001 0
M  V30 1359 O 123.13 -1.82156 -5.39266 0
M  V30 1360 N 124.332 0.03047 -5.80492 0
M  V30 1361 H 127.097 -1.96885 -2.25957 0
M  V30 1362 H 124.658 -1.16899 -1.1201 0
M  V30 1363 H 126.65 -0.172961 -4.0433 0
M  V30 1364 H 125.22 0.33151 -3.10837 0
M  V30 1365 H 124.44 -2.14628 -3.30649 0
M  V30 1366 H 125.728 -2.36644 -4.50419 0
M  V30 1367 H 125.126 0.611169 -5.62389 0
M  V30 1368 H 123.683 0.320875 -6.5101 0
M  V30 1369 N 127.117 1.15442 -1.07289 0
M  V30 1370 C 128.027 2.23786 -0.704057 0
M  V30 1371 C 129.043 1.7166 0.284413 0
M  V30 1372 O 130.219 2.00972 0.131205 0
M  V30 1373 C 127.284 3.46535 -0.106792 0
M  V30 1374 C 126.345 4.13654 -1.14842 0
M  V30 1375 C 125.578 5.30544 -0.57956 0
M  V30 1376 O 125.801 5.67187 0.604585 0
M  V30 1377 O 124.735 5.87154 -1.32414 0
M  V30 1378 H 128.561 2.57664 -1.60757 0
M  V30 1379 H 126.146 1.23152 -0.845803 0
M  V30 1380 H 128.028 4.20804 0.224048 0
M  V30 1381 H 126.703 3.14407 0.770049 0
M  V30 1382 H 125.61 3.4131 -1.5316 0
M  V30 1383 H 126.943 4.49861 -1.99714 0
M  V30 1384 N 128.595 0.856903 1.32268 0
M  V30 1385 C 129.505 0.306131 2.32594 0
M  V30 1386 C 130.521 -0.577209 1.64147 0
M  V30 1387 O 131.697 -0.477043 1.95669 0
M  V30 1388 C 128.762 -0.494561 3.43154 0
M  V30 1389 C 127.823 0.415186 4.27288 0
M  V30 1390 C 127.056 -0.347387 5.32568 0
M  V30 1391 O 127.279 -1.57708 5.48165 0
M  V30 1392 O 126.213 0.287982 6.01211 0
M  V30 1393 H 130.039 1.13737 2.81598 0
M  V30 1394 H 127.624 0.619902 1.35932 0
M  V30 1395 H 129.506 -0.948944 4.10576 0
M  V30 1396 H 128.181 -1.30257 2.96336 0
M  V30 1397 H 127.088 0.917793 3.62667 0
M  V30 1398 H 128.421 1.18844 4.77637 0
M  V30 1399 N 130.073 -1.45103 0.615059 0
M  V30 1400 C 131.036 -2.29025 -0.0895485 0
M  V30 1401 C 132.036 -1.40174 -0.787906 0
M  V30 1402 O 133.226 -1.62217 -0.634933 0
M  V30 1403 C 130.358 -3.21376 -1.13711 0
M  V30 1404 H 131.551 -2.92807 0.648382 0
M  V30 1405 H 129.104 -1.51749 0.374444 0
M  V30 1406 H 129.839 -2.6241 -1.90556 0
M  V30 1407 H 129.624 -3.86834 -0.640475 0
M  V30 1408 H 131.114 -3.84459 -1.63036 0
M  V30 1409 N 131.551 -0.354651 -1.53558 0
M  V30 1410 C 132.514 0.484566 -2.24019 0
M  V30 1411 C 133.514 1.01861 -1.24422 0
M  V30 1412 O 134.704 0.906097 -1.4878 0
M  V30 1413 C 131.836 1.67615 -2.96847 0
M  V30 1414 H 133.029 -0.131843 -2.9961 0
M  V30 1415 H 130.582 -0.106165 -1.55939 0
M  V30 1416 H 131.317 2.33095 -2.25471 0
M  V30 1417 H 131.102 1.30029 -3.69912 0
M  V30 1418 H 132.592 2.27114 -3.50441 0
M  V30 1419 N 133.029 1.57378 -0.0835403 0
M  V30 1420 C 134.254 1.98682 0.594987 0
M  V30 1421 C 134.679 0.961969 1.61641 0
M  V30 1422 O 134.037 -0.0709989 1.81161 0
M  V30 1423 C 134.085 3.38988 1.2296 0
M  V30 1424 O 133.189 3.39208 2.34546 0
M  V30 1425 H 132.53 0.646368 0.152002 0
M  V30 1426 H 135.06 2.03961 -0.161533 0
M  V30 1427 H 135.07 3.76431 1.57366 0
M  V30 1428 H 133.745 4.13107 0.481228 0
M  V30 1429 H 132.322 3.13548 2.01846 0
M  V30 1430 N 134.507 -0.190092 1.56449 0
M  V30 1431 C 135.44 -1.26375 1.90012 0
M  V30 1432 C 136.418 -1.43705 0.760765 0
M  V30 1433 O 137.602 -1.59014 1.01226 0
M  V30 1434 C 134.729 -2.62962 2.13468 0
M  V30 1435 C 133.775 -2.62474 3.36169 0
M  V30 1436 S 134.608 -2.13412 4.91137 0
M  V30 1437 C 135.764 -3.51812 5.17667 0
M  V30 1438 H 135.997 -0.977181 2.80782 0
M  V30 1439 H 133.53 -0.393814 1.49293 0
M  V30 1440 H 135.488 -3.41583 2.27664 0
M  V30 1441 H 134.149 -2.88828 1.23439 0
M  V30 1442 H 133.342 -3.62918 3.49723 0
M  V30 1443 H 132.944 -1.91937 3.20992 0
M  V30 1444 H 135.236 -4.47706 5.08494 0
M  V30 1445 H 136.179 -3.43148 6.19399 0
M  V30 1446 H 136.587 -3.46956 4.45288 0
M  V30 1447 N 135.985 -1.50799 -0.457987 0
M  V30 1448 C 136.915 -1.73553 -1.5621 0
M  V30 1449 C 137.896 -0.584774 -1.59732 0
M  V30 1450 O 139.081 -0.825314 -1.7579 0
M  V30 1451 C 136.211 -1.84169 -2.94447 0
M  V30 1452 C 135.165 -2.99461 -3.0579 0
M  V30 1453 C 134.491 -2.95235 -4.45803 0
M  V30 1454 C 135.791 -4.39766 -2.81786 0
M  V30 1455 H 137.485 -2.66 -1.37421 0
M  V30 1456 H 135.031 -1.28002 -0.659662 0
M  V30 1457 H 136.984 -1.98672 -3.71628 0
M  V30 1458 H 135.708 -0.883545 -3.14422 0
M  V30 1459 H 134.367 -2.8463 -2.31044 0
M  V30 1460 H 134.015 -1.97239 -4.62715 0
M  V30 1461 H 133.715 -3.72642 -4.54326 0
M  V30 1462 H 135.239 -3.11803 -5.24987 0
M  V30 1463 H 136.653 -4.55054 -3.4871 0
M  V30 1464 H 135.05 -5.18722 -3.0174 0
M  V30 1465 H 136.12 -4.51229 -1.7754 0
M  V30 1466 N 137.463 0.71206 -1.40597 0
M  V30 1467 C 138.879 1.02058 -1.22704 0
M  V30 1468 C 139.079 2.01228 -0.104729 0
M  V30 1469 O 138.135 2.4674 0.53624 0
M  V30 1470 C 139.448 1.56094 -2.57012 0
M  V30 1471 C 140.996 1.6806 -2.64054 0
M  V30 1472 C 141.471 2.25501 -3.9864 0
M  V30 1473 N 142.962 2.32882 -4.004 0
M  V30 1474 C 143.697 2.78317 -5.01325 0
M  V30 1475 N 143.193 3.23478 -6.12645 0
M  V30 1476 N 144.986 2.77733 -4.88693 0
M  V30 1477 H 137.137 0.0547896 -2.12329 0
M  V30 1478 H 139.4 0.0869027 -0.944008 0
M  V30 1479 H 139.106 0.906865 -3.39807 0
M  V30 1480 H 138.98 2.54564 -2.78347 0
M  V30 1481 H 141.367 2.32583 -1.81629 0
M  V30 1482 H 141.448 0.681802 -2.46546 0
M  V30 1483 H 141.092 1.61598 -4.81506 0
M  V30 1484 H 141.022 3.26102 -4.13479 0
M  V30 1485 H 143.513 2.00991 -3.20017 0
M  V30 1486 H 143.826 3.56725 -6.85542 0
M  V30 1487 H 142.171 3.21429 -6.16205 0
M  V30 1488 H 145.362 2.4179 -4.00818 0
M  V30 1489 H 145.535 3.12826 -5.67489 0
M  V30 1490 N 138.941 1.26152 0.944643 0
M  V30 1491 C 140.357 1.03189 1.21754 0
M  V30 1492 C 140.557 -0.245112 2.00004 0
M  V30 1493 O 139.613 -0.955176 2.33736 0
M  V30 1494 C 140.926 2.26119 1.98219 0
M  V30 1495 C 142.474 2.30984 2.11224 0
M  V30 1496 C 142.949 3.53597 2.91089 0
M  V30 1497 N 144.44 3.54053 2.98664 0
M  V30 1498 C 145.175 4.45593 3.60881 0
M  V30 1499 N 144.671 5.47416 4.24626 0
M  V30 1500 N 146.464 4.33252 3.58119 0
M  V30 1501 H 138.615 2.08177 0.421437 0
M  V30 1502 H 140.878 0.914723 0.248969 0
M  V30 1503 H 140.584 3.18984 1.48128 0
M  V30 1504 H 140.458 2.3009 2.98895 0
M  V30 1505 H 142.845 1.38635 2.60508 0
M  V30 1506 H 142.926 2.31026 1.09821 0
M  V30 1507 H 142.57 4.46273 2.42493 0
M  V30 1508 H 142.5 3.50802 3.92741 0
M  V30 1509 H 144.991 2.80403 2.53343 0
M  V30 1510 H 145.304 6.13459 4.69987 0
M  V30 1511 H 143.649 5.51278 4.23223 0
M  V30 1512 H 146.84 3.52924 3.0751 0
M  V30 1513 H 147.013 5.04786 4.06319 0
M  V30 1514 N 140.419 -1.14872 1.07899 0
M  V30 1515 C 141.349 -2.2193 0.725887 0
M  V30 1516 C 142.33 -1.67622 -0.28927 0
M  V30 1517 O 143.515 -1.93533 -0.160787 0
M  V30 1518 C 140.645 -3.47061 0.128856 0
M  V30 1519 C 139.599 -4.14363 1.07178 0
M  V30 1520 C 138.925 -5.33636 0.337229 0
M  V30 1521 C 140.225 -4.63492 2.40775 0
M  V30 1522 H 141.919 -2.51724 1.62097 0
M  V30 1523 H 139.465 -1.20991 0.780838 0
M  V30 1524 H 141.418 -4.21199 -0.130147 0
M  V30 1525 H 140.142 -3.16617 -0.80134 0
M  V30 1526 H 138.801 -3.42173 1.3158 0
M  V30 1527 H 138.449 -4.99449 -0.596606 0
M  V30 1528 H 138.149 -5.79609 0.965788 0
M  V30 1529 H 139.673 -6.10539 0.0861567 0
M  V30 1530 H 141.087 -5.2913 2.20669 0
M  V30 1531 H 139.484 -5.20148 2.99276 0
M  V30 1532 H 140.554 -3.78834 3.02676 0
M  V30 1533 N 141.898 -0.863906 -1.31812 0
M  V30 1534 C 143.123 -0.48527 -2.01643 0
M  V30 1535 C 143.548 0.913058 -1.64453 0
M  V30 1536 O 142.906 1.6014 -0.849985 0
M  V30 1537 C 142.954 -0.642625 -3.54828 0
M  V30 1538 O 142.058 0.320659 -4.11151 0
M  V30 1539 H 141.399 -0.193793 -0.635091 0
M  V30 1540 H 143.929 -1.16565 -1.68148 0
M  V30 1541 H 143.939 -0.533628 -4.04495 0
M  V30 1542 H 142.614 -1.66227 -3.81237 0
M  V30 1543 H 141.191 0.167126 -3.72525 0
M  V30 1544 N 143.376 1.44774 -0.622745 0
M  V30 1545 C 144.624 2.01721 -0.123655 0
M  V30 1546 C 144.945 1.49172 1.25589 0
M  V30 1547 O 144.215 0.691974 1.83272 0
M  V30 1548 H 142.795 0.745777 -0.0427225 0
M  V30 1549 H 145.457 1.77382 -0.807559 0
M  V30 1550 H 144.553 3.11984 -0.0849534 0
M  V30 1551 N 144.854 0.36279 1.53368 0
M  V30 1552 C 146.27 0.0116182 1.59596 0
M  V30 1553 C 146.47 -1.47012 1.37803 0
M  V30 1554 O 145.526 -2.23136 1.18181 0
M  V30 1555 C 146.839 0.465052 2.97082 0
M  V30 1556 C 148.387 0.419033 3.10182 0
M  V30 1557 C 148.862 0.848235 4.50077 0
M  V30 1558 N 150.353 0.803183 4.56183 0
M  V30 1559 C 151.088 1.107 5.62613 0
M  V30 1560 N 150.584 1.47996 6.76808 0
M  V30 1561 N 152.377 1.02998 5.52583 0
M  V30 1562 H 144.528 1.32775 1.65785 0
M  V30 1563 H 146.791 0.542518 0.777417 0
M  V30 1564 H 146.497 1.49892 3.18159 0
M  V30 1565 H 146.371 -0.149786 3.76902 0
M  V30 1566 H 148.758 -0.605696 2.88817 0
M  V30 1567 H 148.839 1.06933 2.32377 0
M  V30 1568 H 148.483 1.87107 4.7218 0
M  V30 1569 H 148.413 0.175218 5.26308 0
M  V30 1570 H 150.904 0.52838 3.74188 0
M  V30 1571 H 151.217 1.69613 7.53957 0
M  V30 1572 H 149.562 1.51859 6.78206 0
M  V30 1573 H 152.753 0.737817 4.62249 0
M  V30 1574 H 152.926 1.2701 6.35431 0
M  V30 1575 N 146.332 -1.57332 0.0918853 0
M  V30 1576 C 147.557 -1.98995 -0.584442 0
M  V30 1577 C 147.982 -0.970528 -1.61128 0
M  V30 1578 O 147.34 0.0613904 -1.81196 0
M  V30 1579 C 147.388 -3.39636 -1.21161 0
M  V30 1580 O 146.492 -3.40447 -2.32744 0
M  V30 1581 H 145.833 -0.647165 -0.148572 0
M  V30 1582 H 148.363 -2.03873 0.172347 0
M  V30 1583 H 148.373 -3.7726 -1.55367 0
M  V30 1584 H 147.048 -4.13356 -0.459313 0
M  V30 1585 H 145.625 -3.14614 -2.0018 0
M  V30 1586 N 147.81 0.181792 -1.56548 0
M  V30 1587 C 148.76 1.22961 -1.92002 0
M  V30 1588 C 149.744 1.40331 -0.787146 0
M  V30 1589 O 150.936 1.42478 -1.05019 0
M  V30 1590 C 148.065 2.57144 -2.27446 0
M  V30 1591 C 147.151 2.43512 -3.47222 0
M  V30 1592 N 147.542 1.99577 -4.64761 0
M  V30 1593 C 145.84 2.74368 -3.51622 0
M  V30 1594 C 146.541 1.98156 -5.46909 0
M  V30 1595 N 145.517 2.40164 -4.8767 0
M  V30 1596 H 149.319 0.881462 -2.8037 0
M  V30 1597 H 146.833 0.390141 -1.57644 0
M  V30 1598 H 148.83 3.32847 -2.51035 0
M  V30 1599 H 147.49 2.92771 -1.40411 0
M  V30 1600 H 148.501 1.70078 -4.89177 0
M  V30 1601 H 145.178 3.14102 -2.75038 0
M  V30 1602 H 146.568 1.65975 -6.51077 0
M  V30 1603 N 149.288 1.51039 0.449983 0
M  V30 1604 C 150.513 1.6715 1.22783 0
M  V30 1605 C 150.938 0.363081 1.84563 0
M  V30 1606 O 150.296 -0.675433 1.68249 0
M  V30 1607 C 150.344 2.77985 2.29689 0
M  V30 1608 O 149.448 2.40707 3.34864 0
M  V30 1609 H 148.789 0.557746 0.360299 0
M  V30 1610 H 151.319 1.97535 0.533005 0
M  V30 1611 H 151.329 3.01693 2.74673 0
M  V30 1612 H 150.004 3.72935 1.84098 0
M  V30 1613 H 148.581 2.27523 2.95445 0
M  V30 1614 N 150.766 -0.704594 1.40972 0
M  V30 1615 C 152.012 -1.46675 1.40051 0
M  V30 1616 C 152.345 -1.94199 0.00641102 0
M  V30 1617 O 151.62 -1.68916 -0.964235 0
M  V30 1618 C 151.903 -2.68505 2.39952 0
M  V30 1619 C 151.756 -2.26805 3.88432 0
M  V30 1620 C 153.075 -3.70686 2.37233 0
M  V30 1621 H 150.194 -0.532015 0.510028 0
M  V30 1622 H 152.836 -0.803255 1.72185 0
M  V30 1623 H 150.986 -3.25114 2.1268 0
M  V30 1624 H 152.658 -1.75592 4.26574 0
M  V30 1625 H 150.901 -1.58685 4.03734 0
M  V30 1626 H 151.572 -3.14181 4.53866 0
M  V30 1627 H 154.048 -3.23731 2.61415 0
M  V30 1628 H 152.924 -4.53553 3.09162 0
M  V30 1629 H 153.185 -4.19754 1.38777 0
M  V30 1630 N 152.244 -1.26651 -0.937939 0
M  V30 1631 C 153.493 -1.11775 -1.67897 0
M  V30 1632 C 153.806 0.33794 -1.92659 0
M  V30 1633 O 155.012 0.607434 -2.64618 0
M  V30 1634 C 153.468 -1.9523 -3.02346 0
M  V30 1635 C 153.076 -3.45393 -2.8532 0
M  V30 1636 C 154.82 -1.88972 -3.80118 0
M  V30 1637 C 152.727 -4.21083 -4.15263 0
M  V30 1638 H 151.657 -0.414696 -0.629717 0
M  V30 1639 H 154.308 -1.50988 -1.04283 0
M  V30 1640 H 152.69 -1.48853 -3.66959 0
M  V30 1641 H 153.864 -3.99561 -2.29537 0
M  V30 1642 H 152.179 -3.52921 -2.20988 0
M  V30 1643 H 154.776 -2.42805 -4.76392 0
M  V30 1644 H 155.119 -0.86113 -4.07296 0
M  V30 1645 H 155.652 -2.33189 -3.22285 0
M  V30 1646 H 152.391 -5.24425 -3.93267 0
M  V30 1647 H 151.911 -3.71695 -4.70747 0
M  V30 1648 H 153.59 -4.29706 -4.83696 0
M  V30 1649 N 153.722 1.14298 -1.08507 0
M  V30 1650 C 154.95 1.89219 -0.836876 0
M  V30 1651 C 155.365 1.78638 0.611054 0
M  V30 1652 O 154.722 1.14643 1.41998 0
M  V30 1653 C 154.773 3.39158 -1.25116 0
M  V30 1654 O 154.494 3.49449 -2.64229 0
M  V30 1655 C 155.995 4.31073 -1.03398 0
M  V30 1656 H 153.215 0.599328 -0.301739 0
M  V30 1657 H 155.759 1.44746 -1.44461 0
M  V30 1658 H 153.914 3.81251 -0.687514 0
M  V30 1659 H 154.328 4.42589 -2.81452 0
M  V30 1660 H 155.802 5.34646 -1.37323 0
M  V30 1661 H 156.279 4.3919 0.0289259 0
M  V30 1662 H 156.885 3.94738 -1.58311 0
M  V30 1663 N 155.201 0.870884 1.31352 0
M  V30 1664 C 156.164 0.332243 2.26779 0
M  V30 1665 C 157.164 -0.517302 1.52252 0
M  V30 1666 O 158.354 -0.326477 1.71113 0
M  V30 1667 C 155.486 -0.528066 3.36785 0
M  V30 1668 H 156.679 1.17469 2.75937 0
M  V30 1669 H 154.232 0.64655 1.423 0
M  V30 1670 H 154.967 -1.39167 2.92922 0
M  V30 1671 H 154.752 0.0802582 3.92018 0
M  V30 1672 H 156.242 -0.897179 4.07849 0
M  V30 1673 N 156.679 -1.44442 0.630414 0
M  V30 1674 C 157.925 -2.02351 0.134816 0
M  V30 1675 C 158.258 -1.4947 -1.23986 0
M  V30 1676 O 157.533 -0.678475 -1.82283 0
M  V30 1677 C 157.816 -3.59898 0.120707 0
M  V30 1678 C 157.669 -4.23063 1.52767 0
M  V30 1679 C 158.988 -4.36585 -0.555127 0
M  V30 1680 H 156.107 -0.73527 0.0504646 0
M  V30 1681 H 158.749 -1.72022 0.806751 0
M  V30 1682 H 156.899 -3.85868 -0.451477 0
M  V30 1683 H 158.571 -4.08202 2.14869 0
M  V30 1684 H 156.814 -3.80586 2.08175 0
M  V30 1685 H 157.485 -5.32071 1.46984 0
M  V30 1686 H 159.961 -4.16044 -0.0685429 0
M  V30 1687 H 158.837 -5.46294 -0.534185 0
M  V30 1688 H 159.098 -4.11138 -1.62535 0
M  V30 1689 N 158.157 -0.370918 -1.53173 0
M  V30 1690 C 159.382 0.220293 -2.06227 0
M  V30 1691 C 159.807 1.41243 -1.24225 0
M  V30 1692 O 159.165 1.79387 -0.262645 0
M  V30 1693 C 159.213 0.586663 -3.55796 0
M  V30 1694 O 158.317 1.68317 -3.76488 0
M  V30 1695 H 157.658 0.0308099 -0.663285 0
M  V30 1696 H 160.188 -0.533068 -1.97534 0
M  V30 1697 H 160.198 0.85617 -3.98916 0
M  V30 1698 H 158.873 -0.285013 -4.14922 0
M  V30 1699 H 157.45 1.40881 -3.45264 0
M  V30 1700 N 159.635 1.57281 -0.100228 0
M  V30 1701 C 160.884 1.93713 0.561984 0
M  V30 1702 C 161.197 0.984492 1.69018 0
M  V30 1703 O 162.403 1.24273 2.41389 0
M  V30 1704 C 160.859 3.4421 1.05106 0
M  V30 1705 C 160.467 4.47975 -0.0476628 0
M  V30 1706 C 162.211 3.89595 1.68571 0
M  V30 1707 C 160.118 5.89631 0.457055 0
M  V30 1708 H 159.048 0.723082 0.2137 0
M  V30 1709 H 161.699 1.82644 -0.177057 0
M  V30 1710 H 160.081 3.50449 1.84395 0
M  V30 1711 H 161.255 4.53385 -0.823333 0
M  V30 1712 H 159.57 4.1223 -0.587816 0
M  V30 1713 H 162.167 4.92832 2.07414 0
M  V30 1714 H 162.51 3.28526 2.55688 0
M  V30 1715 H 163.043 3.86078 0.958562 0
M  V30 1716 H 159.782 6.54411 -0.377616 0
M  V30 1717 H 159.302 5.87681 1.19962 0
M  V30 1718 H 160.981 6.40363 0.92437 0
M  V30 1719 N 161.113 -0.173488 1.56642 0
M  V30 1720 C 162.045 -1.23935 1.92802 0
M  V30 1721 C 163.058 -1.40589 0.820889 0
M  V30 1722 O 164.247 -1.40631 1.09933 0
M  V30 1723 C 161.347 -2.60837 2.16373 0
M  V30 1724 C 160.52 -2.6551 3.47596 0
M  V30 1725 C 159.579 -3.8376 3.60021 0
M  V30 1726 O 158.605 -3.69859 4.32658 0
M  V30 1727 N 159.807 -5.00127 2.94709 0
M  V30 1728 H 162.572 -0.932236 2.84832 0
M  V30 1729 H 160.133 -0.363268 1.57772 0
M  V30 1730 H 162.125 -3.38407 2.21952 0
M  V30 1731 H 160.695 -2.83948 1.30738 0
M  V30 1732 H 159.915 -1.74052 3.53694 0
M  V30 1733 H 161.203 -2.65641 4.33949 0
M  V30 1734 H 160.601 -5.14322 2.35563 0
M  V30 1735 H 159.158 -5.75567 3.05886 0
M  V30 1736 N 162.591 -1.51276 -0.441967 0
M  V30 1737 C 163.554 -1.7167 -1.51862 0
M  V30 1738 C 164.554 -0.586793 -1.49711 0
M  V30 1739 O 165.744 -0.854276 -1.51815 0
M  V30 1740 C 162.876 -1.76889 -2.91416 0
M  V30 1741 H 164.069 -2.67754 -1.35084 0
M  V30 1742 H 161.622 -1.41196 -0.670333 0
M  V30 1743 H 162.357 -0.826026 -3.13604 0
M  V30 1744 H 162.142 -2.59001 -2.94382 0
M  V30 1745 H 163.632 -1.94522 -3.69528 0
M  V30 1746 N 164.069 0.697108 -1.41344 0
M  V30 1747 C 164.979 1.84088 -1.45427 0
M  V30 1748 C 165.995 1.70545 -0.34501 0
M  V30 1749 O 167.171 1.92488 -0.592492 0
M  V30 1750 C 164.236 3.20056 -1.33286 0
M  V30 1751 C 163.297 3.45718 -2.54514 0
M  V30 1752 C 162.53 4.75199 -2.42944 0
M  V30 1753 O 162.753 5.51579 -1.45318 0
M  V30 1754 O 161.687 5.0161 -3.32672 0
M  V30 1755 H 165.513 1.836 -2.41919 0
M  V30 1756 H 163.098 0.849966 -1.22866 0
M  V30 1757 H 164.98 4.01236 -1.28794 0
M  V30 1758 H 163.655 3.2123 -0.39909 0
M  V30 1759 H 162.562 2.64474 -2.64583 0
M  V30 1760 H 163.895 3.49356 -3.46715 0
M  V30 1761 N 165.547 1.27147 0.931209 0
M  V30 1762 C 166.495 1.09398 2.05268 0
M  V30 1763 C 167.489 0.0180591 1.6939 0
M  V30 1764 O 168.695 0.17551 1.79142 0
M  V30 1765 H 165.07 0.336986 0.672268 0
M  V30 1766 H 167.041 2.04416 2.17386 0
M  V30 1767 C 165.79 0.75424 3.39421 0
M  V30 1768 H 165.113 1.57404 3.67511 0
M  V30 1769 H 166.553 0.669903 4.18674 0
M  V30 1770 C 165.012 -0.541197 3.32525 0
M  V30 1771 O 165.542 -1.57664 3.69466 0
M  V30 1772 N 163.748 -0.535517 2.85623 0
M  V30 1773 H 163.295 0.307511 2.55758 0
M  V30 1774 H 163.253 -1.40236 2.81392 0
M  V30 1775 N 167.025 -1.13721 1.09112 0
M  V30 1776 C 167.975 -2.17082 0.697091 0
M  V30 1777 C 168.959 -1.58321 -0.286923 0
M  V30 1778 O 170.151 -1.7673 -0.0978008 0
M  V30 1779 C 167.28 -3.43105 0.115729 0
M  V30 1780 C 166.366 -4.0888 1.12596 0
M  V30 1781 N 166.757 -4.4987 2.31195 0
M  V30 1782 C 165.055 -4.35471 0.963366 0
M  V30 1783 C 165.756 -5.01094 2.95431 0
M  V30 1784 N 164.732 -4.95751 2.23006 0
M  V30 1785 H 168.534 -2.46524 1.6001 0
M  V30 1786 H 166.048 -1.30481 0.966869 0
M  V30 1787 H 168.045 -4.16491 -0.184555 0
M  V30 1788 H 166.705 -3.15138 -0.78217 0
M  V30 1789 H 167.716 -4.42678 2.68806 0
M  V30 1790 H 164.393 -4.17328 0.119878 0
M  V30 1791 H 165.783 -5.4263 3.96236 0
M  V30 1792 N 168.503 -0.877838 -1.30888 0
M  V30 1793 C 169.728 -0.506629 -2.01117 0
M  V30 1794 C 170.153 0.895564 -1.65412 0
M  V30 1795 O 169.511 1.5923 -0.866922 0
M  V30 1796 C 169.559 -0.680223 -3.54126 0
M  V30 1797 O 168.663 0.277033 -4.11468 0
M  V30 1798 H 168.004 -0.200518 -0.633 0
M  V30 1799 H 170.534 -1.18342 -1.66902 0
M  V30 1800 H 170.544 -0.5765 -4.03907 0
M  V30 1801 H 169.219 -1.70261 -3.79452 0
M  V30 1802 H 167.796 0.127606 -3.72682 0
M  V30 1803 N 169.982 1.44106 -0.638065 0
M  V30 1804 C 170.892 2.34513 0.0637334 0
M  V30 1805 C 171.908 1.53018 0.828346 0
M  V30 1806 O 173.084 1.85723 0.779036 0
M  V30 1807 C 170.149 3.31095 1.02844 0
M  V30 1808 C 169.21 4.28497 0.26244 0
M  V30 1809 C 168.443 5.20465 1.1812 0
M  V30 1810 O 168.666 5.16514 2.42011 0
M  V30 1811 O 167.6 5.98251 0.661774 0
M  V30 1812 H 171.426 2.95989 -0.68003 0
M  V30 1813 H 169.011 1.43994 -0.398252 0
M  V30 1814 H 170.893 3.90526 1.58327 0
M  V30 1815 H 169.568 2.72144 1.7527 0
M  V30 1816 H 168.475 3.72592 -0.335602 0
M  V30 1817 H 169.808 4.90388 -0.421936 0
M  V30 1818 N 171.46 0.379036 1.52974 0
M  V30 1819 C 172.688 -0.20679 2.05864 0
M  V30 1820 C 173.103 -1.41356 1.25155 0
M  V30 1821 O 172.46 -1.8009 0.295588 0
M  V30 1822 C 172.511 -0.587045 3.56702 0
M  V30 1823 O 172.232 0.571776 4.34353 0
M  V30 1824 C 173.733 -1.22983 4.25899 0
M  V30 1825 H 170.953 -0.0336123 0.670158 0
M  V30 1826 H 173.497 0.541298 1.97206 0
M  V30 1827 H 171.652 -1.28504 3.65466 0
M  V30 1828 H 172.066 0.261544 5.23847 0
M  V30 1829 H 173.54 -1.44635 5.32715 0
M  V30 1830 H 174.017 -2.19416 3.80465 0
M  V30 1831 H 174.623 -0.572892 4.21424 0
M  V30 1832 N 172.938 -1.57226 0.108567 0
M  V30 1833 C 174.185 -1.94833 -0.551943 0
M  V30 1834 C 174.513 -0.991204 -1.67348 0
M  V30 1835 O 173.768 -0.0131878 -1.95696 0
M  V30 1836 C 174.067 -3.38911 -1.13463 0
M  V30 1837 C 173.733 -4.50696 -0.135509 0
M  V30 1838 C 172.395 -4.80998 0.139252 0
M  V30 1839 C 174.747 -5.18333 0.545957 0
M  V30 1840 C 172.075 -5.76259 1.10194 0
M  V30 1841 C 174.427 -6.14627 1.49721 0
M  V30 1842 C 173.091 -6.43327 1.78006 0
M  V30 1843 H 172.361 -0.712944 -0.20197 0
M  V30 1844 H 175.008 -1.90582 0.18726 0
M  V30 1845 H 173.313 -3.39805 -1.95037 0
M  V30 1846 H 175.01 -3.65317 -1.65362 0
M  V30 1847 H 171.6 -4.27087 -0.359846 0
M  V30 1848 H 175.784 -4.95087 0.346842 0
M  V30 1849 H 171.04 -5.96804 1.32795 0
M  V30 1850 H 175.214 -6.66126 2.03099 0
M  V30 1851 H 172.841 -7.1695 2.52759 0
M  V30 1852 N 174.416 0.165178 -1.56732 0
M  V30 1853 C 175.646 0.894919 -1.86212 0
M  V30 1854 C 176.054 1.76066 -0.692627 0
M  V30 1855 O 175.397 1.80387 0.347303 0
M  V30 1856 C 175.459 1.8174 -3.10179 0
M  V30 1857 C 175.123 1.13064 -4.42793 0
M  V30 1858 C 176.12 0.493169 -5.17556 0
M  V30 1859 C 173.805 1.12556 -4.89527 0
M  V30 1860 C 175.799 -0.140209 -6.37246 0
M  V30 1861 C 173.486 0.488366 -6.09145 0
M  V30 1862 C 174.484 -0.143411 -6.82849 0
M  V30 1863 O 174.172 -0.77055 -8.00199 0
M  V30 1864 H 173.904 0.265114 -0.621844 0
M  V30 1865 H 176.458 0.168242 -2.0471 0
M  V30 1866 H 174.688 2.58455 -2.87642 0
M  V30 1867 H 176.377 2.4175 -3.26055 0
M  V30 1868 H 177.143 0.489023 -4.82528 0
M  V30 1869 H 173.022 1.60672 -4.32094 0
M  V30 1870 H 176.566 -0.633932 -6.94714 0
M  V30 1871 H 172.463 0.490116 -6.43637 0
M  V30 1872 H 173.231 -0.670408 -8.1575 0
M  V30 1873 N 175.894 1.51508 0.433938 0
M  V30 1874 C 177.171 1.54888 1.19453 0
M  V30 1875 C 177.551 0.315154 2.08734 0
M  V30 1876 O 176.899 -0.699558 2.17528 0
M  V30 1877 C 177.109 2.86467 1.99342 0
M  V30 1878 C 178.457 3.38545 2.56267 0
M  V30 1879 O 179.481 2.88041 2.0955 0
M  V30 1880 O 178.34 4.26675 3.41483 0
M  V30 1881 H 175.434 0.622863 0.544032 0
M  V30 1882 H 177.98 1.63823 0.442732 0
M  V30 1883 H 176.752 3.67718 1.33788 0
M  V30 1884 H 176.375 2.8071 2.8158 0
M  V30 1885 N 177.372 -0.689602 1.41712 0
M  V30 1886 C 178.319 -1.80345 1.44029 0
M  V30 1887 C 179.289 -1.63478 0.293948 0
M  V30 1888 O 180.474 -1.84244 0.495869 0
M  V30 1889 C 177.614 -3.18272 1.33405 0
M  V30 1890 C 176.727 -3.46529 2.57956 0
M  V30 1891 C 175.862 -4.74103 2.39582 0
M  V30 1892 C 174.901 -4.95347 3.5958 0
M  V30 1893 N 174.038 -6.14151 3.40239 0
M  V30 1894 H 178.878 -1.77698 2.39222 0
M  V30 1895 H 176.415 -0.867688 1.18784 0
M  V30 1896 H 178.373 -3.97956 1.25246 0
M  V30 1897 H 177.003 -3.2008 0.418164 0
M  V30 1898 H 176.055 -2.61207 2.76542 0
M  V30 1899 H 177.367 -3.58126 3.47199 0
M  V30 1900 H 176.521 -5.61853 2.28924 0
M  V30 1901 H 175.26 -4.64763 1.47805 0
M  V30 1902 H 174.265 -4.06044 3.70686 0
M  V30 1903 H 175.49 -5.06542 4.52318 0
M  V30 1904 H 173.436 -6.06013 2.51167 0
M  V30 1905 H 173.353 -6.26543 4.23061 0
M  V30 1906 H 174.621 -7.04619 3.33365 0
M  V30 1907 N 178.85 -1.27639 -0.924453 0
M  V30 1908 C 180.078 -1.16989 -1.70649 0
M  V30 1909 C 180.493 0.272869 -1.86818 0
M  V30 1910 O 179.85 1.18549 -1.38753 0
M  V30 1911 C 179.901 -1.85229 -3.10439 0
M  V30 1912 O 179.622 -3.23868 -2.95028 0
M  V30 1913 C 181.123 -1.80746 -4.04779 0
M  V30 1914 H 178.343 -0.406595 -0.53378 0
M  V30 1915 H 180.887 -1.68569 -1.15778 0
M  V30 1916 H 179.042 -1.37545 -3.6216 0
M  V30 1917 H 179.456 -3.57889 -3.83426 0
M  V30 1918 H 180.93 -2.33101 -5.00368 0
M  V30 1919 H 181.407 -0.777499 -4.32263 0
M  V30 1920 H 182.013 -2.28059 -3.58984 0
M  V30 1921 N 180.328 1.1314 -1.09713 0
M  V30 1922 C 181.238 2.22242 -0.751367 0
M  V30 1923 C 182.254 1.72224 0.247938 0
M  V30 1924 O 183.43 2.01205 0.0885463 0
M  V30 1925 C 180.495 3.46231 -0.180274 0
M  V30 1926 C 179.556 4.11125 -1.2359 0
M  V30 1927 C 178.789 5.29195 -0.691966 0
M  V30 1928 O 179.012 5.68342 0.48414 0
M  V30 1929 O 177.946 5.84214 -1.44838 0
M  V30 1930 H 181.772 2.54197 -1.66186 0
M  V30 1931 H 179.357 1.21331 -0.871735 0
M  V30 1932 H 181.239 4.21185 0.134739 0
M  V30 1933 H 179.914 3.1597 0.703185 0
M  V30 1934 H 178.821 3.37985 -1.60366 0
M  V30 1935 H 180.154 4.45524 -2.09211 0
M  V30 1936 N 181.806 0.884767 1.30421 0
M  V30 1937 C 183.052 0.503851 1.96441 0
M  V30 1938 C 183.385 -0.944518 1.69684 0
M  V30 1939 O 182.66 -1.66737 1.00145 0
M  V30 1940 C 182.943 0.779085 3.51571 0
M  V30 1941 C 182.796 2.27807 3.87846 0
M  V30 1942 C 184.115 0.255452 4.39358 0
M  V30 1943 H 181.234 0.184533 0.713524 0
M  V30 1944 H 183.876 1.10872 1.54297 0
M  V30 1945 H 182.026 0.264274 3.876 0
M  V30 1946 H 183.698 2.86127 3.61841 0
M  V30 1947 H 181.941 2.74479 3.35922 0
M  V30 1948 H 182.612 2.42125 4.96064 0
M  V30 1949 H 185.088 0.696079 4.10236 0
M  V30 1950 H 183.964 0.477361 5.4682 0
M  V30 1951 H 184.225 -0.843293 4.33983 0
M  V30 1952 N 183.284 -1.43765 0.645699 0
M  V30 1953 C 184.247 -2.29163 -0.0409488 0
M  V30 1954 C 185.247 -1.41813 -0.757996 0
M  V30 1955 O 186.437 -1.63527 -0.600382 0
M  V30 1956 C 183.569 -3.23716 -1.06869 0
M  V30 1957 H 184.762 -2.91366 0.710345 0
M  V30 1958 H 182.315 -1.5092 0.406547 0
M  V30 1959 H 183.05 -2.66393 -1.84947 0
M  V30 1960 H 182.835 -3.88105 -0.558277 0
M  V30 1961 H 184.325 -3.87831 -1.54845 0
M  V30 1962 N 184.763 -0.387143 -1.52771 0
M  V30 1963 C 186.01 0.195735 -2.01552 0
M  V30 1964 C 186.338 1.46995 -1.27369 0
M  V30 1965 O 185.593 1.92325 -0.361879 0
M  V30 1966 C 185.892 0.512209 -3.53711 0
M  V30 1967 C 185.558 -0.670202 -4.45891 0
M  V30 1968 C 184.22 -0.994586 -4.70809 0
M  V30 1969 C 186.572 -1.46134 -5.00294 0
M  V30 1970 C 183.9 -2.11169 -5.4738 0
M  V30 1971 C 186.252 -2.56903 -5.78086 0
M  V30 1972 C 184.916 -2.89852 -6.01284 0
M  V30 1973 H 184.186 0.0716246 -0.73753 0
M  V30 1974 H 186.833 -0.524046 -1.8419 0
M  V30 1975 H 185.138 1.31329 -3.69134 0
M  V30 1976 H 186.835 0.975804 -3.88946 0
M  V30 1977 H 183.425 -0.407366 -4.2666 0
M  V30 1978 H 187.609 -1.22397 -4.80971 0
M  V30 1979 H 182.865 -2.3707 -5.63567 0
M  V30 1980 H 187.039 -3.18608 -6.19243 0
M  V30 1981 H 184.666 -3.76533 -6.60399 0
M  V30 1982 N 186.241 1.57166 -0.116904 0
M  V30 1983 C 187.487 1.96206 0.536166 0
M  V30 1984 C 187.842 0.99915 1.64422 0
M  V30 1985 O 187.135 0.0288195 1.91578 0
M  V30 1986 C 187.329 3.39508 1.11664 0
M  V30 1987 C 187.158 4.49651 0.0663474 0
M  V30 1988 C 185.928 5.03982 -0.36474 0
M  V30 1989 C 188.126 5.09322 -0.713829 0
M  V30 1990 N 186.108 5.97699 -1.40102 0
M  V30 1991 C 187.479 5.98963 -1.60136 0
M  V30 1992 C 189.534 4.91989 -0.764948 0
M  V30 1993 C 188.237 6.73128 -2.53556 0
M  V30 1994 C 190.263 5.66833 -1.68685 0
M  V30 1995 C 189.625 6.56158 -2.56196 0
M  V30 1996 H 185.724 0.764203 0.165886 0
M  V30 1997 H 188.308 1.93623 -0.204535 0
M  V30 1998 H 186.479 3.42743 1.82707 0
M  V30 1999 H 188.211 3.65677 1.73386 0
M  V30 2000 H 184.966 4.73592 0.027252 0
M  V30 2001 H 185.39 6.49262 -1.91802 0
M  V30 2002 H 190.032 4.22676 -0.102501 0
M  V30 2003 H 187.75 7.41689 -3.20816 0
M  V30 2004 H 191.336 5.55427 -1.73181 0
M  V30 2005 H 190.216 7.13057 -3.26372 0
M  V30 2006 N 187.719 -0.156864 1.56817 0
M  V30 2007 C 188.944 -0.890331 1.87318 0
M  V30 2008 C 189.369 -1.74394 0.704855 0
M  V30 2009 O 188.727 -1.77972 -0.345786 0
M  V30 2010 C 188.775 -1.73102 3.16336 0
M  V30 2011 O 187.879 -2.83422 2.99576 0
M  V30 2012 H 187.22 -0.24857 0.615718 0
M  V30 2013 H 189.75 -0.150649 2.04045 0
M  V30 2014 H 189.76 -2.12803 3.48107 0
M  V30 2015 H 188.435 -1.10412 4.00976 0
M  V30 2016 H 187.012 -2.47199 2.7919 0
M  V30 2017 N 189.197 -1.51736 -0.425897 0
M  V30 2018 C 190.127 -1.76827 -1.52494 0
M  V30 2019 C 191.108 -0.618524 -1.58456 0
M  V30 2020 O 192.293 -0.862416 -1.74 0
M  V30 2021 C 189.423 -1.90374 -2.90474 0
M  V30 2022 C 188.377 -3.0588 -2.99369 0
M  V30 2023 C 187.703 -3.04625 -4.3944 0
M  V30 2024 C 189.003 -4.45644 -2.72394 0
M  V30 2025 H 190.697 -2.68855 -1.31748 0
M  V30 2026 H 188.243 -1.29372 -0.632362 0
M  V30 2027 H 190.196 -2.0651 -3.6733 0
M  V30 2028 H 188.92 -0.95004 -3.12477 0
M  V30 2029 H 187.579 -2.89467 -2.24954 0
M  V30 2030 H 187.227 -2.0701 -4.58428 0
M  V30 2031 H 186.927 -3.82195 -4.46319 0
M  V30 2032 H 188.451 -3.22869 -5.18255 0
M  V30 2033 H 189.865 -4.62348 -3.38979 0
M  V30 2034 H 188.262 -5.25006 -2.9067 0
M  V30 2035 H 189.332 -4.54893 -1.67929 0
M  V30 2036 N 190.675 0.682077 -1.42076 0
M  V30 2037 C 191.9 1.47558 -1.45744 0
M  V30 2038 C 192.325 1.87977 -0.0680981 0
M  V30 2039 O 191.683 1.55522 0.9318 0
M  V30 2040 C 191.731 2.70575 -2.38373 0
M  V30 2041 O 190.835 3.68573 -1.85007 0
M  V30 2042 H 190.176 0.443585 -0.494093 0
M  V30 2043 H 192.706 0.837238 -1.86686 0
M  V30 2044 H 192.716 3.18729 -2.54707 0
M  V30 2045 H 191.391 2.40495 -3.39315 0
M  V30 2046 H 189.968 3.2757 -1.78192 0
M  V30 2047 N 192.153 1.28127 0.917671 0
M  V30 2048 C 193.063 1.13556 2.05286 0
M  V30 2049 C 194.079 0.0630914 1.73886 0
M  V30 2050 O 195.255 0.271598 1.9956 0
M  V30 2051 C 192.32 0.794676 3.3747 0
M  V30 2052 C 191.381 1.94909 3.82504 0
M  V30 2053 C 190.614 1.62437 5.0838 0
M  V30 2054 O 190.837 0.536905 5.67867 0
M  V30 2055 O 189.771 2.46677 5.4903 0
M  V30 2056 H 193.597 2.08844 2.20495 0
M  V30 2057 H 191.182 1.07409 1.03845 0
M  V30 2058 H 193.064 0.618344 4.16839 0
M  V30 2059 H 191.739 -0.128581 3.23445 0
M  V30 2060 H 190.646 2.18055 3.03978 0
M  V30 2061 H 191.979 2.85291 4.01086 0
M  V30 2062 N 193.631 -1.12557 1.10312 0
M  V30 2063 C 194.541 -2.21841 0.763142 0
M  V30 2064 C 195.557 -1.72354 -0.238801 0
M  V30 2065 O 196.733 -2.01249 -0.0778746 0
M  V30 2066 C 193.798 -3.46131 0.198632 0
M  V30 2067 C 192.859 -4.10464 1.25769 0
M  V30 2068 C 192.092 -5.28821 0.72002 0
M  V30 2069 O 192.315 -5.6859 -0.453993 0
M  V30 2070 O 191.249 -5.83437 1.47935 0
M  V30 2071 H 195.075 -2.53312 1.67532 0
M  V30 2072 H 192.66 -1.20867 0.878157 0
M  V30 2073 H 194.542 -4.2125 -0.112401 0
M  V30 2074 H 193.217 -3.16338 -0.686419 0
M  V30 2075 H 192.124 -3.3713 1.62156 0
M  V30 2076 H 193.457 -4.44408 2.11571 0
M  V30 2077 N 195.109 -0.891671 -1.2995 0
M  V30 2078 C 196.019 -0.367691 -2.31701 0
M  V30 2079 C 197.035 0.533486 -1.6562 0
M  V30 2080 O 198.211 0.424997 -1.96865 0
M  V30 2081 C 195.276 0.403406 -3.44345 0
M  V30 2082 C 194.337 -0.528328 -4.26037 0
M  V30 2083 C 193.57 0.206063 -5.33302 0
M  V30 2084 O 193.793 1.43119 -5.52153 0
M  V30 2085 O 192.727 -0.447281 -6.00236 0
M  V30 2086 H 196.553 -1.21163 -2.78484 0
M  V30 2087 H 194.138 -0.655725 -1.34241 0
M  V30 2088 H 196.02 0.839753 -4.12948 0
M  V30 2089 H 194.695 1.22354 -2.99685 0
M  V30 2090 H 193.602 -1.01362 -3.60106 0
M  V30 2091 H 194.935 -1.31465 -4.74318 0
M  V30 2092 N 196.587 1.43421 -0.653314 0
M  V30 2093 C 197.836 2.01032 -0.164076 0
M  V30 2094 C 198.149 1.52147 1.22926 0
M  V30 2095 O 199.355 2.02031 1.81371 0
M  V30 2096 C 197.811 3.59082 -0.24252 0
M  V30 2097 C 197.419 4.1696 -1.63855 0
M  V30 2098 C 199.163 4.24079 0.18911 0
M  V30 2099 C 197.07 5.67304 -1.67092 0
M  V30 2100 H 196 0.751798 -0.0575769 0
M  V30 2101 H 198.651 1.6439 -0.815362 0
M  V30 2102 H 197.033 3.93125 0.476276 0
M  V30 2103 H 198.207 3.94416 -2.38271 0
M  V30 2104 H 196.522 3.64335 -2.01616 0
M  V30 2105 H 199.119 5.34381 0.184775 0
M  V30 2106 H 199.462 3.98005 1.22056 0
M  V30 2107 H 199.995 3.94918 -0.477938 0
M  V30 2108 H 196.734 5.98145 -2.68146 0
M  V30 2109 H 196.254 5.91904 -0.970014 0
M  V30 2110 H 197.933 6.31344 -1.4147 0
M  V30 2111 N 198.065 0.39524 1.52563 0
M  V30 2112 C 199.311 -0.177763 2.02622 0
M  V30 2113 C 199.666 -1.43974 1.27629 0
M  V30 2114 O 198.959 -1.87995 0.36992 0
M  V30 2115 C 199.153 -0.493444 3.53977 0
M  V30 2116 C 198.982 0.736392 4.4363 0
M  V30 2117 C 197.752 1.25744 4.89404 0
M  V30 2118 C 199.95 1.61046 4.88435 0
M  V30 2119 N 197.932 2.44421 5.63145 0
M  V30 2120 C 199.303 2.64359 5.60816 0
M  V30 2121 C 201.358 1.62985 4.70468 0
M  V30 2122 C 200.061 3.69505 6.17137 0
M  V30 2123 C 202.087 2.67042 5.27677 0
M  V30 2124 C 201.449 3.69077 5.99968 0
M  V30 2125 H 197.548 -0.0269794 0.781534 0
M  V30 2126 H 200.132 0.546466 1.86874 0
M  V30 2127 H 198.303 -1.18672 3.69826 0
M  V30 2128 H 200.035 -1.05412 3.90731 0
M  V30 2129 H 196.79 0.817546 4.6649 0
M  V30 2130 H 197.214 3.04485 6.04663 0
M  V30 2131 H 201.856 0.854442 4.14076 0
M  V30 2132 H 199.574 4.4791 6.72608 0
M  V30 2133 H 203.16 2.69433 5.15652 0
M  V30 2134 H 202.04 4.48273 6.43444 0
M  V30 2135 N 199.544 -1.57102 0.125237 0
M  V30 2136 C 200.772 -1.99761 -0.538797 0
M  V30 2137 C 201.187 -1.00503 -1.59827 0
M  V30 2138 O 200.544 0.00119474 -1.825 0
M  V30 2139 C 200.595 -3.42408 -1.15927 0
M  V30 2140 O 200.316 -4.37869 -0.142143 0
M  V30 2141 C 201.817 -4.00232 -1.90602 0
M  V30 2142 H 199.037 -0.655772 -0.14214 0
M  V30 2143 H 201.581 -2.03383 0.213413 0
M  V30 2144 H 199.736 -3.39706 -1.86223 0
M  V30 2145 H 200.15 -5.21128 -0.593775 0
M  V30 2146 H 201.624 -5.02105 -2.29335 0
M  V30 2147 H 202.101 -3.39721 -2.78363 0
M  V30 2148 H 202.707 -4.06499 -1.25055 0
M  V30 2149 N 201.022 0.148545 -1.56898 0
M  V30 2150 C 202.252 0.875118 -1.8715 0
M  V30 2151 C 202.66 1.75322 -0.711262 0
M  V30 2152 O 202.003 1.80745 0.328151 0
M  V30 2153 C 202.065 1.7844 -3.12089 0
M  V30 2154 C 201.729 1.08361 -4.43967 0
M  V30 2155 C 202.726 0.438247 -5.1805 0
M  V30 2156 C 200.411 1.07358 -4.90693 0
M  V30 2157 C 202.405 -0.20779 -6.37061 0
M  V30 2158 C 200.092 0.42373 -6.09629 0
M  V30 2159 C 201.09 -0.215829 -6.82659 0
M  V30 2160 O 200.778 -0.855378 -7.99336 0
M  V30 2161 H 200.51 0.258504 -0.624621 0
M  V30 2162 H 203.064 0.14652 -2.04877 0
M  V30 2163 H 201.294 2.55389 -2.90367 0
M  V30 2164 H 202.983 2.38279 -3.286 0
M  V30 2165 H 203.749 0.437817 -4.8302 0
M  V30 2166 H 199.628 1.5608 -4.33774 0
M  V30 2167 H 203.172 -0.70758 -6.94002 0
M  V30 2168 H 199.069 0.421822 -6.4412 0
M  V30 2169 H 199.837 -0.756892 -8.14993 0
M  V30 2170 N 202.5 1.5196 0.417844 0
M  V30 2171 C 203.749 1.6482 1.16264 0
M  V30 2172 C 204.062 0.379886 1.91876 0
M  V30 2173 O 205.268 0.388154 2.68711 0
M  V30 2174 C 203.724 2.91161 2.1155 0
M  V30 2175 C 203.332 4.25068 1.41495 0
M  V30 2176 C 205.076 3.13383 2.86341 0
M  V30 2177 C 202.983 5.42541 2.35379 0
M  V30 2178 H 201.913 0.613954 0.437694 0
M  V30 2179 H 204.564 1.78442 0.427871 0
M  V30 2180 H 202.946 2.71218 2.88543 0
M  V30 2181 H 204.12 4.55463 0.699263 0
M  V30 2182 H 202.435 4.0888 0.787792 0
M  V30 2183 H 205.032 3.98324 3.5671 0
M  V30 2184 H 205.375 2.27256 3.48798 0
M  V30 2185 H 205.908 3.33757 2.1645 0
M  V30 2186 H 202.647 6.30987 1.77582 0
M  V30 2187 H 202.167 5.16497 3.04945 0
M  V30 2188 H 203.846 5.75272 2.96093 0
M  V30 2189 N 203.978 -0.674533 1.42435 0
M  V30 2190 C 204.888 -1.81751 1.48337 0
M  V30 2191 C 205.904 -1.69975 0.372099 0
M  V30 2192 O 207.08 -1.91521 0.62304 0
M  V30 2193 C 204.145 -3.17895 1.38361 0
M  V30 2194 C 203.206 -3.41625 2.59982 0
M  V30 2195 C 202.439 -4.71274 2.50473 0
M  V30 2196 O 202.662 -5.49197 1.54075 0
M  V30 2197 O 201.596 -4.96254 3.4061 0
M  V30 2198 H 205.422 -1.79728 2.44809 0
M  V30 2199 H 203.007 -0.830312 1.24202 0
M  V30 2200 H 204.889 -3.99136 1.35161 0
M  V30 2201 H 203.564 -3.20555 0.450144 0
M  V30 2202 H 202.471 -2.60231 2.68757 0
M  V30 2203 H 203.804 -3.43796 3.52229 0
M  V30 2204 N 205.456 -1.28612 -0.910864 0
M  V30 2205 C 206.684 -1.18792 -1.69399 0
M  V30 2206 C 207.099 0.253039 -1.87097 0
M  V30 2207 O 206.456 1.17071 -1.40003 0
M  V30 2208 C 206.507 -1.88511 -3.08457 0
M  V30 2209 O 206.228 -3.26979 -2.91576 0
M  V30 2210 C 207.729 -1.85029 -4.02839 0
M  V30 2211 H 204.949 -0.412233 -0.529438 0
M  V30 2212 H 207.493 -1.69788 -1.13984 0
M  V30 2213 H 205.648 -1.41379 -3.60681 0
M  V30 2214 H 206.062 -3.61936 -3.79608 0
M  V30 2215 H 207.536 -2.38395 -4.97867 0
M  V30 2216 H 208.013 -0.823303 -4.31414 0
M  V30 2217 H 208.619 -2.31853 -3.56545 0
M  V30 2218 N 206.934 1.1197 -1.10907 0
M  V30 2219 C 207.881 2.17846 -0.762345 0
M  V30 2220 C 208.851 1.63995 0.263599 0
M  V30 2221 O 210.036 1.90273 0.141773 0
M  V30 2222 C 207.176 3.44487 -0.205651 0
M  V30 2223 C 206.289 4.12369 -1.28748 0
M  V30 2224 C 205.424 5.26674 -0.691919 0
M  V30 2225 C 204.463 5.86431 -1.75399 0
M  V30 2226 N 203.6 6.92142 -1.17833 0
M  V30 2227 H 208.44 2.46851 -1.6694 0
M  V30 2228 H 205.977 1.21188 -0.833776 0
M  V30 2229 H 207.935 4.16981 0.135037 0
M  V30 2230 H 206.565 3.15884 0.664613 0
M  V30 2231 H 205.617 3.38003 -1.74522 0
M  V30 2232 H 206.929 4.52844 -2.09125 0
M  V30 2233 H 206.083 6.05953 -0.300963 0
M  V30 2234 H 204.822 4.8749 0.143232 0
M  V30 2235 H 203.827 5.05835 -2.15432 0
M  V30 2236 H 205.052 6.27685 -2.59208 0
M  V30 2237 H 202.998 6.54985 -0.364725 0
M  V30 2238 H 202.915 7.31242 -1.91887 0
M  V30 2239 H 204.183 7.75237 -0.81408 0
M  V30 2240 N 208.412 0.89855 1.29475 0
M  V30 2241 C 209.322 0.379974 2.31502 0
M  V30 2242 C 210.338 -0.524695 1.659 0
M  V30 2243 O 211.514 -0.414551 1.97087 0
M  V30 2244 C 208.579 -0.385138 3.44554 0
M  V30 2245 C 207.64 0.550914 4.2575 0
M  V30 2246 C 206.873 -0.177778 5.33404 0
M  V30 2247 O 207.096 -1.40189 5.52904 0
M  V30 2248 O 206.03 0.479106 5.9999 0
M  V30 2249 H 209.856 1.22639 2.77837 0
M  V30 2250 H 207.441 0.662834 1.33891 0
M  V30 2251 H 209.323 -0.817841 4.13388 0
M  V30 2252 H 207.998 -1.20763 3.0033 0
M  V30 2253 H 206.905 1.03271 3.59564 0
M  V30 2254 H 208.238 1.33979 4.73614 0
M  V30 2255 N 209.89 -1.43072 0.660911 0
M  V30 2256 C 211.301 -1.84932 0.256348 0
M  V30 2257 C 211.652 -1.55325 -1.19868 0
M  V30 2258 O 210.777 -1.00607 -1.91591 0
M  V30 2259 C 211.372 -3.35684 0.458475 0
M  V30 2260 C 209.931 -3.76245 0.108161 0
M  V30 2261 C 209.078 -2.66749 0.757641 0
M  V30 2262 H 212.029 -1.33116 0.864051 0
M  V30 2263 H 212.05 -3.79365 -0.293683 0
M  V30 2264 H 211.562 -3.572 1.51755 0
M  V30 2265 H 209.663 -3.60338 -0.948014 0
M  V30 2266 H 209.776 -4.76058 0.538992 0
M  V30 2267 H 208.14 -2.53989 0.190185 0
M  V30 2268 H 208.923 -2.91092 1.81989 0
M  V30 2269 N 211.368 -0.403325 -1.52352 0
M  V30 2270 C 212.301 0.469463 -2.23319 0
M  V30 2271 C 213.279 1.05272 -1.23922 0
M  V30 2272 O 214.463 1.10169 -1.52954 0
M  V30 2273 C 211.59 1.6511 -2.9573 0
M  V30 2274 C 210.636 1.19178 -4.0951 0
M  V30 2275 S 211.469 0.161718 -5.35256 0
M  V30 2276 C 212.625 1.34882 -6.11194 0
M  V30 2277 H 212.858 -0.133134 -2.97002 0
M  V30 2278 H 210.391 -0.187588 -1.53256 0
M  V30 2279 H 212.349 2.3287 -3.38056 0
M  V30 2280 H 211.01 2.22503 -2.21701 0
M  V30 2281 H 210.203 2.07444 -4.59329 0
M  V30 2282 H 209.805 0.592911 -3.6927 0
M  V30 2283 H 212.097 2.27345 -6.38217 0
M  V30 2284 H 213.04 0.89128 -7.02468 0
M  V30 2285 H 213.448 1.57198 -5.42171 0
M  V30 2286 N 212.846 1.57033 -0.133567 0
M  V30 2287 C 214.123 1.87256 0.56522 0
M  V30 2288 C 214.503 1.03726 1.83859 0
M  V30 2289 O 213.851 0.120247 2.28183 0
M  V30 2290 C 214.061 3.3865 0.843636 0
M  V30 2291 C 215.409 4.07574 1.19032 0
M  V30 2292 O 216.433 3.43752 0.933429 0
M  V30 2293 O 215.292 5.20259 1.67312 0
M  V30 2294 H 212.386 0.775678 0.286796 0
M  V30 2295 H 214.932 1.68855 -0.169168 0
M  V30 2296 H 213.704 3.91257 -0.0581149 0
M  V30 2297 H 213.327 3.62532 1.63268 0
M  V30 2298 N 214.325 -0.140222 1.56975 0
M  V30 2299 C 215.272 -1.17292 1.98774 0
M  V30 2300 C 216.242 -1.4232 0.856408 0
M  V30 2301 O 217.427 -1.54541 1.119 0
M  V30 2302 C 214.567 -2.49973 2.37923 0
M  V30 2303 C 213.68 -2.32062 3.64378 0
M  V30 2304 C 212.815 -3.57825 3.926 0
M  V30 2305 C 211.854 -3.3498 5.12303 0
M  V30 2306 N 210.991 -4.52891 5.36502 0
M  V30 2307 H 215.831 -0.809472 2.86795 0
M  V30 2308 H 213.368 -0.388237 1.41884 0
M  V30 2309 H 215.326 -3.27346 2.58652 0
M  V30 2310 H 213.956 -2.84252 1.52972 0
M  V30 2311 H 213.008 -1.45711 3.51387 0
M  V30 2312 H 214.32 -2.11145 4.51906 0
M  V30 2313 H 213.474 -4.43624 4.13863 0
M  V30 2314 H 212.213 -3.81753 3.03506 0
M  V30 2315 H 211.218 -2.4757 4.90906 0
M  V30 2316 H 212.443 -3.12444 6.02956 0
M  V30 2317 H 210.389 -4.76979 4.50363 0
M  V30 2318 H 210.306 -4.35001 6.18312 0
M  V30 2319 H 211.574 -5.39884 5.62268 0
M  V30 2320 N 215.803 -1.52179 -0.40978 0
M  V30 2321 C 216.766 -1.74853 -1.48186 0
M  V30 2322 C 217.766 -0.618417 -1.48433 0
M  V30 2323 O 218.956 -0.886286 -1.49969 0
M  V30 2324 C 216.088 -1.8303 -2.87598 0
M  V30 2325 H 217.281 -2.70559 -1.29374 0
M  V30 2326 H 214.834 -1.42586 -0.640233 0
M  V30 2327 H 215.569 -0.89236 -3.11781 0
M  V30 2328 H 215.354 -2.65187 -2.88822 0
M  V30 2329 H 216.844 -2.02316 -3.65319 0
M  V30 2330 N 217.281 0.66697 -1.42791 0
M  V30 2331 C 218.529 1.42417 -1.43394 0
M  V30 2332 C 218.85 1.94925 -0.0542373 0
M  V30 2333 O 218.12 1.73564 0.908415 0
M  V30 2334 H 216.7 0.528515 -0.527902 0
M  V30 2335 H 219.362 0.787562 -1.78279 0
M  V30 2336 H 218.458 2.27333 -2.13837 0
M  V30 2337 N 218.759 1.29093 0.90403 0
M  V30 2338 C 219.722 1.1386 1.98919 0
M  V30 2339 C 220.722 0.0753457 1.60623 0
M  V30 2340 O 221.912 0.321931 1.71199 0
M  V30 2341 C 219.044 0.740198 3.32767 0
M  V30 2342 H 220.237 2.10246 2.13861 0
M  V30 2343 H 217.79 1.12218 1.08797 0
M  V30 2344 H 218.525 -0.223997 3.23525 0
M  V30 2345 H 218.31 1.50838 3.61926 0
M  V30 2346 H 219.8 0.656546 4.12407 0
M  V30 2347 N 220.237 -1.11381 1.11499 0
M  V30 2348 C 221.467 -1.86663 0.885464 0
M  V30 2349 C 221.875 -1.80464 -0.568281 0
M  V30 2350 O 221.218 -1.18445 -1.40415 0
M  V30 2351 C 221.28 -3.36337 1.26956 0
M  V30 2352 C 220.944 -3.66304 2.73259 0
M  V30 2353 C 221.941 -3.63733 3.71476 0
M  V30 2354 C 219.626 -3.9529 3.09921 0
M  V30 2355 C 221.62 -3.89725 5.04374 0
M  V30 2356 C 219.307 -4.20941 4.43004 0
M  V30 2357 C 220.305 -4.18147 5.40039 0
M  V30 2358 O 219.993 -4.43153 6.70724 0
M  V30 2359 H 219.725 -0.597114 0.316908 0
M  V30 2360 H 222.279 -1.41782 1.48617 0
M  V30 2361 H 220.509 -3.81826 0.611999 0
M  V30 2362 H 222.198 -3.92986 1.01573 0
M  V30 2363 H 222.964 -3.41389 3.44498 0
M  V30 2364 H 218.843 -3.966 2.35009 0
M  V30 2365 H 222.387 -3.8746 5.80104 0
M  V30 2366 H 218.284 -4.42761 4.69716 0
M  V30 2367 H 219.052 -4.60717 6.76522 0
M  V30 2368 N 221.715 -0.905404 -1.28997 0
M  V30 2369 C 222.963 -0.533192 -1.9494 0
M  V30 2370 C 223.284 0.924618 -1.71685 0
M  V30 2371 O 222.554 1.65268 -1.05183 0
M  V30 2372 H 221.134 -0.194194 -0.721317 0
M  V30 2373 H 223.796 -1.15294 -1.57141 0
M  V30 2374 H 222.892 -0.72059 -3.03667 0
M  V30 2375 N 223.193 1.4272 -0.668489 0
M  V30 2376 C 224.442 2.00846 -0.185389 0
M  V30 2377 C 224.755 1.53442 1.21305 0
M  V30 2378 O 225.961 2.03944 1.79218 0
M  V30 2379 C 224.417 3.58805 -0.280591 0
M  V30 2380 C 224.025 4.15198 -1.68268 0
M  V30 2381 C 225.769 4.24255 0.14412 0
M  V30 2382 C 223.676 5.655 -1.73099 0
M  V30 2383 H 222.606 0.751145 -0.0655475 0
M  V30 2384 H 225.257 1.63516 -0.832752 0
M  V30 2385 H 223.639 3.93608 0.434553 0
M  V30 2386 H 224.813 3.91866 -2.42441 0
M  V30 2387 H 223.128 3.62176 -2.05469 0
M  V30 2388 H 225.725 5.34547 0.128086 0
M  V30 2389 H 226.068 3.99277 1.17827 0
M  V30 2390 H 226.601 3.94389 -0.519798 0
M  V30 2391 H 223.34 5.95268 -2.74475 0
M  V30 2392 H 222.86 5.90842 -1.03274 0
M  V30 2393 H 224.539 6.29808 -1.48158 0
M  V30 2394 N 224.671 0.411399 1.52136 0
M  V30 2395 C 225.603 -0.448386 2.24771 0
M  V30 2396 C 226.616 -1.00828 1.27818 0
M  V30 2397 O 227.805 -0.906841 1.53749 0
M  V30 2398 C 224.905 -1.63636 2.96777 0
M  V30 2399 C 224.078 -1.19995 4.20618 0
M  V30 2400 C 223.137 -2.25509 4.75428 0
M  V30 2401 O 222.163 -1.86007 5.3795 0
M  V30 2402 N 223.365 -3.577 4.57199 0
M  V30 2403 H 226.13 0.174025 2.99194 0
M  V30 2404 H 223.691 0.238897 1.60128 0
M  V30 2405 H 225.683 -2.33793 3.30338 0
M  V30 2406 H 224.253 -2.16465 2.25526 0
M  V30 2407 H 223.473 -0.326421 3.92846 0
M  V30 2408 H 224.761 -0.885365 5.01038 0
M  V30 2409 H 224.159 -3.92543 4.07341 0
M  V30 2410 H 222.716 -4.23827 4.95191 0
M  V30 2411 N 226.149 -1.5696 0.141893 0
M  V30 2412 C 227.397 -1.95573 -0.509484 0
M  V30 2413 C 227.718 -1.02746 -1.65736 0
M  V30 2414 O 226.988 -0.0880311 -1.95702 0
M  V30 2415 H 225.568 -0.722115 -0.191205 0
M  V30 2416 H 228.23 -1.93697 0.216196 0
M  V30 2417 H 227.326 -2.99171 -0.889 0
M  V30 2418 N 227.627 0.131896 -1.57047 0
M  V30 2419 C 229.043 0.485031 -1.52051 0
M  V30 2420 C 229.243 1.82563 -0.85281 0
M  V30 2421 O 228.299 2.48817 -0.429694 0
M  V30 2422 C 229.612 0.481409 -2.96821 0
M  V30 2423 C 231.16 0.565868 -3.07842 0
M  V30 2424 C 231.635 0.592762 -4.54148 0
M  V30 2425 N 233.126 0.654564 -4.58552 0
M  V30 2426 C 233.861 0.696608 -5.69153 0
M  V30 2427 N 233.357 0.697078 -6.89284 0
M  V30 2428 N 235.15 0.738639 -5.57226 0
M  V30 2429 H 227.301 -0.746664 -1.98843 0
M  V30 2430 H 229.564 -0.273999 -0.90754 0
M  V30 2431 H 229.27 -0.435731 -3.4899 0
M  V30 2432 H 229.144 1.3139 -3.53577 0
M  V30 2433 H 231.531 1.47343 -2.55684 0
M  V30 2434 H 231.612 -0.29406 -2.54104 0
M  V30 2435 H 231.256 -0.310701 -5.06949 0
M  V30 2436 H 231.186 1.46939 -5.05684 0
M  V30 2437 H 233.677 0.660887 -3.72076 0
M  V30 2438 H 233.99 0.731426 -7.69331 0
M  V30 2439 H 232.335 0.66471 -6.91814 0
M  V30 2440 H 235.526 0.735545 -4.62285 0
M  V30 2441 H 235.699 0.767938 -6.43434 0
M  V30 2442 N 229.106 1.52395 0.401703 0
M  V30 2443 C 230.354 1.66488 1.14569 0
M  V30 2444 C 230.675 0.400897 1.90835 0
M  V30 2445 O 229.945 -0.584415 1.8698 0
M  V30 2446 H 228.525 0.613672 0.425929 0
M  V30 2447 H 231.187 1.89464 0.457093 0
M  V30 2448 H 230.283 2.50942 1.85566 0
M  V30 2449 N 230.584 -0.659388 1.43143 0
M  V30 2450 C 231.547 -1.75432 1.47501 0
M  V30 2451 C 232.547 -1.56707 0.360512 0
M  V30 2452 O 233.737 -1.62717 0.622002 0
M  V30 2453 C 230.869 -3.14239 1.32162 0
M  V30 2454 H 232.062 -1.7295 2.45006 0
M  V30 2455 H 229.615 -0.870469 1.29817 0
M  V30 2456 H 230.35 -3.22336 0.356401 0
M  V30 2457 H 230.135 -3.29235 2.12948 0
M  V30 2458 H 231.625 -3.94094 1.3813 0
M  V30 2459 N 232.062 -1.29571 -0.897171 0
M  V30 2460 C 232.992 -1.17473 -2.01798 0
M  V30 2461 C 233.973 -0.068323 -1.69963 0
M  V30 2462 O 235.158 -0.248239 -1.92607 0
M  V30 2463 C 232.288 -0.853099 -3.36659 0
M  V30 2464 C 231.242 -1.9161 -3.82713 0
M  V30 2465 C 230.568 -1.44773 -5.14728 0
M  V30 2466 C 231.868 -3.32535 -4.02763 0
M  V30 2467 H 233.562 -2.11237 -2.12177 0
M  V30 2468 H 231.108 -1.01699 -1.01948 0
M  V30 2469 H 233.061 -0.755165 -4.14578 0
M  V30 2470 H 231.785 0.120236 -3.26379 0
M  V30 2471 H 230.444 -2.00346 -3.07013 0
M  V30 2472 H 230.092 -0.462995 -5.00865 0
M  V30 2473 H 229.792 -2.15865 -5.46513 0
M  V30 2474 H 231.316 -1.36334 -5.95185 0
M  V30 2475 H 232.73 -3.26626 -4.71156 0
M  V30 2476 H 231.127 -4.01607 -4.45905 0
M  V30 2477 H 232.197 -3.75326 -3.07016 0
M  V30 2478 N 233.54 1.10788 -1.12088 0
M  V30 2479 C 234.787 1.82671 -0.873931 0
M  V30 2480 C 235.115 1.85004 0.600311 0
M  V30 2481 O 234.37 1.30365 1.45957 0
M  V30 2482 C 234.669 3.29294 -1.38926 0
M  V30 2483 C 234.335 3.47113 -2.87791 0
M  V30 2484 C 232.997 3.51684 -3.28439 0
M  V30 2485 C 235.349 3.52808 -3.83635 0
M  V30 2486 C 232.677 3.59513 -4.63646 0
M  V30 2487 C 235.029 3.62169 -5.18668 0
M  V30 2488 C 233.693 3.65003 -5.58864 0
M  V30 2489 H 232.963 0.668441 -0.319794 0
M  V30 2490 H 235.61 1.30613 -1.40045 0
M  V30 2491 H 233.915 3.83894 -0.783122 0
M  V30 2492 H 235.612 3.83416 -1.17443 0
M  V30 2493 H 232.202 3.4423 -2.5535 0
M  V30 2494 H 236.386 3.4853 -3.53328 0
M  V30 2495 H 231.642 3.59987 -4.94185 0
M  V30 2496 H 235.816 3.6552 -5.92763 0
M  V30 2497 H 233.443 3.70822 -6.63623 0
M  V30 2498 N 235.018 0.912232 1.28515 0
M  V30 2499 C 236.264 0.545405 1.95328 0
M  V30 2500 C 236.597 -0.908313 1.71649 0
M  V30 2501 O 235.872 -1.64575 1.03659 0
M  V30 2502 C 236.155 0.853483 3.4984 0
M  V30 2503 C 236.008 2.35982 3.82926 0
M  V30 2504 C 237.327 0.348589 4.38717 0
M  V30 2505 H 234.446 0.199626 0.709449 0
M  V30 2506 H 237.088 1.1412 1.5191 0
M  V30 2507 H 235.238 0.34643 3.86952 0
M  V30 2508 H 236.91 2.93738 3.55691 0
M  V30 2509 H 235.153 2.81543 3.30024 0
M  V30 2510 H 235.824 2.52593 4.90816 0
M  V30 2511 H 238.3 0.78294 4.08668 0
M  V30 2512 H 237.176 0.593242 5.45685 0
M  V30 2513 H 237.437 -0.751049 4.35674 0
M  V30 2514 N 236.496 -1.42363 0.676048 0
M  V30 2515 C 237.443 -2.308 -0.00150904 0
M  V30 2516 C 238.413 -1.46032 -0.791444 0
M  V30 2517 O 239.598 -1.74861 -0.76344 0
M  V30 2518 C 236.738 -3.31883 -0.945919 0
M  V30 2519 C 235.851 -4.31741 -0.149675 0
M  V30 2520 C 234.986 -5.19898 -1.08995 0
M  V30 2521 C 234.025 -6.11434 -0.285465 0
M  V30 2522 N 233.162 -6.92138 -1.17851 0
M  V30 2523 H 238.002 -2.88187 0.758455 0
M  V30 2524 H 235.539 -1.41952 0.38576 0
M  V30 2525 H 237.497 -3.89019 -1.50731 0
M  V30 2526 H 236.127 -2.76093 -1.6725 0
M  V30 2527 H 235.179 -3.76713 0.528359 0
M  V30 2528 H 236.491 -4.96534 0.474866 0
M  V30 2529 H 235.645 -5.81772 -1.72123 0
M  V30 2530 H 234.384 -4.55284 -1.74837 0
M  V30 2531 H 233.389 -5.48627 0.359018 0
M  V30 2532 H 234.614 -6.78097 0.368883 0
M  V30 2533 H 232.56 -6.30152 -1.82332 0
M  V30 2534 H 232.477 -7.53542 -0.609082 0
M  V30 2535 H 233.745 -7.58499 -1.79722 0
M  V30 2536 N 237.974 -0.419461 -1.51915 0
M  V30 2537 C 238.921 0.400927 -2.27291 0
M  V30 2538 C 239.891 1.03224 -1.30131 0
M  V30 2539 O 241.076 1.05455 -1.59009 0
M  V30 2540 C 238.216 1.50603 -3.10504 0
M  V30 2541 C 237.329 0.89462 -4.22635 0
M  V30 2542 C 236.464 1.97328 -4.93189 0
M  V30 2543 C 235.503 1.33935 -5.97267 0
M  V30 2544 N 234.64 2.3586 -6.61298 0
M  V30 2545 H 239.48 -0.248251 -2.96964 0
M  V30 2546 H 237.017 -0.134266 -1.46486 0
M  V30 2547 H 238.975 2.15783 -3.57062 0
M  V30 2548 H 237.605 2.12509 -2.42981 0
M  V30 2549 H 236.657 0.131583 -3.80172 0
M  V30 2550 H 237.969 0.391641 -4.9726 0
M  V30 2551 H 237.123 2.70211 -5.43204 0
M  V30 2552 H 235.862 2.50994 -4.18155 0
M  V30 2553 H 234.867 0.595896 -5.46561 0
M  V30 2554 H 236.092 0.810252 -6.74249 0
M  V30 2555 H 234.038 2.88639 -5.89087 0
M  V30 2556 H 233.955 1.90403 -7.3163 0
M  V30 2557 H 235.223 3.08282 -7.15949 0
M  V30 2558 N 239.452 1.56882 -0.150215 0
M  V30 2559 C 240.701 1.95403 0.500071 0
M  V30 2560 C 241.014 1.03777 1.658 0
M  V30 2561 O 242.22 1.31889 2.37313 0
M  V30 2562 C 240.676 3.4738 0.941018 0
M  V30 2563 C 240.284 4.47596 -0.190158 0
M  V30 2564 C 242.028 3.9476 1.56091 0
M  V30 2565 C 239.935 5.90787 0.269237 0
M  V30 2566 H 238.865 0.729515 0.190588 0
M  V30 2567 H 241.516 1.81988 -0.235074 0
M  V30 2568 H 239.898 3.56138 1.73152 0
M  V30 2569 H 241.072 4.50536 -0.967157 0
M  V30 2570 H 239.387 4.10151 -0.718666 0
M  V30 2571 H 241.984 4.99181 1.9163 0
M  V30 2572 H 242.327 3.36494 2.45107 0
M  V30 2573 H 242.86 3.88932 0.835249 0
M  V30 2574 H 239.599 6.52879 -0.585621 0
M  V30 2575 H 239.119 5.912 1.01204 0
M  V30 2576 H 240.798 6.42979 0.720176 0
M  V30 2577 N 240.93 -0.123565 1.57115 0
M  V30 2578 C 242.207 -0.862196 1.75572 0
M  V30 2579 C 242.587 -1.98279 0.724475 0
M  V30 2580 O 241.935 -2.27102 -0.252407 0
M  V30 2581 C 242.145 -1.38309 3.20424 0
M  V30 2582 C 243.493 -1.83724 3.82793 0
M  V30 2583 O 244.517 -1.47999 3.23998 0
M  V30 2584 O 243.376 -2.49685 4.86127 0
M  V30 2585 H 240.47 -0.409113 0.718718 0
M  V30 2586 H 243.016 -0.107661 1.69358 0
M  V30 2587 H 241.788 -0.578889 3.86994 0
M  V30 2588 H 241.411 -2.20046 3.31158 0
M  V30 2589 N 242.408 -1.52605 -0.393616 0
M  V30 2590 C 243.656 -1.67093 -1.13685 0
M  V30 2591 C 243.977 -0.411011 -1.90619 0
M  V30 2592 O 243.247 0.574491 -1.87287 0
M  V30 2593 H 241.827 -0.615923 -0.422668 0
M  V30 2594 H 244.489 -1.89704 -0.447039 0
M  V30 2595 H 243.585 -2.51922 -1.84232 0
M  V30 2596 N 243.887 0.651787 -1.4349 0
M  V30 2597 C 245.164 1.40909 -1.35661 0
M  V30 2598 C 245.544 2.11099 -0.00511733 0
M  V30 2599 O 244.892 2.04892 1.0115 0
M  V30 2600 C 245.102 2.3926 -2.54078 0
M  V30 2601 C 246.45 3.03217 -2.97228 0
M  V30 2602 O 247.474 2.49588 -2.54135 0
M  V30 2603 O 246.333 4.00455 -3.71885 0
M  V30 2604 H 243.427 0.629625 -0.536191 0
M  V30 2605 H 245.973 0.678575 -1.55542 0
M  V30 2606 H 244.745 1.86352 -3.44076 0
M  V30 2607 H 244.368 3.1976 -2.36303 0
M  V30 2608 N 245.365 1.30045 0.890287 0
M  V30 2609 C 246.595 1.21296 1.67245 0
M  V30 2610 C 247.003 -0.227471 1.87828 0
M  V30 2611 O 246.346 -1.16296 1.422 0
M  V30 2612 C 246.408 1.86519 3.07329 0
M  V30 2613 C 246.072 3.35837 3.09939 0
M  V30 2614 C 247.069 4.31915 2.89389 0
M  V30 2615 C 244.754 3.77196 3.31706 0
M  V30 2616 C 246.748 5.67325 2.90552 0
M  V30 2617 C 244.435 5.12725 3.32499 0
M  V30 2618 C 245.433 6.076 3.11947 0
M  V30 2619 O 245.121 7.40655 3.12547 0
M  V30 2620 H 244.853 0.4211 0.528821 0
M  V30 2621 H 247.407 1.72111 1.12103 0
M  V30 2622 H 245.637 1.30228 3.64112 0
M  V30 2623 H 247.326 1.71963 3.67673 0
M  V30 2624 H 248.092 4.01294 2.72375 0
M  V30 2625 H 243.971 3.03796 3.4674 0
M  V30 2626 H 247.515 6.41354 2.74429 0
M  V30 2627 H 243.412 5.42988 3.49047 0
M  V30 2628 H 244.18 7.49577 3.28749 0
M  V30 2629 N 246.843 -1.10192 1.12674 0
M  V30 2630 C 248.073 -1.85713 0.905213 0
M  V30 2631 C 248.481 -1.81056 -0.549108 0
M  V30 2632 O 247.824 -1.19927 -1.39151 0
M  V30 2633 C 247.886 -3.34972 1.30516 0
M  V30 2634 C 247.55 -3.63385 2.77129 0
M  V30 2635 C 248.547 -3.59772 3.75313 0
M  V30 2636 C 246.232 -3.91981 3.14096 0
M  V30 2637 C 248.226 -3.84354 5.08479 0
M  V30 2638 C 245.913 -4.16218 4.47443 0
M  V30 2639 C 246.911 -4.12395 5.44444 0
M  V30 2640 O 246.599 -4.36014 6.75387 0
M  V30 2641 H 246.331 -0.593719 0.323223 0
M  V30 2642 H 248.885 -1.40198 1.50112 0
M  V30 2643 H 247.115 -3.81156 0.652463 0
M  V30 2644 H 248.804 -3.91886 1.05736 0
M  V30 2645 H 249.57 -3.37716 3.48099 0
M  V30 2646 H 245.449 -3.94085 2.39202 0
M  V30 2647 H 248.993 -3.81285 5.84181 0
M  V30 2648 H 244.89 -4.37754 4.74386 0
M  V30 2649 H 245.658 -4.53516 6.8137 0
M  V30 2650 N 248.321 -0.919034 -1.28029 0
M  V30 2651 C 249.546 -0.570357 -1.99403 0
M  V30 2652 C 249.971 0.842486 -1.68178 0
M  V30 2653 O 249.329 1.56391 -0.917141 0
M  V30 2654 C 249.377 -0.792541 -3.51783 0
M  V30 2655 O 248.481 0.145988 -4.12142 0
M  V30 2656 H 247.822 -0.220555 -0.6263 0
M  V30 2657 H 250.352 -1.23592 -1.63053 0
M  V30 2658 H 250.362 -0.704708 -4.01868 0
M  V30 2659 H 249.037 -1.82247 -3.73844 0
M  V30 2660 H 247.614 0.00897528 -3.72899 0
M  V30 2661 N 249.799 1.42003 -0.683588 0
M  V30 2662 C 251.045 2.01712 -0.209825 0
M  V30 2663 C 251.378 1.53968 1.18353 0
M  V30 2664 O 250.653 0.745661 1.79639 0
M  V30 2665 C 250.936 3.59202 -0.254197 0
M  V30 2666 C 250.789 4.17102 -1.68363 0
M  V30 2667 C 252.108 4.38344 0.392709 0
M  V30 2668 H 249.227 0.732891 -0.0777189 0
M  V30 2669 H 251.869 1.68909 -0.87004 0
M  V30 2670 H 250.019 3.87278 0.307954 0
M  V30 2671 H 251.691 3.99946 -2.29871 0
M  V30 2672 H 249.934 3.72597 -2.22157 0
M  V30 2673 H 250.605 5.26249 -1.6663 0
M  V30 2674 H 253.081 4.16011 -0.0859162 0
M  V30 2675 H 251.957 5.47901 0.331063 0
M  V30 2676 H 252.218 4.16887 1.47164 0
M  V30 2677 N 251.277 0.427512 1.51691 0
M  V30 2678 C 252.21 -0.433876 2.24037 0
M  V30 2679 C 253.188 -1.03287 1.25581 0
M  V30 2680 O 254.372 -1.07722 1.54688 0
M  V30 2681 C 251.499 -1.60385 2.98319 0
M  V30 2682 C 250.545 -1.12648 4.11355 0
M  V30 2683 S 251.378 -0.076543 5.35445 0
M  V30 2684 C 252.534 -1.25141 6.13262 0
M  V30 2685 H 252.767 0.180367 2.96752 0
M  V30 2686 H 250.3 0.211946 1.52938 0
M  V30 2687 H 252.258 -2.27462 3.41718 0
M  V30 2688 H 250.919 -2.18948 2.25213 0
M  V30 2689 H 250.112 -2.0011 4.62571 0
M  V30 2690 H 249.714 -0.534088 3.70167 0
M  V30 2691 H 252.006 -2.17162 6.41753 0
M  V30 2692 H 252.949 -0.779411 7.03797 0
M  V30 2693 H 253.357 -1.48553 5.44603 0
M  V30 2694 N 252.755 -1.56801 0.158532 0
M  V30 2695 C 254.003 -1.96102 -0.488712 0
M  V30 2696 C 254.324 -1.04498 -1.64636 0
M  V30 2697 O 253.594 -0.108783 -1.95598 0
M  V30 2698 H 252.174 -0.724102 -0.183535 0
M  V30 2699 H 254.836 -1.93457 0.236728 0
M  V30 2700 H 253.932 -3.00097 -0.857219 0
M  V30 2701 N 254.233 0.115231 -1.57178 0
M  V30 2702 C 255.163 1.1423 -2.03651 0
M  V30 2703 C 256.144 1.42967 -0.921655 0
M  V30 2704 O 257.329 1.53343 -1.19162 0
M  V30 2705 C 254.459 2.4675 -2.44401 0
M  V30 2706 C 253.413 2.32467 -3.59365 0
M  V30 2707 C 252.739 3.69984 -3.86026 0
M  V30 2708 C 254.039 1.78203 -4.90959 0
M  V30 2709 H 255.733 0.755749 -2.89705 0
M  V30 2710 H 253.279 0.362093 -1.39373 0
M  V30 2711 H 255.232 3.18854 -2.75517 0
M  V30 2712 H 253.956 2.87302 -1.55322 0
M  V30 2713 H 252.615 1.62811 -3.28463 0
M  V30 2714 H 252.263 4.08028 -2.94147 0
M  V30 2715 H 251.963 3.61279 -4.63412 0
M  V30 2716 H 253.487 4.43587 -4.19599 0
M  V30 2717 H 254.901 2.40128 -5.20587 0
M  V30 2718 H 253.298 1.8031 -5.72371 0
M  V30 2719 H 254.368 0.739876 -4.79222 0
M  V30 2720 N 255.711 1.52812 0.385517 0
M  V30 2721 C 257.122 1.5993 0.963293 0
M  V30 2722 C 257.473 0.454302 1.90868 0
M  V30 2723 O 256.598 -0.422132 2.12243 0
M  V30 2724 C 257.193 2.89871 1.75387 0
M  V30 2725 C 255.752 2.99389 2.28129 0
M  V30 2726 C 254.899 2.55071 1.08783 0
M  V30 2727 H 257.85 1.5784 0.164948 0
M  V30 2728 H 257.871 2.76553 2.61341 0
M  V30 2729 H 257.383 3.73186 1.06554 0
M  V30 2730 H 255.484 2.20619 3.00263 0
M  V30 2731 H 255.597 4.04096 2.57377 0
M  V30 2732 H 253.961 2.09473 1.4489 0
M  V30 2733 H 254.744 3.40785 0.414807 0
M  V30 2734 N 257.189 -0.644168 1.43834 0
M  V30 2735 C 258.438 -1.39985 1.45214 0
M  V30 2736 C 258.751 -1.95421 0.0835494 0
M  V30 2737 O 259.957 -2.71488 -0.0251748 0
M  V30 2738 C 258.413 -2.53384 2.55587 0
M  V30 2739 C 258.021 -2.04517 3.98594 0
M  V30 2740 C 259.765 -3.30685 2.66172 0
M  V30 2741 C 257.672 -3.1518 5.00416 0
M  V30 2742 H 256.602 -0.526005 0.540218 0
M  V30 2743 H 259.253 -0.694367 1.69855 0
M  V30 2744 H 257.635 -3.26446 2.24163 0
M  V30 2745 H 258.809 -1.38405 4.39523 0
M  V30 2746 H 257.124 -1.40068 3.92135 0
M  V30 2747 H 259.721 -4.13158 3.39418 0
M  V30 2748 H 260.064 -3.79312 1.71546 0
M  V30 2749 H 260.597 -2.64708 2.96942 0
M  V30 2750 H 257.336 -2.71511 5.96625 0
M  V30 2751 H 256.856 -3.79974 4.64091 0
M  V30 2752 H 258.535 -3.80166 5.23529 0
M  V30 2753 N 258.668 -1.30515 -0.883378 0
M  V30 2754 C 259.893 -1.22487 -1.67367 0
M  V30 2755 C 260.318 0.208767 -1.86938 0
M  V30 2756 O 259.676 1.15015 -1.40148 0
M  V30 2757 C 259.724 -1.96041 -3.02655 0
M  V30 2758 O 258.828 -1.28859 -3.91751 0
M  V30 2759 H 258.169 -0.423573 -0.511353 0
M  V30 2760 H 260.699 -1.72362 -1.10239 0
M  V30 2761 H 260.709 -2.05124 -3.52687 0
M  V30 2762 H 259.384 -3.00307 -2.8773 0
M  V30 2763 H 257.961 -1.28141 -3.50192 0
M  V30 2764 N 260.146 1.09593 -1.13257 0
M  V30 2765 C 261.093 2.1618 -0.808381 0
M  V30 2766 C 262.063 1.64517 0.228754 0
M  V30 2767 O 263.248 1.9053 0.101381 0
M  V30 2768 C 260.388 3.43973 -0.278675 0
M  V30 2769 C 259.501 4.09545 -1.37466 0
M  V30 2770 C 258.636 5.25088 -0.803479 0
M  V30 2771 C 257.675 5.82579 -1.87799 0
M  V30 2772 N 256.812 6.89486 -1.32488 0
M  V30 2773 H 261.652 2.43254 -1.72138 0
M  V30 2774 H 259.189 1.19392 -0.859294 0
M  V30 2775 H 261.147 4.17174 0.0465583 0
M  V30 2776 H 259.777 3.17223 0.597459 0
M  V30 2777 H 258.829 3.34226 -1.81652 0
M  V30 2778 H 260.141 4.48307 -2.18684 0
M  V30 2779 H 259.295 6.05178 -0.429427 0
M  V30 2780 H 258.034 4.87684 0.0397956 0
M  V30 2781 H 257.039 5.01152 -2.26113 0
M  V30 2782 H 258.264 6.22045 -2.72463 0
M  V30 2783 H 256.21 6.54064 -0.503575 0
M  V30 2784 H 256.127 7.27007 -2.07355 0
M  V30 2785 H 257.395 7.73336 -0.978336 0
M  V30 2786 N 261.624 0.925811 1.2754 0
M  V30 2787 C 262.852 0.581509 1.9856 0
M  V30 2788 C 263.267 -0.840041 1.69082 0
M  V30 2789 O 262.624 -1.55805 0.950312 0
M  V30 2790 C 262.675 0.795589 3.52637 0
M  V30 2791 O 262.396 2.16121 3.81082 0
M  V30 2792 C 263.897 0.459744 4.4091 0
M  V30 2793 H 261.117 0.220538 0.633722 0
M  V30 2794 H 263.661 1.24232 1.6244 0
M  V30 2795 H 261.816 0.18161 3.86974 0
M  V30 2796 H 262.23 2.2098 4.75676 0
M  V30 2797 H 263.704 0.660244 5.48037 0
M  V30 2798 H 264.181 -0.604625 4.35018 0
M  V30 2799 H 264.787 1.05178 4.12089 0
M  V30 2800 N 263.102 -1.41638 0.69111 0
M  V30 2801 C 264.035 -2.28183 -0.0274913 0
M  V30 2802 C 265.013 -1.41984 -0.792424 0
M  V30 2803 O 266.197 -1.71415 -0.784169 0
M  V30 2804 C 263.324 -3.22135 -1.04628 0
M  V30 2805 C 262.37 -4.24848 -0.375037 0
M  V30 2806 S 263.203 -5.28231 0.879321 0
M  V30 2807 C 264.359 -6.25748 -0.137983 0
M  V30 2808 H 264.592 -2.88782 0.706553 0
M  V30 2809 H 262.125 -1.46709 0.481222 0
M  V30 2810 H 264.083 -3.76797 -1.62894 0
M  V30 2811 H 262.744 -2.6064 -1.75287 0
M  V30 2812 H 261.937 -4.90837 -1.14433 0
M  V30 2813 H 261.539 -3.73758 0.134434 0
M  V30 2814 H 263.831 -6.70188 -0.992659 0
M  V30 2815 H 264.774 -7.06417 0.487867 0
M  V30 2816 H 265.182 -5.62363 -0.490762 0
M  V30 2817 N 264.58 -0.43555 -1.51462 0
M  V30 2818 C 265.996 -0.0877501 -1.59359 0
M  V30 2819 C 266.196 1.4027 -1.4466 0
M  V30 2820 O 265.252 2.17243 -1.28693 0
M  V30 2821 C 266.565 -0.606264 -2.94525 0
M  V30 2822 C 268.113 -0.566548 -3.0783 0
M  V30 2823 C 268.588 -1.06201 -4.45517 0
M  V30 2824 N 270.079 -1.01992 -4.51832 0
M  V30 2825 C 270.814 -1.37417 -5.5669 0
M  V30 2826 N 270.31 -1.80119 -6.68976 0
M  V30 2827 N 272.103 -1.29245 -5.47039 0
M  V30 2828 H 264.254 -1.40533 -1.59261 0
M  V30 2829 H 266.517 -0.578992 -0.750648 0
M  V30 2830 H 266.223 -1.64901 -3.10645 0
M  V30 2831 H 266.097 -0.0302097 -3.77188 0
M  V30 2832 H 268.484 0.467208 -2.91378 0
M  V30 2833 H 268.565 -1.17898 -2.2701 0
M  V30 2834 H 268.209 -2.09422 -4.62715 0
M  V30 2835 H 268.139 -0.426127 -5.24873 0
M  V30 2836 H 270.63 -0.706308 -3.71241 0
M  V30 2837 H 270.943 -2.05392 -7.45006 0
M  V30 2838 H 269.288 -1.84044 -6.70189 0
M  V30 2839 H 272.479 -0.957522 -4.58202 0
M  V30 2840 H 272.652 -1.57182 -6.28648 0
M  V30 2841 N 266.058 1.56714 -0.166846 0
M  V30 2842 C 267.021 2.16539 0.751232 0
M  V30 2843 C 268.021 1.11228 1.16125 0
M  V30 2844 O 269.211 1.36765 1.07894 0
M  V30 2845 C 266.343 2.74462 2.02196 0
M  V30 2846 H 267.536 2.99013 0.230499 0
M  V30 2847 H 265.089 1.56081 0.0826982 0
M  V30 2848 H 265.824 1.95709 2.58589 0
M  V30 2849 H 265.609 3.51527 1.73698 0
M  V30 2850 H 267.099 3.20489 2.67725 0
M  V30 2851 N 267.536 -0.106894 1.57237 0
M  V30 2852 C 268.466 -1.13148 2.04254 0
M  V30 2853 C 269.447 -1.42476 0.929224 0
M  V30 2854 O 270.632 -1.52709 1.19973 0
M  V30 2855 C 267.762 -2.4545 2.45706 0
M  V30 2856 C 266.716 -2.30558 3.60592 0
M  V30 2857 C 266.042 -3.67931 3.87983 0
M  V30 2858 C 267.342 -1.75597 4.91897 0
M  V30 2859 H 269.036 -0.740374 2.90101 0
M  V30 2860 H 266.582 -0.354696 1.39563 0
M  V30 2861 H 268.535 -3.17389 2.77205 0
M  V30 2862 H 267.259 -2.86475 1.56843 0
M  V30 2863 H 265.918 -1.61067 3.29322 0
M  V30 2864 H 265.566 -4.06462 2.96306 0
M  V30 2865 H 265.266 -3.58817 4.65322 0
M  V30 2866 H 266.79 -4.41356 4.21945 0
M  V30 2867 H 268.204 -2.37364 5.21854 0
M  V30 2868 H 266.601 -1.77272 5.73319 0
M  V30 2869 H 267.671 -0.714451 4.79608 0
M  V30 2870 N 269.014 -1.53014 -0.377408 0
M  V30 2871 C 270.43 -1.42523 -0.718281 0
M  V30 2872 C 270.63 -0.55487 -1.9371 0
M  V30 2873 O 269.686 -0.0327593 -2.52479 0
M  V30 2874 C 270.999 -2.85546 -0.942539 0
M  V30 2875 C 272.547 -2.95101 -1.04329 0
M  V30 2876 C 273.022 -4.3916 -1.3001 0
M  V30 2877 N 274.513 -4.42536 -1.36806 0
M  V30 2878 C 275.248 -5.51097 -1.58364 0
M  V30 2879 N 274.744 -6.69724 -1.77317 0
M  V30 2880 N 276.537 -5.38657 -1.60638 0
M  V30 2881 H 268.688 -2.08116 0.424426 0
M  V30 2882 H 270.951 -0.939352 0.127759 0
M  V30 2883 H 270.657 -3.51499 -0.118929 0
M  V30 2884 H 270.531 -3.28493 -1.85397 0
M  V30 2885 H 272.918 -2.29309 -1.85745 0
M  V30 2886 H 272.999 -2.55566 -0.109505 0
M  V30 2887 H 272.643 -5.05521 -0.490991 0
M  V30 2888 H 272.573 -4.76258 -2.24691 0
M  V30 2889 H 275.064 -3.57039 -1.23821 0
M  V30 2890 H 275.377 -7.48233 -1.93306 0
M  V30 2891 H 273.722 -6.72732 -1.74518 0
M  V30 2892 H 276.913 -4.44948 -1.45391 0
M  V30 2893 H 277.086 -6.2333 -1.77098 0
M  V30 2894 N 270.492 0.636531 -1.44174 0
M  V30 2895 C 271.442 1.74233 -1.47061 0
M  V30 2896 C 272.426 1.57331 -0.337034 0
M  V30 2897 O 273.618 1.67159 -0.581973 0
M  V30 2898 C 270.747 3.12897 -1.41246 0
M  V30 2899 C 269.833 3.35288 -2.59698 0
M  V30 2900 N 270.224 3.2807 -3.84972 0
M  V30 2901 C 268.522 3.66065 -2.54778 0
M  V30 2902 C 269.223 3.51001 -4.63867 0
M  V30 2903 N 268.199 3.73616 -3.94857 0
M  V30 2904 H 272.001 1.67103 -2.41773 0
M  V30 2905 H 269.515 0.838806 -1.3906 0
M  V30 2906 H 271.512 3.92189 -1.41398 0
M  V30 2907 H 270.172 3.21197 -0.47569 0
M  V30 2908 H 271.183 3.07109 -4.17019 0
M  V30 2909 H 267.86 3.81379 -1.6987 0
M  V30 2910 H 269.25 3.51059 -5.72894 0
M  V30 2911 N 271.97 1.30982 0.876444 0
M  V30 2912 C 273.217 1.20296 1.62896 0
M  V30 2913 C 273.545 -0.240395 1.93009 0
M  V30 2914 O 272.8 -1.18733 1.55567 0
M  V30 2915 C 273.099 1.98572 2.9716 0
M  V30 2916 C 272.765 3.48125 2.86566 0
M  V30 2917 C 271.427 3.88905 2.83383 0
M  V30 2918 C 273.779 4.43322 2.74071 0
M  V30 2919 C 271.107 5.2316 2.65556 0
M  V30 2920 C 273.459 5.77695 2.57781 0
M  V30 2921 C 272.123 6.17704 2.52979 0
M  V30 2922 H 271.393 0.440193 0.59608 0
M  V30 2923 H 274.04 1.62177 1.01837 0
M  V30 2924 H 272.345 1.49352 3.62217 0
M  V30 2925 H 274.042 1.8769 3.54364 0
M  V30 2926 H 270.632 3.15723 2.89856 0
M  V30 2927 H 274.816 4.12752 2.75589 0
M  V30 2928 H 270.072 5.53241 2.60259 0
M  V30 2929 H 274.246 6.51091 2.47089 0
M  V30 2930 H 271.873 7.21678 2.38924 0
M  V30 2931 N 273.449 -1.08991 1.13837 0
M  V30 2932 C 274.726 -1.77863 0.813876 0
M  V30 2933 C 275.106 -1.99375 -0.693746 0
M  V30 2934 O 274.454 -1.59875 -1.63255 0
M  V30 2935 C 274.664 -3.0986 1.60586 0
M  V30 2936 C 276.012 -3.84493 1.8014 0
M  V30 2937 O 277.036 -3.19624 1.57222 0
M  V30 2938 O 275.895 -5.00957 2.18413 0
M  V30 2939 H 272.989 -0.771589 0.297624 0
M  V30 2940 H 275.535 -1.15507 1.24323 0
M  V30 2941 H 274.307 -2.89715 2.63022 0
M  V30 2942 H 273.93 -3.79942 1.17173 0
M  V30 2943 N 274.927 -0.932562 -1.27047 0
M  V30 2944 C 276.176 -0.571351 -1.93439 0
M  V30 2945 C 276.489 0.892467 -1.74053 0
M  V30 2946 O 277.695 1.36267 -2.34826 0
M  V30 2947 C 276.151 -0.97106 -3.46552 0
M  V30 2948 C 275.759 -2.4559 -3.74686 0
M  V30 2949 C 277.503 -0.681333 -4.18997 0
M  V30 2950 C 275.41 -2.79475 -5.21198 0
M  V30 2951 H 274.34 -0.209966 -0.724176 0
M  V30 2952 H 276.991 -1.13403 -1.44263 0
M  V30 2953 H 275.373 -0.336983 -3.94564 0
M  V30 2954 H 276.547 -3.13829 -3.37414 0
M  V30 2955 H 274.862 -2.71802 -3.15456 0
M  V30 2956 H 277.459 -0.910939 -5.26883 0
M  V30 2957 H 277.802 0.381628 -4.14547 0
M  V30 2958 H 278.335 -1.27473 -3.76823 0
M  V30 2959 H 275.074 -3.847 -5.30741 0
M  V30 2960 H 274.594 -2.1589 -5.596 0
M  V30 2961 H 276.273 -2.67478 -5.89122 0
M  V30 2962 N 276.405 1.4127 -0.698611 0
M  V30 2963 C 277.821 1.55241 -0.370462 0
M  V30 2964 C 278.021 1.67351 1.12231 0
M  V30 2965 O 277.077 1.65363 1.90818 0
M  V30 2966 C 278.39 2.78997 -1.12165 0
M  V30 2967 C 279.938 2.92797 -1.1063 0
M  V30 2968 C 280.413 4.19445 -1.8393 0
M  V30 2969 N 281.904 4.26409 -1.80914 0
M  V30 2970 C 282.639 5.23271 -2.34467 0
M  V30 2971 N 282.135 6.26145 -2.96504 0
M  V30 2972 N 283.928 5.15232 -2.24706 0
M  V30 2973 H 276.079 1.31654 -1.66676 0
M  V30 2974 H 278.342 0.635393 -0.703548 0
M  V30 2975 H 278.048 2.76268 -2.17644 0
M  V30 2976 H 277.922 3.70606 -0.702209 0
M  V30 2977 H 280.309 2.95039 -0.0597713 0
M  V30 2978 H 280.39 2.02353 -1.56483 0
M  V30 2979 H 280.034 4.17964 -2.88563 0
M  V30 2980 H 279.964 5.08866 -1.35509 0
M  V30 2981 H 282.455 3.527 -1.35687 0
M  V30 2982 H 282.768 6.96451 -3.34927 0
M  V30 2983 H 281.113 6.26638 -3.00583 0
M  V30 2984 H 284.304 4.33789 -1.7591 0
M  V30 2985 H 284.477 5.90552 -2.66745 0
M  V30 2986 N 277.883 0.443576 1.51229 0
M  V30 2987 C 278.846 -0.353132 2.26463 0
M  V30 2988 C 279.846 -0.944338 1.3015 0
M  V30 2989 O 281.036 -0.817813 1.5381 0
M  V30 2990 C 278.168 -1.50023 3.06114 0
M  V30 2991 H 279.361 0.3063 2.98332 0
M  V30 2992 H 276.914 0.196902 1.55055 0
M  V30 2993 H 277.649 -2.19553 2.38677 0
M  V30 2994 H 277.434 -1.08241 3.76864 0
M  V30 2995 H 278.924 -2.06296 3.63087 0
M  V30 2996 O 279.4 -1.58373 0.316273 0
M  V30 2997 H 280.091 -1.92143 -0.24513 0
M  V30 END ATOM
M  V30 BEGIN BOND
M  V30 END BOND
M  V30 END CTAB
M  END
$$$$
