drugbank_target|Q02155 Hexokinase (DB11638)
 OpenBabel12092121113D

  0  0  0     0  0            999 V3000
M  V30 BEGIN CTAB
M  V30 COUNTS 7747 7830 0 0 0
M  V30 BEGIN ATOM
M  V30 1 H -0.908 1.98254 -0.117106 0
M  V30 2 N 0 1.576 0 0
M  V30 3 C 0.933 2.03868 1.02534 0
M  V30 4 C 1.911 0.928543 1.3348 0
M  V30 5 O 3.095 1.19667 1.45644 0
M  V30 6 C 0.222 2.43627 2.35294 0
M  V30 7 C -0.732 3.65373 2.2001 0
M  V30 8 S 0.101 5.13292 1.52614 0
M  V30 9 C 1.257 5.56322 2.86805 0
M  V30 10 H 1.49 2.90518 0.631377 0
M  V30 11 H -0.977 1.52953 0.210867 0
M  V30 12 H 0.981 2.67203 3.11629 0
M  V30 13 H -0.358 1.57376 2.7183 0
M  V30 14 H -1.165 3.90944 3.18086 0
M  V30 15 H -1.563 3.418 1.51819 0
M  V30 16 H 0.729 5.58782 3.83104 0
M  V30 17 H 1.672 6.56266 2.65933 0
M  V30 18 H 2.08 4.83886 2.90714 0
M  V30 19 N 1.4781 -0.272755 1.55222 0
M  V30 20 C 2.7031 -1.02683 1.80197 0
M  V30 21 C 3.1281 -1.79142 0.573551 0
M  V30 22 O 2.4861 -1.74917 -0.476849 0
M  V30 23 C 2.5341 -1.9609 3.02624 0
M  V30 24 O 1.6381 -3.04863 2.77727 0
M  V30 25 H 0.9791 -0.293557 0.595584 0
M  V30 26 H 3.5091 -0.30159 2.02365 0
M  V30 27 H 3.5191 -2.38039 3.31363 0
M  V30 28 H 2.1941 -1.39851 3.91682 0
M  V30 29 H 0.7711 -2.67228 2.60084 0
M  V30 30 N 2.9562 -1.48159 -0.537278 0
M  V30 31 C 3.8662 -1.64807 -1.6696 0
M  V30 32 C 4.8822 -0.530651 -1.65711 0
M  V30 33 O 6.0582 -0.800784 -1.84796 0
M  V30 34 C 3.1232 -1.67708 -3.03438 0
M  V30 35 C 2.1842 -2.91025 -3.156 0
M  V30 36 C 1.4172 -2.93778 -4.45567 0
M  V30 37 O 1.6402 -2.05153 -5.3223 0
M  V30 38 O 0.5742 -3.85868 -4.61941 0
M  V30 39 H 4.4002 -2.6066 -1.55853 0
M  V30 40 H 1.9852 -1.31475 -0.709549 0
M  V30 41 H 3.8672 -1.7218 -3.84619 0
M  V30 42 H 2.5422 -0.750278 -3.14885 0
M  V30 43 H 1.4492 -2.92089 -2.33741 0
M  V30 44 H 2.7822 -3.83065 -3.09066 0
M  V30 45 N 4.4343 0.785586 -1.36625 0
M  V30 46 C 5.6643 1.5722 -1.34036 0
M  V30 47 C 6.0723 1.89033 0.0795062 0
M  V30 48 O 5.4153 1.50881 1.04789 0
M  V30 49 C 5.4773 2.91759 -2.10041 0
M  V30 50 C 5.1413 2.82654 -3.59104 0
M  V30 51 C 6.1383 2.54634 -4.53274 0
M  V30 52 C 3.8233 3.01111 -4.02042 0
M  V30 53 C 5.8173 2.45177 -5.88359 0
M  V30 54 C 3.5043 2.91276 -5.37216 0
M  V30 55 C 4.5023 2.63348 -6.30188 0
M  V30 56 O 4.1903 2.53514 -7.6288 0
M  V30 57 H 3.9223 0.494177 -0.461265 0
M  V30 58 H 6.4763 0.982632 -1.8037 0
M  V30 59 H 4.7063 3.52781 -1.58375 0
M  V30 60 H 6.3953 3.53059 -2.00261 0
M  V30 61 H 7.1613 2.40073 -4.21414 0
M  V30 62 H 3.0403 3.21854 -3.30047 0
M  V30 63 H 6.5843 2.23299 -6.60896 0
M  V30 64 H 2.4813 3.054 -5.68684 0
M  V30 65 H 3.2493 2.68967 -7.73045 0
M  V30 66 N 5.9124 1.20967 1.01018 0
M  V30 67 C 7.1894 0.93264 1.71934 0
M  V30 68 C 7.5694 -0.55692 2.03621 0
M  V30 69 O 6.9174 -1.52035 1.7058 0
M  V30 70 C 7.1274 1.81233 2.98254 0
M  V30 71 C 8.4754 2.05804 3.71389 0
M  V30 72 O 9.4994 1.78539 3.08225 0
M  V30 73 O 8.3584 2.51888 4.84989 0
M  V30 74 H 5.4524 0.349272 0.749625 0
M  V30 75 H 7.9984 1.31871 1.06808 0
M  V30 76 H 6.7704 2.82067 2.71208 0
M  V30 77 H 6.3934 1.42674 3.7112 0
M  V30 78 N 7.3905 -1.2043 1.01659 0
M  V30 79 C 8.6395 -1.89118 0.701237 0
M  V30 80 C 8.9525 -1.79705 -0.772358 0
M  V30 81 O 10.1585 -2.43528 -1.20026 0
M  V30 82 C 8.6145 -3.39168 1.20388 0
M  V30 83 C 8.2225 -3.57166 2.70438 0
M  V30 84 C 9.9665 -4.1341 0.963953 0
M  V30 85 C 7.8735 -5.01042 3.14183 0
M  V30 86 H 6.8035 -0.708267 0.2586 0
M  V30 87 H 9.4545 -1.36239 1.22927 0
M  V30 88 H 7.8365 -3.91369 0.603824 0
M  V30 89 H 9.0105 -3.15351 3.35992 0
M  V30 90 H 7.3255 -2.96294 2.92572 0
M  V30 91 H 9.9225 -5.19491 1.26621 0
M  V30 92 H 10.2655 -4.16181 -0.099578 0
M  V30 93 H 10.7985 -3.67309 1.52738 0
M  V30 94 H 7.5375 -5.03426 4.19812 0
M  V30 95 H 7.0575 -5.43668 2.53348 0
M  V30 96 H 8.7365 -5.69623 3.0682 0
M  V30 97 N 8.8686 -0.792821 -1.36206 0
M  V30 98 C 9.8316 -0.199459 -2.2833 0
M  V30 99 C 10.8316 0.605189 -1.48977 0
M  V30 100 O 12.0216 0.425685 -1.68919 0
M  V30 101 C 9.1536 0.723523 -3.33134 0
M  V30 102 H 10.3466 -1.01181 -2.82316 0
M  V30 103 H 7.8996 -0.562485 -1.45828 0
M  V30 104 H 8.6346 1.56008 -2.84309 0
M  V30 105 H 8.4196 0.148436 -3.91819 0
M  V30 106 H 9.9096 1.13344 -4.01924 0
M  V30 107 N 10.3467 1.47872 -0.545128 0
M  V30 108 C 11.2937 2.29849 0.2093 0
M  V30 109 C 12.2637 1.38313 0.919707 0
M  V30 110 O 13.4487 1.67277 0.917772 0
M  V30 111 C 10.5887 3.22019 1.24088 0
M  V30 112 C 9.7017 4.2864 0.537778 0
M  V30 113 C 8.8367 5.07973 1.5536 0
M  V30 114 C 7.8757 6.06381 0.8348 0
M  V30 115 N 7.0127 6.78717 1.79688 0
M  V30 116 H 11.8527 2.93845 -0.49591 0
M  V30 117 H 9.3897 1.44848 -0.256389 0
M  V30 118 H 11.3477 3.73868 1.85144 0
M  V30 119 H 9.9777 2.59914 1.91428 0
M  V30 120 H 9.0297 3.7994 -0.187046 0
M  V30 121 H 10.3417 4.98793 -0.0258907 0
M  V30 122 H 9.4957 5.63912 2.23803 0
M  V30 123 H 8.2347 4.37693 2.15118 0
M  V30 124 H 7.2397 5.49631 0.136388 0
M  V30 125 H 8.4647 6.78665 0.24313 0
M  V30 126 H 6.4107 6.11177 2.38326 0
M  V30 127 H 6.3277 7.44998 1.28505 0
M  V30 128 H 7.5957 7.39237 2.47282 0
M  V30 129 N 11.8248 0.280983 1.55075 0
M  V30 130 C 12.7728 -0.619864 2.24188 0
M  V30 131 C 13.7668 -1.15315 1.24092 0
M  V30 132 O 14.9728 -1.1061 1.42005 0
M  V30 133 H 11.3478 -0.218459 0.719569 0
M  V30 134 H 13.3188 -0.0141831 2.98397 0
M  V30 135 C 12.0678 -1.7899 2.98091 0
M  V30 136 H 11.3908 -1.38874 3.74905 0
M  V30 137 H 12.8308 -2.39672 3.49762 0
M  V30 138 C 11.2898 -2.68192 2.03899 0
M  V30 139 O 11.8198 -3.6872 1.594 0
M  V30 140 N 10.0258 -2.35488 1.70275 0
M  V30 141 H 9.5728 -1.53787 2.06658 0
M  V30 142 H 9.5308 -2.95442 1.07524 0
M  V30 143 N 13.3029 -1.57598 0.00835791 0
M  V30 144 C 14.5799 -1.82172 -0.712235 0
M  V30 145 C 14.9599 -0.887873 -1.9152 0
M  V30 146 O 14.3079 0.06146 -2.28417 0
M  V30 147 C 14.5179 -3.30875 -1.11008 0
M  V30 148 C 15.8659 -3.96826 -1.51044 0
M  V30 149 O 16.8899 -3.35248 -1.20364 0
M  V30 150 O 15.7489 -5.05318 -2.08125 0
M  V30 151 H 12.8429 -0.750435 -0.347529 0
M  V30 152 H 15.3889 -1.69665 0.0344523 0
M  V30 153 H 14.1609 -3.90481 -0.252982 0
M  V30 154 H 13.7839 -3.48412 -1.9156 0
M  V30 155 N 14.781 0.264519 -1.55364 0
M  V30 156 C 16.027 0.99646 -1.76631 0
M  V30 157 C 16.36 1.85632 -0.570478 0
M  V30 158 O 15.635 1.89647 0.43175 0
M  V30 159 C 15.918 1.87187 -3.07625 0
M  V30 160 C 15.771 1.04138 -4.37579 0
M  V30 161 C 17.09 2.85749 -3.34717 0
M  V30 162 H 14.209 0.360841 -0.642622 0
M  V30 163 H 16.851 0.268218 -1.88097 0
M  V30 164 H 15.001 2.49279 -2.9798 0
M  V30 165 H 16.673 0.440517 -4.59192 0
M  V30 166 H 14.916 0.345115 -4.32425 0
M  V30 167 H 15.587 1.68729 -5.2558 0
M  V30 168 H 18.063 2.33793 -3.4421 0
M  V30 169 H 16.939 3.44136 -4.27623 0
M  V30 170 H 17.2 3.61311 -2.54768 0
M  V30 171 N 16.2591 1.48442 0.529413 0
M  V30 172 C 17.4871 1.60151 1.30994 0
M  V30 173 C 17.9021 0.261985 1.86973 0
M  V30 174 O 17.2591 -0.748805 1.66431 0
M  V30 175 C 17.3101 2.64854 2.46038 0
M  V30 176 O 17.0311 3.93608 1.92365 0
M  V30 177 C 18.5321 2.87007 3.37849 0
M  V30 178 H 15.7521 0.539971 0.398338 0
M  V30 179 H 18.2961 1.94273 0.638597 0
M  V30 180 H 16.4511 2.33589 3.09055 0
M  V30 181 H 16.8651 4.51055 2.67675 0
M  V30 182 H 18.3391 3.64068 4.14919 0
M  V30 183 H 18.8161 1.95852 3.93114 0
M  V30 184 H 19.4221 3.19579 2.80623 0
M  V30 185 N 17.7372 -0.778329 1.37039 0
M  V30 186 C 18.9672 -1.56507 1.34868 0
M  V30 187 C 19.3752 -1.89072 -0.0694802 0
M  V30 188 O 18.7182 -1.51434 -1.03987 0
M  V30 189 C 18.7802 -2.90641 2.11585 0
M  V30 190 C 18.4442 -2.80746 3.60598 0
M  V30 191 C 19.4412 -2.52226 4.54618 0
M  V30 192 C 17.1262 -2.98974 4.03633 0
M  V30 193 C 19.1202 -2.42054 5.89651 0
M  V30 194 C 16.8072 -2.88423 5.38754 0
M  V30 195 C 17.8052 -2.60002 6.31576 0
M  V30 196 O 17.4932 -2.49465 7.64214 0
M  V30 197 H 17.2252 -0.491723 0.463879 0
M  V30 198 H 19.7792 -0.973053 1.80889 0
M  V30 199 H 18.0092 -3.51936 1.60243 0
M  V30 200 H 19.6982 -3.51992 2.0213 0
M  V30 201 H 20.4642 -2.37835 4.22681 0
M  V30 202 H 16.3432 -3.20099 3.31749 0
M  V30 203 H 19.8872 -2.19791 6.62071 0
M  V30 204 H 15.7842 -3.0238 5.70295 0
M  V30 205 H 16.5522 -2.64864 7.74461 0
M  V30 206 N 19.2153 -1.21501 -1.00376 0
M  V30 207 C 20.4433 -1.059 -1.77744 0
M  V30 208 C 20.8583 0.391125 -1.84704 0
M  V30 209 O 20.2153 1.27133 -1.30933 0
M  V30 210 C 20.2663 -1.65111 -3.21591 0
M  V30 211 O 19.9873 -3.0445 -3.15027 0
M  V30 212 C 21.4883 -1.54637 -4.15454 0
M  V30 213 H 18.7083 -0.371825 -0.558558 0
M  V30 214 H 21.2523 -1.60865 -1.26264 0
M  V30 215 H 19.4073 -1.14235 -3.70175 0
M  V30 216 H 19.8213 -3.3278 -4.0541 0
M  V30 217 H 21.2953 -2.00808 -5.14179 0
M  V30 218 H 21.7723 -0.501022 -4.36333 0
M  V30 219 H 22.3783 -2.04767 -3.72761 0
M  V30 220 N 20.6934 1.19889 -1.02296 0
M  V30 221 C 21.6404 2.22901 -0.598651 0
M  V30 222 C 22.6104 1.61588 0.384521 0
M  V30 223 O 23.7954 1.88697 0.282522 0
M  V30 224 C 20.9354 3.45063 0.0504476 0
M  V30 225 C 20.0484 4.20783 -0.978053 0
M  V30 226 C 19.1834 5.30356 -0.299338 0
M  V30 227 C 18.2224 5.97826 -1.31416 0
M  V30 228 N 17.3594 6.98975 -0.661667 0
M  V30 229 H 22.1994 2.58554 -1.48169 0
M  V30 230 H 19.7364 1.27039 -0.741584 0
M  V30 231 H 21.6944 4.14831 0.443971 0
M  V30 232 H 20.3244 3.10084 0.897097 0
M  V30 233 H 19.3764 3.50018 -1.48969 0
M  V30 234 H 20.6884 4.67109 -1.74958 0
M  V30 235 H 19.8424 6.06516 0.149347 0
M  V30 236 H 18.5814 4.85084 0.504445 0
M  V30 237 H 17.5864 5.20422 -1.77317 0
M  V30 238 H 18.8114 6.45183 -2.11933 0
M  V30 239 H 16.7574 6.55886 0.122132 0
M  V30 240 H 16.6744 7.43461 -1.37117 0
M  V30 241 H 17.9424 7.7914 -0.236785 0
M  V30 242 N 22.1715 0.800033 1.35784 0
M  V30 243 C 23.1015 0.220184 2.3246 0
M  V30 244 C 24.0825 -0.65073 1.57161 0
M  V30 245 O 25.2675 -0.582359 1.85263 0
M  V30 246 C 22.3975 -0.637353 3.41402 0
M  V30 247 C 21.3515 0.134531 4.27789 0
M  V30 248 C 20.6775 -0.844285 5.27992 0
M  V30 249 C 21.9775 1.32979 5.05088 0
M  V30 250 H 23.6715 1.02787 2.81203 0
M  V30 251 H 21.2175 0.495717 1.35199 0
M  V30 252 H 23.1705 -1.05302 4.08031 0
M  V30 253 H 21.8945 -1.47785 2.91251 0
M  V30 254 H 20.5535 0.531296 3.6273 0
M  V30 255 H 20.2015 -1.68011 4.74111 0
M  V30 256 H 19.9015 -0.332184 5.8666 0
M  V30 257 H 21.4255 -1.2583 5.97494 0
M  V30 258 H 22.8395 0.98934 5.64699 0
M  V30 259 H 21.2365 1.77593 5.7322 0
M  V30 260 H 22.3065 2.11978 4.36111 0
M  V30 261 N 23.6496 -1.47581 0.552962 0
M  V30 262 C 24.9266 -1.95563 -0.0381515 0
M  V30 263 C 25.3066 -1.49552 -1.48988 0
M  V30 264 O 24.6546 -0.732414 -2.16444 0
M  V30 265 C 24.8646 -3.48848 0.102919 0
M  V30 266 C 26.2126 -4.24577 -0.0446082 0
M  V30 267 O 27.2366 -3.56187 0.0302548 0
M  V30 268 O 26.0956 -5.46116 -0.204923 0
M  V30 269 H 23.1896 -0.824321 -0.0665067 0
M  V30 270 H 25.7356 -1.58001 0.619186 0
M  V30 271 H 24.5076 -3.75129 1.11328 0
M  V30 272 H 24.1306 -3.93165 -0.592224 0
M  V30 273 N 25.1277 -0.289203 -1.54924 0
M  V30 274 C 26.3557 0.326463 -2.04308 0
M  V30 275 C 26.7707 1.48413 -1.16701 0
M  V30 276 O 26.1277 1.81507 -0.190087 0
M  V30 277 C 26.1787 0.794014 -3.52672 0
M  V30 278 O 25.8997 -0.317564 -4.36948 0
M  V30 279 C 27.4007 1.47605 -4.18004 0
M  V30 280 H 24.6207 0.0726272 -0.667058 0
M  V30 281 H 27.1647 -0.425401 -2.00026 0
M  V30 282 H 25.3197 1.49593 -3.57352 0
M  V30 283 H 25.7337 0.0443186 -5.24481 0
M  V30 284 H 27.2077 1.75447 -5.23376 0
M  V30 285 H 27.6847 2.41224 -3.67025 0
M  V30 286 H 28.2907 0.81762 -4.17367 0
M  V30 287 N 26.6058 1.57591 -0.0167156 0
M  V30 288 C 27.8548 1.90461 0.663877 0
M  V30 289 C 28.1678 0.893515 1.73999 0
M  V30 290 O 29.3738 1.11302 2.47637 0
M  V30 291 C 27.8298 3.38155 1.23204 0
M  V30 292 C 27.4378 4.47597 0.189866 0
M  V30 293 C 29.1818 3.80111 1.88986 0
M  V30 294 C 27.0888 5.86379 0.768964 0
M  V30 295 H 26.0188 0.710738 0.251729 0
M  V30 296 H 28.6698 1.83326 -0.0799926 0
M  V30 297 H 27.0518 3.40182 2.02712 0
M  V30 298 H 28.2258 4.57112 -0.581846 0
M  V30 299 H 26.5408 4.14766 -0.368475 0
M  V30 300 H 29.1378 4.81145 2.33247 0
M  V30 301 H 29.4808 3.14511 2.72743 0
M  V30 302 H 30.0138 3.80454 1.16187 0
M  V30 303 H 26.7528 6.55493 -0.0301957 0
M  V30 304 H 26.2728 5.80496 1.50945 0
M  V30 305 H 27.9518 6.34563 1.26251 0
M  V30 306 N 28.0839 -0.256276 1.55502 0
M  V30 307 C 28.9939 -1.33882 1.92647 0
M  V30 308 C 30.0099 -1.53159 0.825727 0
M  V30 309 O 31.1859 -1.66963 1.12629 0
M  V30 310 C 28.2509 -2.6751 2.20543 0
M  V30 311 C 27.3119 -2.56836 3.43997 0
M  V30 312 C 26.5449 -3.84092 3.70553 0
M  V30 313 O 26.7679 -4.85545 2.99336 0
M  V30 314 O 25.7019 -3.83288 4.64084 0
M  V30 315 H 29.5279 -1.05374 2.84833 0
M  V30 316 H 27.1129 -0.456237 1.42263 0
M  V30 317 H 28.9949 -3.46492 2.39835 0
M  V30 318 H 27.6699 -2.9577 1.31536 0
M  V30 319 H 26.5769 -1.76172 3.30021 0
M  V30 320 H 27.9099 -2.33523 4.33275 0
M  V30 321 N 29.562 -1.4872 -0.521534 0
M  V30 322 C 30.802 -1.58771 -1.28729 0
M  V30 323 C 31.166 -0.259394 -1.9024 0
M  V30 324 O 32.367 -0.234942 -2.67771 0
M  V30 325 C 30.638 -2.70039 -2.34124 0
M  V30 326 S 32.197 -2.9991 -3.20312 0
M  V30 327 H 29.015 -0.560251 -0.437767 0
M  V30 328 H 31.617 -1.86283 -0.593188 0
M  V30 329 H 30.321 -3.65101 -1.87429 0
M  V30 330 H 29.852 -2.44455 -3.08229 0
M  V30 331 H 31.867 -2.39855 -4.34378 0
M  V30 332 N 31.0401 0.771051 -1.3745 0
M  V30 333 C 32.3171 1.519 -1.23231 0
M  V30 334 C 32.6971 2.10383 0.173809 0
M  V30 335 O 32.0451 1.95583 1.18151 0
M  V30 336 C 32.2551 2.59933 -2.32886 0
M  V30 337 C 33.6031 3.27316 -2.70461 0
M  V30 338 O 34.6271 2.70228 -2.32068 0
M  V30 339 O 33.4861 4.30531 -3.36608 0
M  V30 340 H 30.5801 0.672803 -0.480901 0
M  V30 341 H 33.1261 0.807957 -1.49232 0
M  V30 342 H 31.8981 2.14842 -3.27045 0
M  V30 343 H 31.5211 3.38637 -2.08353 0
M  V30 344 N 32.5182 1.22032 0.997298 0
M  V30 345 C 33.7672 1.03637 1.73038 0
M  V30 346 C 34.0802 -0.429475 1.90827 0
M  V30 347 O 35.2862 -0.732995 2.61418 0
M  V30 348 C 33.7422 1.80582 3.11317 0
M  V30 349 C 33.3502 3.31387 3.01474 0
M  V30 350 C 35.0942 1.70621 3.88701 0
M  V30 351 C 33.0012 4.00791 4.3488 0
M  V30 352 H 31.9312 0.384179 0.648785 0
M  V30 353 H 34.5822 1.4584 1.11368 0
M  V30 354 H 32.9642 1.31175 3.73643 0
M  V30 355 H 34.1382 3.88155 2.4834 0
M  V30 356 H 32.4532 3.41976 2.37575 0
M  V30 357 H 35.0502 2.19799 4.87434 0
M  V30 358 H 35.3932 0.665823 4.10941 0
M  V30 359 H 35.9262 2.17547 3.33044 0
M  V30 360 H 32.6652 5.05064 4.1784 0
M  V30 361 H 32.1852 3.48811 4.87945 0
M  V30 362 H 33.8642 4.06139 5.03647 0
M  V30 363 N 33.9963 -1.19345 1.0293 0
M  V30 364 C 35.4073 -1.70725 0.755633 0
M  V30 365 C 35.7583 -1.82326 -0.724676 0
M  V30 366 O 34.8833 -1.49471 -1.56484 0
M  V30 367 C 35.4783 -3.10084 1.36503 0
M  V30 368 C 34.0373 -3.58723 1.13994 0
M  V30 369 C 33.1843 -2.35577 1.46283 0
M  V30 370 H 36.1353 -1.0418 1.19718 0
M  V30 371 H 36.1563 -3.72787 0.762217 0
M  V30 372 H 35.6683 -3.01609 2.44241 0
M  V30 373 H 33.7693 -3.72512 0.0807901 0
M  V30 374 H 33.8823 -4.42816 1.82894 0
M  V30 375 H 32.2463 -2.38935 0.88217 0
M  V30 376 H 33.0293 -2.29731 2.55105 0
M  V30 377 N 35.4744 -0.807222 -1.35358 0
M  V30 378 C 36.7234 -0.384376 -1.98004 0
M  V30 379 C 37.0364 1.0543 -1.64754 0
M  V30 380 O 38.2424 1.58029 -2.20769 0
M  V30 381 C 36.6984 -0.636326 -3.5423 0
M  V30 382 C 36.3064 -2.08759 -3.96388 0
M  V30 383 C 38.0504 -0.278869 -4.23583 0
M  V30 384 C 35.9574 -2.28525 -5.45463 0
M  V30 385 H 34.8874 -0.139986 -0.740891 0
M  V30 386 H 37.5384 -0.991369 -1.54415 0
M  V30 387 H 35.9204 0.0406256 -3.95979 0
M  V30 388 H 37.0944 -2.8024 -3.6579 0
M  V30 389 H 35.4094 -2.40497 -3.39926 0
M  V30 390 H 38.0064 -0.404599 -5.33167 0
M  V30 391 H 38.3494 0.775012 -4.09022 0
M  V30 392 H 38.8824 -0.909764 -3.87257 0
M  V30 393 H 35.6214 -3.32361 -5.64992 0
M  V30 394 H 35.1414 -1.61569 -5.77629 0
M  V30 395 H 36.8204 -2.10109 -6.11934 0
M  V30 396 N 36.9525 1.47285 -0.560781 0
M  V30 397 C 37.9005 2.31756 0.197942 0
M  V30 398 C 38.8945 1.43146 0.905854 0
M  V30 399 O 40.1005 1.59891 0.826733 0
M  V30 400 H 36.4755 0.747438 0.0827049 0
M  V30 401 H 38.4465 2.9359 -0.533629 0
M  V30 402 C 37.1955 3.25874 1.21249 0
M  V30 403 H 36.5185 3.94023 0.67719 0
M  V30 404 H 37.9585 3.87803 1.71419 0
M  V30 405 C 36.4175 2.49651 2.26221 0
M  V30 406 O 36.9475 2.24355 3.33208 0
M  V30 407 N 35.1535 2.10597 2.00243 0
M  V30 408 H 34.7005 2.31369 1.13252 0
M  V30 409 H 34.6585 1.59913 2.70694 0
M  V30 410 N 38.4306 0.297415 1.54768 0
M  V30 411 C 39.3406 -0.58983 2.27064 0
M  V30 412 C 40.3566 -1.15144 1.30453 0
M  V30 413 O 41.5326 -1.17699 1.63428 0
M  V30 414 C 38.5976 -1.74714 2.9946 0
M  V30 415 C 37.6586 -1.21997 4.11601 0
M  V30 416 C 36.8916 -2.32212 4.80535 0
M  V30 417 O 37.1146 -3.52036 4.48806 0
M  V30 418 O 36.0486 -1.99106 5.68014 0
M  V30 419 H 39.8746 -0.00348199 3.037 0
M  V30 420 H 37.4596 0.0640035 1.49263 0
M  V30 421 H 39.3416 -2.42147 3.44881 0
M  V30 422 H 38.0166 -2.32016 2.25722 0
M  V30 423 H 36.9236 -0.511458 3.70587 0
M  V30 424 H 38.2566 -0.692419 4.87305 0
M  V30 425 N 39.9087 -1.5758 0.0250728 0
M  V30 426 C 40.8187 -2.1343 -0.973905 0
M  V30 427 C 41.8347 -1.08556 -1.35984 0
M  V30 428 O 43.0107 -1.40592 -1.44207 0
M  V30 429 C 40.0757 -2.64703 -2.23904 0
M  V30 430 C 39.1367 -3.84276 -1.91391 0
M  V30 431 C 38.3697 -4.33095 -3.11873 0
M  V30 432 O 38.5927 -3.81107 -4.24398 0
M  V30 433 O 37.5267 -5.24984 -2.94406 0
M  V30 434 H 41.3527 -2.99057 -0.529036 0
M  V30 435 H 38.9377 -1.48118 -0.195288 0
M  V30 436 H 40.8197 -2.97769 -2.98181 0
M  V30 437 H 39.4947 -1.82161 -2.6758 0
M  V30 438 H 38.4017 -3.56143 -1.14511 0
M  V30 439 H 39.7347 -4.67968 -1.52534 0
M  V30 440 N 41.3868 0.248026 -1.55636 0
M  V30 441 C 42.3168 1.31079 -1.93237 0
M  V30 442 C 43.2978 1.50264 -0.797174 0
M  V30 443 O 44.4828 1.62891 -1.05737 0
M  V30 444 C 41.6128 2.66575 -2.22609 0
M  V30 445 C 40.5668 2.62087 -3.3837 0
M  V30 446 C 39.8928 4.01369 -3.53281 0
M  V30 447 C 41.1928 2.19171 -4.7409 0
M  V30 448 H 42.8868 0.998556 -2.82257 0
M  V30 449 H 40.4328 0.47891 -1.35803 0
M  V30 450 H 42.3858 3.41057 -2.47503 0
M  V30 451 H 41.1098 2.99432 -1.30414 0
M  V30 452 H 39.7688 1.90063 -3.13483 0
M  V30 453 H 39.4168 4.31489 -2.58508 0
M  V30 454 H 39.1168 3.99254 -4.31127 0
M  V30 455 H 40.6408 4.77552 -3.80495 0
M  V30 456 H 42.0548 2.83384 -4.98363 0
M  V30 457 H 40.4518 2.2817 -5.5503 0
M  V30 458 H 41.5218 1.14336 -4.71227 0
M  V30 459 N 42.8649 1.48995 0.513639 0
M  V30 460 C 44.0899 1.61792 1.29762 0
M  V30 461 C 44.5149 0.284475 1.85936 0
M  V30 462 O 43.8729 -0.746185 1.65232 0
M  V30 463 C 43.9209 2.67993 2.41272 0
M  V30 464 O 43.0249 2.26287 3.44772 0
M  V30 465 H 42.3659 0.541963 0.38363 0
M  V30 466 H 44.8959 1.95097 0.616307 0
M  V30 467 H 44.9059 2.89772 2.87221 0
M  V30 468 H 43.5809 3.64791 1.9975 0
M  V30 469 H 42.1579 2.14788 3.04829 0
M  V30 470 N 44.343 -0.763751 1.37857 0
M  V30 471 C 45.589 -1.52396 1.3471 0
M  V30 472 C 45.944 -1.92288 -0.0656435 0
M  V30 473 O 45.237 -1.6181 -1.02606 0
M  V30 474 C 45.431 -2.79499 2.22745 0
M  V30 475 C 45.26 -2.52031 3.72438 0
M  V30 476 C 44.03 -2.45759 4.4151 0
M  V30 477 C 46.228 -2.19489 4.65112 0
M  V30 478 N 44.21 -2.1046 5.76697 0
M  V30 479 C 45.581 -1.94396 5.88736 0
M  V30 480 C 47.636 -2.05712 4.53417 0
M  V30 481 C 46.339 -1.56917 7.01975 0
M  V30 482 C 48.365 -1.69634 5.66549 0
M  V30 483 C 47.727 -1.45407 6.89229 0
M  V30 484 H 43.826 -0.55765 0.548225 0
M  V30 485 H 46.41 -0.890302 1.73152 0
M  V30 486 H 44.581 -3.4069 1.86507 0
M  V30 487 H 46.313 -3.45465 2.10798 0
M  V30 488 H 43.068 -2.61885 3.94605 0
M  V30 489 H 43.492 -1.95484 6.48163 0
M  V30 490 H 48.134 -2.23123 3.59133 0
M  V30 491 H 45.852 -1.38246 7.96187 0
M  V30 492 H 49.438 -1.59621 5.59475 0
M  V30 493 H 48.318 -1.17904 7.75286 0
M  V30 494 N 45.8211 -1.22559 -0.990812 0
M  V30 495 C 47.2371 -0.985996 -1.255 0
M  V30 496 C 47.4371 0.319173 -1.98956 0
M  V30 497 O 46.4931 1.04127 -2.3003 0
M  V30 498 C 47.8061 -2.18607 -2.06474 0
M  V30 499 C 49.3541 -2.22985 -2.19651 0
M  V30 500 C 49.8291 -3.4255 -3.04012 0
M  V30 501 N 51.3201 -3.42725 -3.11599 0
M  V30 502 C 52.0551 -4.31892 -3.7717 0
M  V30 503 N 51.5511 -5.31279 -4.44651 0
M  V30 504 N 53.3441 -4.19662 -3.73952 0
M  V30 505 H 45.4951 -2.06469 -0.49841 0
M  V30 506 H 47.7581 -0.904853 -0.282747 0
M  V30 507 H 47.4641 -3.13267 -1.59865 0
M  V30 508 H 47.3381 -2.18838 -3.07229 0
M  V30 509 H 49.7251 -1.28871 -2.65474 0
M  V30 510 H 49.8061 -2.26791 -1.18319 0
M  V30 511 H 49.4501 -4.36965 -2.58889 0
M  V30 512 H 49.3801 -3.35984 -4.0549 0
M  V30 513 H 51.8711 -2.70807 -2.63575 0
M  V30 514 H 52.1841 -5.95593 -4.92431 0
M  V30 515 H 50.5291 -5.3519 -4.43392 0
M  V30 516 H 53.7201 -3.41268 -3.20396 0
M  V30 517 H 53.8931 -4.89358 -4.24774 0
M  V30 518 N 47.2992 1.18797 -1.03562 0
M  V30 519 C 48.5482 1.87978 -0.731235 0
M  V30 520 C 48.8612 1.80911 0.743671 0
M  V30 521 O 50.0672 2.45407 1.16137 0
M  V30 522 C 48.5232 3.3721 -1.25768 0
M  V30 523 C 48.1312 3.52818 -2.76085 0
M  V30 524 C 49.8752 4.11825 -1.0296 0
M  V30 525 C 47.7822 4.9598 -3.22114 0
M  V30 526 H 46.7122 0.704063 -0.269835 0
M  V30 527 H 49.3632 1.34266 -1.25079 0
M  V30 528 H 47.7452 3.90359 -0.666011 0
M  V30 529 H 48.9192 3.09965 -3.40966 0
M  V30 530 H 47.2342 2.91602 -2.97249 0
M  V30 531 H 49.8312 5.17411 -1.34869 0
M  V30 532 H 50.1742 4.16287 0.0333546 0
M  V30 533 H 50.7072 3.64833 -1.58562 0
M  V30 534 H 47.4462 4.96684 -4.27768 0
M  V30 535 H 46.9662 5.39569 -2.61965 0
M  V30 536 H 48.6452 5.6467 -3.15844 0
M  V30 537 N 48.7773 0.814389 1.34928 0
M  V30 538 C 49.7253 0.218424 2.31572 0
M  V30 539 C 50.7193 -0.636128 1.57002 0
M  V30 540 O 51.9253 -0.52842 1.72069 0
M  V30 541 H 48.3003 0.0518799 0.750208 0
M  V30 542 H 50.2713 1.04852 2.79372 0
M  V30 543 C 49.0203 -0.61207 3.4227 0
M  V30 544 H 48.3433 0.0361578 3.99784 0
M  V30 545 H 49.7833 -0.995317 4.12152 0
M  V30 546 C 48.2423 -1.78087 2.85984 0
M  V30 547 O 48.7723 -2.8787 2.80168 0
M  V30 548 N 46.9783 -1.59488 2.42924 0
M  V30 549 H 46.5253 -0.701874 2.47854 0
M  V30 550 H 46.4833 -2.37846 2.05613 0
M  V30 551 N 50.2554 -1.46986 0.568584 0
M  V30 552 C 51.2024 -2.30153 -0.172707 0
M  V30 553 C 52.1724 -1.39759 -0.897586 0
M  V30 554 O 53.3574 -1.68716 -0.891044 0
M  V30 555 C 50.4974 -3.23952 -1.1895 0
M  V30 556 C 49.6104 -4.29441 -0.469517 0
M  V30 557 C 48.7454 -5.1038 -1.47259 0
M  V30 558 C 47.7844 -6.07632 -0.738225 0
M  V30 559 N 46.9214 -6.8149 -1.68868 0
M  V30 560 H 51.7614 -2.93019 0.542596 0
M  V30 561 H 49.2984 -1.44422 0.279401 0
M  V30 562 H 51.2564 -3.76767 -1.79173 0
M  V30 563 H 49.8864 -2.62926 -1.87269 0
M  V30 564 H 48.9384 -3.79594 0.247467 0
M  V30 565 H 50.2504 -4.98689 0.105241 0
M  V30 566 H 49.4044 -5.67402 -2.14803 0
M  V30 567 H 48.1434 -4.4106 -2.08128 0
M  V30 568 H 47.1484 -5.49778 -0.0489293 0
M  V30 569 H 48.3734 -6.78966 -0.135129 0
M  V30 570 H 46.3194 -6.14891 -2.28573 0
M  V30 571 H 46.2364 -7.46948 -1.16636 0
M  V30 572 H 47.5044 -7.43078 -2.3549 0
M  V30 573 N 51.7335 -0.305618 -1.54608 0
M  V30 574 C 52.9805 0.302298 -2.00231 0
M  V30 575 C 53.3085 1.5354 -1.19398 0
M  V30 576 O 52.5635 1.93973 -0.259423 0
M  V30 577 C 52.8625 0.698983 -3.50498 0
M  V30 578 C 52.5285 -0.432903 -4.48817 0
M  V30 579 C 51.1905 -0.743622 -4.75419 0
M  V30 580 C 53.5425 -1.19409 -5.07337 0
M  V30 581 C 50.8705 -1.81857 -5.57804 0
M  V30 582 C 53.2225 -2.25899 -5.90891 0
M  V30 583 C 51.8865 -2.57572 -6.15803 0
M  V30 584 H 51.1565 0.110619 -0.732697 0
M  V30 585 H 53.8035 -0.425674 -1.86709 0
M  V30 586 H 52.1085 1.50711 -3.61654 0
M  V30 587 H 53.8055 1.1806 -3.83227 0
M  V30 588 H 50.3955 -0.18063 -4.28219 0
M  V30 589 H 54.5795 -0.967295 -4.86782 0
M  V30 590 H 49.8355 -2.06864 -5.75341 0
M  V30 591 H 54.0095 -2.85335 -6.35261 0
M  V30 592 H 51.6365 -3.40998 -6.7943 0
M  V30 593 N 53.2116 1.57565 -0.0334293 0
M  V30 594 C 54.4576 1.92262 0.645226 0
M  V30 595 C 54.7906 0.910543 1.71531 0
M  V30 596 O 54.0656 -0.066099 1.94388 0
M  V30 597 C 54.3486 3.37422 1.2577 0
M  V30 598 C 54.2016 4.49369 0.196891 0
M  V30 599 C 55.5206 3.82628 2.17449 0
M  V30 600 H 52.6396 0.699171 0.233085 0
M  V30 601 H 55.2816 1.89779 -0.0915694 0
M  V30 602 H 53.4316 3.39669 1.88566 0
M  V30 603 H 55.1036 4.59254 -0.433962 0
M  V30 604 H 53.3466 4.31168 -0.477137 0
M  V30 605 H 54.0176 5.47978 0.665124 0
M  V30 606 H 56.4936 3.82145 1.64634 0
M  V30 607 H 55.3696 4.84883 2.57254 0
M  V30 608 H 55.6306 3.18376 3.0674 0
M  V30 609 N 54.6897 -0.239769 1.55765 0
M  V30 610 C 55.6377 -1.31668 1.91745 0
M  V30 611 C 56.6317 -1.49462 0.797338 0
M  V30 612 O 57.8377 -1.50852 0.982021 0
M  V30 613 H 54.2127 -0.441048 0.609082 0
M  V30 614 H 56.1837 -0.985923 2.81642 0
M  V30 615 C 54.9327 -2.66368 2.2348 0
M  V30 616 H 54.2557 -2.53478 3.09175 0
M  V30 617 H 55.6957 -3.40578 2.52553 0
M  V30 618 C 54.1547 -3.20002 1.05359 0
M  V30 619 O 54.6847 -4.00538 0.305261 0
M  V30 620 N 52.8907 -2.78126 0.842292 0
M  V30 621 H 52.4377 -2.12742 1.45253 0
M  V30 622 H 52.3957 -3.14354 0.053652 0
M  V30 623 N 56.1678 -1.49265 -0.50573 0
M  V30 624 C 57.0998 -1.617 -1.62437 0
M  V30 625 C 58.1128 -0.499924 -1.54934 0
M  V30 626 O 59.3018 -0.771785 -1.60953 0
M  V30 627 C 56.4018 -1.5533 -3.01207 0
M  V30 628 C 55.5748 -2.8249 -3.33943 0
M  V30 629 C 54.6338 -2.69238 -4.52103 0
M  V30 630 O 53.6598 -3.43167 -4.5412 0
M  V30 631 N 54.8618 -1.80468 -5.51735 0
M  V30 632 H 57.6268 -2.58177 -1.52199 0
M  V30 633 H 55.1878 -1.46294 -0.693511 0
M  V30 634 H 57.1798 -1.44125 -3.78167 0
M  V30 635 H 55.7498 -0.667297 -3.05395 0
M  V30 636 H 54.9698 -3.08081 -2.45926 0
M  V30 637 H 56.2578 -3.66802 -3.5261 0
M  V30 638 H 55.6558 -1.19653 -5.52901 0
M  V30 639 H 54.2128 -1.75188 -6.27816 0
M  V30 640 N 57.6459 0.756429 -1.3826 0
M  V30 641 C 58.5759 1.88374 -1.37976 0
M  V30 642 C 59.5569 1.68311 -0.246082 0
M  V30 643 O 60.7419 1.88944 -0.44874 0
M  V30 644 C 57.8719 3.25864 -1.20125 0
M  V30 645 C 56.8259 3.60523 -2.30666 0
M  V30 646 C 56.1519 4.9672 -1.97923 0
M  V30 647 C 57.4519 3.65692 -3.72916 0
M  V30 648 H 59.1459 1.88869 -2.32312 0
M  V30 649 H 56.6919 0.907272 -1.11824 0
M  V30 650 H 58.6449 4.0438 -1.18552 0
M  V30 651 H 57.3689 3.25841 -0.222498 0
M  V30 652 H 56.0279 2.84324 -2.3142 0
M  V30 653 H 55.6759 4.93253 -0.985393 0
M  V30 654 H 55.3759 5.20878 -2.71955 0
M  V30 655 H 56.8999 5.77618 -1.97964 0
M  V30 656 H 58.3139 4.34328 -3.74208 0
M  V30 657 H 56.7109 4.01358 -4.4613 0
M  V30 658 H 57.7809 2.65987 -4.05436 0
M  V30 659 N 59.124 1.23083 0.984299 0
M  V30 660 C 60.54 0.992637 1.24975 0
M  V30 661 C 60.74 -0.308618 1.99123 0
M  V30 662 O 59.796 -1.02905 2.30579 0
M  V30 663 C 61.109 2.19698 2.05312 0
M  V30 664 C 62.657 2.24147 2.18465 0
M  V30 665 C 63.132 3.44157 3.02192 0
M  V30 666 N 64.623 3.44372 3.09777 0
M  V30 667 C 65.358 4.33886 3.74874 0
M  V30 668 N 64.854 5.3363 4.41827 0
M  V30 669 N 66.647 4.21639 3.71721 0
M  V30 670 H 58.798 2.06731 0.487453 0
M  V30 671 H 61.061 0.906339 0.277944 0
M  V30 672 H 60.767 3.1411 1.58201 0
M  V30 673 H 60.641 2.20465 3.06064 0
M  V30 674 H 63.028 1.30277 2.64786 0
M  V30 675 H 63.109 2.27415 1.17115 0
M  V30 676 H 62.753 4.38332 2.56568 0
M  V30 677 H 62.683 3.3813 4.03702 0
M  V30 678 H 65.174 2.72201 2.62135 0
M  V30 679 H 65.487 5.98196 4.89266 0
M  V30 680 H 63.832 5.37534 4.40548 0
M  V30 681 H 67.023 3.42962 3.18582 0
M  V30 682 H 67.196 4.91604 4.22173 0
M  V30 683 N 60.6021 -1.18246 1.0419 0
M  V30 684 C 61.8511 -1.87588 0.741194 0
M  V30 685 C 62.1641 -1.81303 -0.734066 0
M  V30 686 O 63.3701 -2.46019 -1.14834 0
M  V30 687 C 61.8261 -3.36538 1.27555 0
M  V30 688 C 61.4341 -3.51349 2.77953 0
M  V30 689 C 63.1781 -4.11273 1.05143 0
M  V30 690 C 61.0851 -4.94265 3.2474 0
M  V30 691 H 60.0151 -0.702622 0.273565 0
M  V30 692 H 62.6661 -1.33601 1.25789 0
M  V30 693 H 61.0481 -3.9 0.686703 0
M  V30 694 H 62.2221 -3.08153 3.42605 0
M  V30 695 H 60.5371 -2.90022 2.98791 0
M  V30 696 H 63.1341 -5.16689 1.37611 0
M  V30 697 H 63.4771 -4.16298 -0.0112774 0
M  V30 698 H 64.0101 -3.63987 1.60495 0
M  V30 699 H 60.7491 -4.94408 4.30396 0
M  V30 700 H 60.2691 -5.38172 2.64823 0
M  V30 701 H 61.9481 -5.62987 3.18834 0
M  V30 702 N 62.0802 -0.821533 -1.34494 0
M  V30 703 C 63.3052 -0.420873 -2.03085 0
M  V30 704 C 63.7302 0.964915 -1.61465 0
M  V30 705 O 63.0882 1.62763 -0.798607 0
M  V30 706 C 63.1362 -0.529414 -3.56693 0
M  V30 707 O 62.2402 0.451302 -4.09923 0
M  V30 708 H 61.5812 -0.173489 -0.640935 0
M  V30 709 H 64.1112 -1.11157 -1.71771 0
M  V30 710 H 64.1212 -0.404671 -4.05988 0
M  V30 711 H 62.7962 -1.54014 -3.86332 0
M  V30 712 H 61.3732 0.285558 -3.71805 0
M  V30 713 N 63.5583 1.46682 -0.576371 0
M  V30 714 C 64.7883 2.06498 -0.0648694 0
M  V30 715 C 65.1963 1.42665 1.24271 0
M  V30 716 O 64.5393 0.523886 1.76071 0
M  V30 717 C 64.6013 3.5904 0.181816 0
M  V30 718 C 64.2653 4.45028 -1.0392 0
M  V30 719 C 65.2623 4.81959 -1.94966 0
M  V30 720 C 62.9473 4.86259 -1.25927 0
M  V30 721 C 64.9413 5.58942 -3.06371 0
M  V30 722 C 62.6283 5.63002 -2.37638 0
M  V30 723 C 63.6263 5.99257 -3.2769 0
M  V30 724 O 63.3143 6.7445 -4.37461 0
M  V30 725 H 63.0463 0.674028 -0.0515987 0
M  V30 726 H 65.6003 1.89393 -0.794951 0
M  V30 727 H 63.8303 3.74429 0.966436 0
M  V30 728 H 65.5193 4.00806 0.641047 0
M  V30 729 H 66.2853 4.50689 -1.79177 0
M  V30 730 H 62.1643 4.57494 -0.567448 0
M  V30 731 H 65.7083 5.87158 -3.76684 0
M  V30 732 H 61.6053 5.93686 -2.53392 0
M  V30 733 H 62.3733 6.92867 -4.35749 0
M  V30 734 N 65.0364 0.313813 1.54444 0
M  V30 735 C 66.2614 -0.296681 2.05267 0
M  V30 736 C 66.6864 -1.45757 1.18897 0
M  V30 737 O 66.0444 -1.80239 0.195886 0
M  V30 738 C 66.0924 -0.71831 3.53373 0
M  V30 739 O 65.1964 -1.82175 3.69981 0
M  V30 740 H 64.5374 -0.0554061 0.661684 0
M  V30 741 H 67.0674 0.459387 1.99376 0
M  V30 742 H 67.0774 -1.00364 3.95463 0
M  V30 743 H 65.7524 0.130821 4.15694 0
M  V30 744 H 64.3294 -1.53598 3.39797 0
M  V30 745 N 66.5145 -1.57545 0.0417849 0
M  V30 746 C 67.7425 -1.96624 -0.643928 0
M  V30 747 C 68.1575 -0.918897 -1.64929 0
M  V30 748 O 67.5145 0.0979323 -1.82237 0
M  V30 749 C 67.5655 -3.35781 -1.33914 0
M  V30 750 O 67.2865 -4.365 -0.374048 0
M  V30 751 C 68.7875 -3.89566 -2.1155 0
M  V30 752 H 66.0075 -0.647316 -0.176702 0
M  V30 753 H 68.5515 -2.04229 0.105304 0
M  V30 754 H 66.7065 -3.29357 -2.03968 0
M  V30 755 H 67.1205 -5.17248 -0.869179 0
M  V30 756 H 68.5945 -4.89242 -2.55628 0
M  V30 757 H 69.0715 -3.24488 -2.9598 0
M  V30 758 H 69.6775 -3.99298 -1.46427 0
M  V30 759 N 67.9926 0.231505 -1.5589 0
M  V30 760 C 68.9226 1.29022 -1.94617 0
M  V30 761 C 69.9036 1.4941 -0.813067 0
M  V30 762 O 71.0886 1.6176 -1.07459 0
M  V30 763 C 68.2186 2.64199 -2.25424 0
M  V30 764 C 67.1726 2.58484 -3.41131 0
M  V30 765 C 66.4986 3.97599 -3.57518 0
M  V30 766 C 67.7986 2.1413 -4.76388 0
M  V30 767 H 69.4926 0.968563 -2.83301 0
M  V30 768 H 67.0386 0.464479 -1.36303 0
M  V30 769 H 68.9916 3.38413 -2.51107 0
M  V30 770 H 67.7156 2.98032 -1.33583 0
M  V30 771 H 66.3746 1.86727 -3.15481 0
M  V30 772 H 66.0226 4.28723 -2.6307 0
M  V30 773 H 65.7226 3.94659 -4.35337 0
M  V30 774 H 67.2466 4.7349 -3.85538 0
M  V30 775 H 68.6606 2.78083 -5.01341 0
M  V30 776 H 67.0576 2.2227 -5.57419 0
M  V30 777 H 68.1276 1.09331 -4.72414 0
M  V30 778 N 69.4707 1.49531 0.497807 0
M  V30 779 C 70.3807 1.69176 1.62532 0
M  V30 780 C 71.3967 0.5744 1.64246 0
M  V30 781 O 72.5727 0.849497 1.82608 0
M  V30 782 C 69.6377 1.75695 2.98885 0
M  V30 783 C 68.6987 2.9929 3.07773 0
M  V30 784 C 67.9317 3.05488 4.37622 0
M  V30 785 O 68.1547 2.19192 5.26603 0
M  V30 786 O 67.0887 3.9798 4.51548 0
M  V30 787 H 70.9147 2.647 1.48887 0
M  V30 788 H 68.4997 1.3331 0.674441 0
M  V30 789 H 70.3817 1.82317 3.79919 0
M  V30 790 H 69.0567 0.8335 3.12785 0
M  V30 791 H 67.9637 2.98183 2.25915 0
M  V30 792 H 69.2967 3.91125 2.98801 0
M  V30 793 N 70.9488 -0.749086 1.3866 0
M  V30 794 C 71.8588 -1.89358 1.38494 0
M  V30 795 C 72.8748 -1.71708 0.281476 0
M  V30 796 O 74.0508 -1.94554 0.520643 0
M  V30 797 C 71.1158 -3.24782 1.21316 0
M  V30 798 C 70.1768 -3.54926 2.41508 0
M  V30 799 C 69.4098 -4.83888 2.2514 0
M  V30 800 O 69.6328 -5.56592 1.24746 0
M  V30 801 O 68.5668 -5.13612 3.13826 0
M  V30 802 H 72.3928 -1.92452 2.34938 0
M  V30 803 H 69.9778 -0.894981 1.19626 0
M  V30 804 H 71.8598 -4.05739 1.13814 0
M  V30 805 H 70.5348 -3.2249 0.279592 0
M  V30 806 H 69.4418 -2.74112 2.54585 0
M  V30 807 H 70.7748 -3.61983 3.3351 0
M  V30 808 N 72.4269 -1.23603 -0.977757 0
M  V30 809 C 73.6739 -1.06971 -1.71941 0
M  V30 810 C 74.0019 0.393009 -1.90488 0
M  V30 811 O 73.2569 1.30719 -1.4564 0
M  V30 812 C 73.5559 -1.7433 -3.11999 0
M  V30 813 C 73.2219 -3.24252 -3.13323 0
M  V30 814 C 71.8839 -3.65156 -3.13392 0
M  V30 815 C 74.2359 -4.20141 -3.08433 0
M  V30 816 C 71.5639 -5.00403 -3.0629 0
M  V30 817 C 73.9159 -5.55384 -3.02873 0
M  V30 818 C 72.5799 -5.95647 -3.01265 0
M  V30 819 H 71.8499 -0.391433 -0.629175 0
M  V30 820 H 74.4969 -1.53572 -1.14403 0
M  V30 821 H 72.8019 -1.20096 -3.7294 0
M  V30 822 H 74.4989 -1.58936 -3.68158 0
M  V30 823 H 71.0889 -2.91692 -3.14029 0
M  V30 824 H 75.2729 -3.89547 -3.07517 0
M  V30 825 H 70.5289 -5.3081 -3.03399 0
M  V30 826 H 74.7029 -6.29398 -2.98046 0
M  V30 827 H 72.3299 -7.0041 -2.95516 0
M  V30 828 N 73.905 1.17692 -1.04816 0
M  V30 829 C 75.151 1.88137 -0.75711 0
M  V30 830 C 75.484 1.80604 0.713841 0
M  V30 831 O 74.759 1.21146 1.52164 0
M  V30 832 C 75.042 3.38318 -1.2334 0
M  V30 833 C 74.895 3.54622 -2.76701 0
M  V30 834 C 76.214 4.32214 -0.829415 0
M  V30 835 H 73.333 0.683163 -0.27651 0
M  V30 836 H 75.975 1.38424 -1.30149 0
M  V30 837 H 74.125 3.80787 -0.770286 0
M  V30 838 H 75.797 3.21194 -3.31107 0
M  V30 839 H 74.04 2.97026 -3.16161 0
M  V30 840 H 74.711 4.60028 -3.05088 0
M  V30 841 H 77.187 3.97565 -1.22805 0
M  V30 842 H 76.063 5.35838 -1.19033 0
M  V30 843 H 76.324 4.41294 0.266891 0
M  V30 844 N 75.3831 0.828654 1.34056 0
M  V30 845 C 76.6601 0.341809 1.9259 0
M  V30 846 C 77.0401 -1.17158 1.75605 0
M  V30 847 O 76.3881 -1.98132 1.13824 0
M  V30 848 C 76.5981 0.777453 3.4023 0
M  V30 849 C 77.9461 0.779579 4.17382 0
M  V30 850 O 78.9701 0.7204 3.48839 0
M  V30 851 O 77.8291 0.857996 5.39723 0
M  V30 852 H 74.9231 0.0946085 0.821571 0
M  V30 853 H 77.4691 0.913827 1.42994 0
M  V30 854 H 76.2411 1.8196 3.46419 0
M  V30 855 H 75.8641 0.181444 3.97186 0
M  V30 856 N 76.8612 -1.46375 0.584142 0
M  V30 857 C 77.8092 -2.32042 -0.161047 0
M  V30 858 C 78.8032 -1.44569 -0.882966 0
M  V30 859 O 80.0092 -1.61186 -0.801191 0
M  V30 860 H 76.3842 -0.748659 -0.0708033 0
M  V30 861 H 78.3552 -2.92704 0.580269 0
M  V30 862 C 77.1042 -3.27762 -1.1605 0
M  V30 863 H 76.4272 -3.95051 -0.614419 0
M  V30 864 H 77.8672 -3.90481 -1.65228 0
M  V30 865 C 76.3262 -2.53218 -2.22221 0
M  V30 866 O 76.8562 -2.29628 -3.29597 0
M  V30 867 N 75.0622 -2.13756 -1.96868 0
M  V30 868 H 74.6092 -2.33142 -1.09557 0
M  V30 869 H 74.5672 -1.642 -2.68115 0
M  V30 870 N 78.3393 -0.321999 -1.54275 0
M  V30 871 C 79.5863 0.281044 -2.0054 0
M  V30 872 C 79.9143 1.52265 -1.21019 0
M  V30 873 O 79.1693 1.93687 -0.279982 0
M  V30 874 C 79.4683 0.661769 -3.5122 0
M  V30 875 C 79.1343 -0.480482 -4.48333 0
M  V30 876 C 77.7963 -0.794005 -4.74604 0
M  V30 877 C 80.1483 -1.24783 -5.06042 0
M  V30 878 C 77.4763 -1.87763 -5.55844 0
M  V30 879 C 79.8283 -2.32153 -5.88462 0
M  V30 880 C 78.4923 -2.64089 -6.13036 0
M  V30 881 H 77.7623 0.102841 -0.733829 0
M  V30 882 H 80.4093 -0.445453 -1.86247 0
M  V30 883 H 78.7143 1.46867 -3.63232 0
M  V30 884 H 80.4113 1.13989 -3.84457 0
M  V30 885 H 77.0013 -0.226039 -4.28004 0
M  V30 886 H 81.1853 -1.01887 -4.85729 0
M  V30 887 H 76.4413 -2.12954 -5.73115 0
M  V30 888 H 80.6153 -2.92057 -6.32199 0
M  V30 889 H 78.2423 -3.48185 -6.75775 0
M  V30 890 N 79.8174 1.5752 -0.0501392 0
M  V30 891 C 81.0634 1.92936 0.624798 0
M  V30 892 C 81.3964 0.928685 1.70555 0
M  V30 893 O 80.6714 -0.0454779 1.94447 0
M  V30 894 C 80.9544 3.38737 1.22185 0
M  V30 895 C 80.8074 4.49552 0.149218 0
M  V30 896 C 82.1264 3.84913 2.13378 0
M  V30 897 H 79.2454 0.701604 0.225657 0
M  V30 898 H 81.8874 1.89671 -0.111693 0
M  V30 899 H 80.0374 3.4165 1.84953 0
M  V30 900 H 81.7094 4.58768 -0.482648 0
M  V30 901 H 79.9524 4.30638 -0.522841 0
M  V30 902 H 80.6234 5.48653 0.606966 0
M  V30 903 H 83.0994 3.8387 1.60572 0
M  V30 904 H 81.9754 4.87584 2.52097 0
M  V30 905 H 82.2364 3.21611 3.03346 0
M  V30 906 N 81.2955 -0.223234 1.56011 0
M  V30 907 C 82.5255 -0.963413 1.82762 0
M  V30 908 C 82.9335 -1.78516 0.626804 0
M  V30 909 O 82.2765 -1.78974 -0.414014 0
M  V30 910 C 82.3385 -1.93126 3.0322 0
M  V30 911 C 82.0025 -1.2942 4.38291 0
M  V30 912 C 82.9995 -0.684916 5.15369 0
M  V30 913 C 80.6845 -1.30647 4.85012 0
M  V30 914 C 82.6785 -0.0963971 6.37327 0
M  V30 915 C 80.3655 -0.71411 6.06913 0
M  V30 916 C 81.3635 -0.110123 6.82911 0
M  V30 917 O 81.0515 0.47303 8.02507 0
M  V30 918 H 80.7835 -0.288011 0.611576 0
M  V30 919 H 83.3375 -0.244103 2.03944 0
M  V30 920 H 81.5675 -2.68952 2.77852 0
M  V30 921 H 83.2565 -2.53685 3.16857 0
M  V30 922 H 84.0225 -0.667774 4.80381 0
M  V30 923 H 79.9015 -1.76598 4.25833 0
M  V30 924 H 83.4455 0.375657 6.96588 0
M  V30 925 H 79.3425 -0.728659 6.41374 0
M  V30 926 H 80.1105 0.367186 8.17676 0
M  V30 927 N 82.7736 -1.49793 -0.48987 0
M  V30 928 C 83.6836 -1.70036 -1.61632 0
M  V30 929 C 84.6996 -0.583102 -1.63939 0
M  V30 930 O 85.8756 -0.859169 -1.82154 0
M  V30 931 C 82.9406 -1.77277 -2.97949 0
M  V30 932 C 82.0016 -3.00918 -3.06181 0
M  V30 933 C 81.2346 -3.07804 -4.35996 0
M  V30 934 O 81.4576 -2.21982 -5.25433 0
M  V30 935 O 80.3916 -4.00369 -4.49431 0
M  V30 936 H 84.2176 -2.65486 -1.47482 0
M  V30 937 H 81.8026 -1.33666 -0.667362 0
M  V30 938 H 83.6846 -1.84329 -3.78947 0
M  V30 939 H 82.3596 -0.850076 -3.12339 0
M  V30 940 H 81.2666 -2.99377 -2.2433 0
M  V30 941 H 82.5996 -3.92704 -2.96723 0
M  V30 942 N 84.2517 0.741722 -1.39055 0
M  V30 943 C 85.1817 1.869 -1.39966 0
M  V30 944 C 86.1627 1.6804 -0.26392 0
M  V30 945 O 87.3477 1.88458 -0.468755 0
M  V30 946 C 84.4777 3.24572 -1.23574 0
M  V30 947 C 83.4317 3.58056 -2.34477 0
M  V30 948 C 82.7577 4.94593 -2.0318 0
M  V30 949 C 84.0577 3.61716 -3.76774 0
M  V30 950 H 85.7517 1.86395 -2.34302 0
M  V30 951 H 83.2977 0.895361 -1.1278 0
M  V30 952 H 85.2507 4.031 -1.22834 0
M  V30 953 H 83.9747 3.25587 -0.257045 0
M  V30 954 H 82.6337 2.81854 -2.34423 0
M  V30 955 H 82.2817 4.92181 -1.03765 0
M  V30 956 H 81.9817 5.17964 -2.77465 0
M  V30 957 H 83.5057 5.75486 -2.04079 0
M  V30 958 H 84.9197 4.30335 -3.78794 0
M  V30 959 H 83.3167 3.96603 -4.50362 0
M  V30 960 H 84.3867 2.61672 -4.08235 0
M  V30 961 N 85.7298 1.2412 0.971189 0
M  V30 962 C 86.6768 1.0305 2.06517 0
M  V30 963 C 87.6468 -0.0550666 1.66009 0
M  V30 964 O 88.8318 0.0988688 1.90544 0
M  V30 965 C 85.9718 0.637653 3.39158 0
M  V30 966 C 85.0848 1.79633 3.92882 0
M  V30 967 C 84.2198 1.34939 5.13775 0
M  V30 968 C 83.2588 2.47823 5.59687 0
M  V30 969 N 82.3958 2.04022 6.71803 0
M  V30 970 H 87.2358 1.96685 2.23873 0
M  V30 971 H 84.7728 0.979694 1.09729 0
M  V30 972 H 86.7308 0.390931 4.15364 0
M  V30 973 H 85.3608 -0.261693 3.21737 0
M  V30 974 H 84.4128 2.15681 3.13346 0
M  V30 975 H 85.7248 2.64466 4.22918 0
M  V30 976 H 84.8788 1.06134 5.97345 0
M  V30 977 H 83.6178 0.471557 4.85415 0
M  V30 978 H 82.6228 2.77392 4.74693 0
M  V30 979 H 83.8478 3.36158 5.90063 0
M  V30 980 H 81.7938 1.18632 6.45184 0
M  V30 981 H 81.7108 2.82409 7.01271 0
M  V30 982 H 82.9788 1.78347 7.58823 0
M  V30 983 N 87.2079 -1.17134 1.05439 0
M  V30 984 C 88.1549 -2.21235 0.657539 0
M  V30 985 C 89.1249 -1.62551 -0.341543 0
M  V30 986 O 90.3099 -1.89379 -0.232393 0
M  V30 987 C 87.4499 -3.45076 0.0410575 0
M  V30 988 C 86.5629 -4.18042 1.08927 0
M  V30 989 C 85.6979 -5.29376 0.439848 0
M  V30 990 C 84.7369 -5.94132 1.4722 0
M  V30 991 N 83.8739 -6.96975 0.846756 0
M  V30 992 H 88.7139 -2.54534 1.54972 0
M  V30 993 H 86.2509 -1.25028 0.775006 0
M  V30 994 H 88.2089 -4.15862 -0.33383 0
M  V30 995 H 86.8389 -3.12353 -0.814568 0
M  V30 996 H 85.8909 -3.45945 1.58196 0
M  V30 997 H 87.2029 -4.62306 1.87282 0
M  V30 998 H 86.3569 -6.06699 0.0115125 0
M  V30 999 H 85.0959 -4.86251 -0.375656 0
M  V30 1000 H 84.1009 -5.15538 1.91052 0
M  V30 1001 H 85.3259 -6.39337 2.28965 0
M  V30 1002 H 83.2719 -6.5598 0.0518075 0
M  V30 1003 H 83.1889 -7.39565 1.5678 0
M  V30 1004 H 84.4569 -7.78239 0.443277 0
M  V30 1005 N 88.686 -0.835752 -1.33615 0
M  V30 1006 C 89.934 -0.429109 -1.97492 0
M  V30 1007 C 90.255 1.01433 -1.66543 0
M  V30 1008 O 89.525 1.70611 -0.962744 0
M  V30 1009 H 88.105 -0.155686 -0.730596 0
M  V30 1010 H 90.767 -1.06802 -1.63031 0
M  V30 1011 H 89.863 -0.55861 -3.0706 0
M  V30 1012 N 90.1641 1.46063 -0.591896 0
M  V30 1013 C 91.0941 2.33172 0.123673 0
M  V30 1014 C 92.0751 1.45897 0.87453 0
M  V30 1015 O 93.2601 1.74698 0.848181 0
M  V30 1016 C 90.3901 3.28336 1.13194 0
M  V30 1017 C 89.3441 4.25124 0.495324 0
M  V30 1018 C 88.6701 5.09863 1.61071 0
M  V30 1019 C 89.9701 5.19143 -0.573425 0
M  V30 1020 H 91.6641 2.93252 -0.603646 0
M  V30 1021 H 89.2101 1.41014 -0.291741 0
M  V30 1022 H 91.1631 3.88137 1.64097 0
M  V30 1023 H 89.8871 2.66383 1.88965 0
M  V30 1024 H 88.5461 3.66599 0.00729452 0
M  V30 1025 H 88.1941 4.44288 2.35832 0
M  V30 1026 H 87.8941 5.75417 1.19035 0
M  V30 1027 H 89.4181 5.72529 2.12233 0
M  V30 1028 H 90.8321 5.73106 -0.1491 0
M  V30 1029 H 89.2291 5.93089 -0.914636 0
M  V30 1030 H 90.2991 4.62519 -1.45617 0
M  V30 1031 N 91.6422 0.330177 1.54103 0
M  V30 1032 C 92.5522 -0.541534 2.28264 0
M  V30 1033 C 93.5682 -1.12351 1.32866 0
M  V30 1034 O 94.7442 -1.14206 1.65888 0
M  V30 1035 C 91.8092 -1.68322 3.03098 0
M  V30 1036 C 90.8702 -1.13238 4.14096 0
M  V30 1037 C 90.1032 -2.21966 4.85352 0
M  V30 1038 O 90.3262 -3.42437 4.56172 0
M  V30 1039 O 89.2602 -1.87013 5.7211 0
M  V30 1040 H 93.0862 0.060938 3.03639 0
M  V30 1041 H 90.6712 0.09565 1.49093 0
M  V30 1042 H 92.5532 -2.34777 3.49939 0
M  V30 1043 H 91.2282 -2.27176 2.30593 0
M  V30 1044 H 90.1352 -0.432736 3.71589 0
M  V30 1045 H 91.4682 -0.588898 4.88664 0
M  V30 1046 N 93.1203 -1.57491 0.0584922 0
M  V30 1047 C 94.0833 -2.1085 -0.898617 0
M  V30 1048 C 95.0833 -1.02964 -1.23511 0
M  V30 1049 O 96.2733 -1.29007 -1.17059 0
M  V30 1050 C 93.4053 -2.59881 -2.20623 0
M  V30 1051 H 94.5983 -2.96715 -0.435936 0
M  V30 1052 H 92.1513 -1.55141 -0.190023 0
M  V30 1053 H 92.8863 -1.77431 -2.71457 0
M  V30 1054 H 92.6713 -3.38727 -1.97501 0
M  V30 1055 H 94.1613 -3.01285 -2.89166 0
M  V30 1056 N 94.5984 0.214957 -1.56127 0
M  V30 1057 C 95.5484 1.27006 -1.8935 0
M  V30 1058 C 96.5324 1.41969 -0.757202 0
M  V30 1059 O 97.7244 1.44673 -1.01973 0
M  V30 1060 C 94.8534 2.61911 -2.2194 0
M  V30 1061 C 93.9394 2.50822 -3.41978 0
M  V30 1062 N 94.3304 2.09391 -4.60423 0
M  V30 1063 C 92.6284 2.81765 -3.45723 0
M  V30 1064 C 93.3294 2.09712 -5.42582 0
M  V30 1065 N 92.3054 2.50454 -4.82466 0
M  V30 1066 H 96.1074 0.940734 -2.78437 0
M  V30 1067 H 93.6214 0.423492 -1.56781 0
M  V30 1068 H 95.6184 3.38096 -2.43919 0
M  V30 1069 H 94.2784 2.95684 -1.34169 0
M  V30 1070 H 95.2894 1.80416 -4.85459 0
M  V30 1071 H 91.9664 3.19865 -2.68314 0
M  V30 1072 H 93.3564 1.79748 -6.4741 0
M  V30 1073 N 96.0765 1.50051 0.48192 0
M  V30 1074 C 97.4925 1.37237 0.814756 0
M  V30 1075 C 97.6925 0.420109 1.97072 0
M  V30 1076 O 96.7485 -0.141246 2.52105 0
M  V30 1077 C 98.0615 2.78375 1.13701 0
M  V30 1078 C 99.6095 2.87213 1.2441 0
M  V30 1079 C 100.084 4.29161 1.59954 0
M  V30 1080 N 101.575 4.32061 1.66967 0
M  V30 1081 C 102.31 5.38879 1.95952 0
M  V30 1082 N 101.806 6.55918 2.23031 0
M  V30 1083 N 103.599 5.26312 1.97363 0
M  V30 1084 H 95.7505 2.10546 -0.28005 0
M  V30 1085 H 98.0135 0.945921 -0.0627454 0
M  V30 1086 H 97.7195 3.49845 0.360787 0
M  V30 1087 H 97.5935 3.14941 2.07586 0
M  V30 1088 H 99.9805 2.15969 2.01101 0
M  V30 1089 H 100.061 2.54204 0.285299 0
M  V30 1090 H 99.7055 5.00938 0.838067 0
M  V30 1091 H 99.6355 4.59648 2.56966 0
M  V30 1092 H 102.126 3.47661 1.48123 0
M  V30 1093 H 102.439 7.33139 2.44391 0
M  V30 1094 H 100.784 6.59112 2.20447 0
M  V30 1095 H 103.975 4.33876 1.75697 0
M  V30 1096 H 104.148 6.09649 2.19618 0
M  V30 1097 N 97.5546 -0.734337 1.39446 0
M  V30 1098 C 98.5016 -1.84835 1.38219 0
M  V30 1099 C 99.4716 -1.64331 0.24179 0
M  V30 1100 O 100.657 -1.85728 0.437002 0
M  V30 1101 C 97.7966 -3.22355 1.23212 0
M  V30 1102 C 96.9096 -3.5456 2.46801 0
M  V30 1103 C 96.0446 -4.81485 2.24377 0
M  V30 1104 C 95.0836 -5.06536 3.43639 0
M  V30 1105 N 94.2206 -6.24665 3.20528 0
M  V30 1106 H 99.0606 -1.85219 2.33448 0
M  V30 1107 H 96.5976 -0.905039 1.15963 0
M  V30 1108 H 98.5556 -4.0174 1.12522 0
M  V30 1109 H 97.1856 -3.21248 0.316121 0
M  V30 1110 H 96.2376 -2.69872 2.68092 0
M  V30 1111 H 97.5496 -3.6899 3.3563 0
M  V30 1112 H 96.7036 -5.68852 2.10933 0
M  V30 1113 H 95.4426 -4.6923 1.32944 0
M  V30 1114 H 94.4476 -4.17632 3.5758 0
M  V30 1115 H 95.6726 -5.20676 4.35974 0
M  V30 1116 H 93.6186 -6.13696 2.3176 0
M  V30 1117 H 93.5356 -6.39685 4.02913 0
M  V30 1118 H 94.8036 -7.14868 3.10779 0
M  V30 1119 N 99.0327 -1.24633 -0.964593 0
M  V30 1120 C 99.9827 -1.00841 -2.04487 0
M  V30 1121 C 100.967 0.0512468 -1.60818 0
M  V30 1122 O 102.159 -0.162865 -1.76249 0
M  V30 1123 C 99.2877 -0.618474 -3.37683 0
M  V30 1124 C 98.3737 -1.71437 -3.87905 0
M  V30 1125 N 98.7647 -2.9477 -4.11029 0
M  V30 1126 C 97.0627 -1.5926 -4.16596 0
M  V30 1127 C 97.7637 -3.65834 -4.52261 0
M  V30 1128 N 96.7397 -2.9341 -4.57615 0
M  V30 1129 H 100.542 -1.94487 -2.20345 0
M  V30 1130 H 98.0557 -1.14805 -1.14863 0
M  V30 1131 H 100.053 -0.429247 -4.14684 0
M  V30 1132 H 98.7127 0.310766 -3.23209 0
M  V30 1133 H 99.7237 -3.30917 -3.9839 0
M  V30 1134 H 96.4007 -0.731606 -4.1104 0
M  V30 1135 H 97.7907 -4.71646 -4.78539 0
M  V30 1136 N 100.511 1.16574 -1.06058 0
M  V30 1137 C 101.922 1.68662 -0.800632 0
M  V30 1138 C 102.273 1.84184 0.67608 0
M  V30 1139 O 101.398 1.53568 1.52466 0
M  V30 1140 C 101.993 3.06356 -1.44676 0
M  V30 1141 C 100.552 3.55575 -1.23465 0
M  V30 1142 C 99.6988 2.31616 -1.52477 0
M  V30 1143 H 102.65 1.00969 -1.22438 0
M  V30 1144 H 102.671 3.70636 -0.860788 0
M  V30 1145 H 102.183 2.95027 -2.52152 0
M  V30 1146 H 100.284 3.72167 -0.179527 0
M  V30 1147 H 100.397 4.37812 -1.94571 0
M  V30 1148 H 98.7608 2.36512 -0.945209 0
M  V30 1149 H 99.5438 2.22887 -2.61106 0
M  V30 1150 N 101.989 0.842826 1.3317 0
M  V30 1151 C 102.937 0.267495 2.31057 0
M  V30 1152 C 103.931 -0.602682 1.58316 0
M  V30 1153 O 105.137 -0.491803 1.73151 0
M  V30 1154 H 101.512 0.0677813 0.748939 0
M  V30 1155 H 103.483 1.10754 2.77085 0
M  V30 1156 C 102.232 -0.539331 3.43492 0
M  V30 1157 H 101.555 0.12095 3.99617 0
M  V30 1158 H 102.995 -0.90767 4.14171 0
M  V30 1159 C 101.454 -1.71981 2.89697 0
M  V30 1160 O 101.984 -2.81862 2.86211 0
M  V30 1161 N 100.19 -1.54299 2.46252 0
M  V30 1162 H 99.7369 -0.649143 2.49287 0
M  V30 1163 H 99.6949 -2.33431 2.10612 0
M  V30 1164 N 103.467 -1.45747 0.599634 0
M  V30 1165 C 104.397 -2.33235 -0.111306 0
M  V30 1166 C 105.378 -1.46359 -0.866781 0
M  V30 1167 O 106.563 -1.75146 -0.838904 0
M  V30 1168 C 103.693 -3.28932 -1.11451 0
M  V30 1169 C 102.647 -4.25381 -0.472772 0
M  V30 1170 C 101.973 -5.1071 -1.58365 0
M  V30 1171 C 103.273 -5.18831 0.600948 0
M  V30 1172 H 104.967 -2.92927 0.61919 0
M  V30 1173 H 102.513 -1.40857 0.299215 0
M  V30 1174 H 104.466 -3.89002 -1.62036 0
M  V30 1175 H 103.19 -2.67381 -1.8755 0
M  V30 1176 H 101.849 -3.66598 0.0121472 0
M  V30 1177 H 101.497 -4.45533 -2.33473 0
M  V30 1178 H 101.197 -5.7604 -1.15982 0
M  V30 1179 H 102.721 -5.73647 -2.09194 0
M  V30 1180 H 104.135 -5.73019 0.179491 0
M  V30 1181 H 102.532 -5.92595 0.946076 0
M  V30 1182 H 103.602 -4.6174 1.48068 0
M  V30 1183 N 104.945 -0.338344 -1.53925 0
M  V30 1184 C 106.191 0.252842 -2.01822 0
M  V30 1185 C 106.546 1.48612 -1.22197 0
M  V30 1186 O 105.839 1.89238 -0.299892 0
M  V30 1187 C 106.033 0.62448 -3.51902 0
M  V30 1188 C 105.862 -0.571235 -4.46057 0
M  V30 1189 C 104.632 -1.07493 -4.93734 0
M  V30 1190 C 106.83 -1.42807 -4.94076 0
M  V30 1191 N 104.812 -2.23351 -5.71828 0
M  V30 1192 C 106.183 -2.43362 -5.70241 0
M  V30 1193 C 108.238 -1.45412 -4.76193 0
M  V30 1194 C 106.941 -3.46346 -6.30426 0
M  V30 1195 C 108.967 -2.47274 -5.37224 0
M  V30 1196 C 108.329 -3.46555 -6.13253 0
M  V30 1197 H 104.428 0.0559669 -0.779995 0
M  V30 1198 H 107.012 -0.476732 -1.88773 0
M  V30 1199 H 105.183 1.32317 -3.65167 0
M  V30 1200 H 106.915 1.19841 -3.86549 0
M  V30 1201 H 103.67 -0.643848 -4.69203 0
M  V30 1202 H 104.094 -2.81834 -6.15548 0
M  V30 1203 H 108.736 -0.700171 -4.16962 0
M  V30 1204 H 106.454 -4.22638 -6.88769 0
M  V30 1205 H 110.04 -2.50109 -5.25297 0
M  V30 1206 H 108.92 -4.24083 -6.59638 0
M  V30 1207 N 106.423 1.57458 -0.0668435 0
M  V30 1208 C 107.672 1.92477 0.602947 0
M  V30 1209 C 107.985 0.948419 1.71068 0
M  V30 1210 O 109.191 1.19124 2.43971 0
M  V30 1211 C 107.647 3.41903 1.12383 0
M  V30 1212 C 107.255 4.47975 0.04737 0
M  V30 1213 C 108.999 3.85931 1.76797 0
M  V30 1214 C 106.906 5.88529 0.582022 0
M  V30 1215 H 105.836 0.718387 0.22899 0
M  V30 1216 H 108.487 1.82978 -0.138276 0
M  V30 1217 H 106.869 3.46459 1.91787 0
M  V30 1218 H 108.043 4.55029 -0.726978 0
M  V30 1219 H 106.358 4.13384 -0.500243 0
M  V30 1220 H 108.955 4.88322 2.17821 0
M  V30 1221 H 109.298 3.23029 2.62599 0
M  V30 1222 H 109.831 3.83958 1.04024 0
M  V30 1223 H 106.57 6.55065 -0.238721 0
M  V30 1224 H 106.09 5.85004 1.324 0
M  V30 1225 H 107.769 6.38258 1.05999 0
M  V30 1226 N 107.901 -0.206675 1.56239 0
M  V30 1227 C 109.312 -0.772383 1.69974 0
M  V30 1228 C 109.663 -1.84353 0.671436 0
M  V30 1229 O 108.788 -2.15695 -0.174491 0
M  V30 1230 C 109.383 -1.40779 3.08167 0
M  V30 1231 C 107.942 -1.92072 3.23706 0
M  V30 1232 C 107.089 -0.786347 2.65917 0
M  V30 1233 H 110.04 0.0182223 1.5869 0
M  V30 1234 H 110.061 -2.27696 3.04852 0
M  V30 1235 H 109.573 -0.627958 3.82986 0
M  V30 1236 H 107.674 -2.7281 2.53782 0
M  V30 1237 H 107.787 -2.09046 4.31087 0
M  V30 1238 H 106.151 -1.1976 2.24788 0
M  V30 1239 H 106.934 -0.0189416 3.43295 0
M  V30 1240 N 109.379 -1.50304 -0.473955 0
M  V30 1241 C 110.329 -1.65347 -1.56985 0
M  V30 1242 C 111.313 -0.508176 -1.52664 0
M  V30 1243 O 112.505 -0.762446 -1.59737 0
M  V30 1244 C 109.634 -1.74832 -2.95447 0
M  V30 1245 C 108.72 -2.95028 -3.04662 0
M  V30 1246 N 109.111 -4.18747 -2.83698 0
M  V30 1247 C 107.409 -2.93527 -3.35795 0
M  V30 1248 C 108.11 -4.99687 -2.97805 0
M  V30 1249 N 107.086 -4.33585 -3.2788 0
M  V30 1250 H 110.888 -2.58698 -1.39472 0
M  V30 1251 H 108.402 -1.47449 -0.680629 0
M  V30 1252 H 110.399 -1.83712 -3.7424 0
M  V30 1253 H 109.059 -0.826376 -3.14008 0
M  V30 1254 H 110.07 -4.48291 -2.59337 0
M  V30 1255 H 106.747 -2.10821 -3.60362 0
M  V30 1256 H 108.137 -6.08057 -2.85861 0
M  V30 1257 N 110.857 0.726932 -1.39834 0
M  V30 1258 C 111.767 1.87131 -1.41489 0
M  V30 1259 C 112.783 1.71239 -0.308757 0
M  V30 1260 O 113.959 1.93701 -0.551529 0
M  V30 1261 C 111.024 3.22811 -1.26468 0
M  V30 1262 C 110.085 3.51039 -2.47124 0
M  V30 1263 C 109.318 4.80245 -2.3281 0
M  V30 1264 O 109.541 5.54537 -1.33585 0
M  V30 1265 O 108.475 5.08554 -3.21957 0
M  V30 1266 H 112.301 1.8869 -2.3797 0
M  V30 1267 H 109.886 0.875837 -1.21035 0
M  V30 1268 H 111.768 4.03877 -1.20255 0
M  V30 1269 H 110.443 3.22005 -0.330862 0
M  V30 1270 H 109.35 2.70027 -2.58914 0
M  V30 1271 H 110.683 3.56632 -3.39227 0
M  V30 1272 N 112.336 1.25143 0.95797 0
M  V30 1273 C 113.576 1.10893 1.71703 0
M  V30 1274 C 113.94 -0.34478 1.88879 0
M  V30 1275 O 115.141 -0.609014 2.6181 0
M  V30 1276 C 113.412 1.83889 3.06463 0
M  V30 1277 S 114.971 1.85491 3.97666 0
M  V30 1278 H 111.789 0.396428 0.590226 0
M  V30 1279 H 114.391 1.58618 1.14283 0
M  V30 1280 H 113.095 2.88756 2.9163 0
M  V30 1281 H 112.626 1.36538 3.68946 0
M  V30 1282 H 114.641 0.929553 4.87415 0
M  V30 1283 N 113.814 -1.1601 1.06675 0
M  V30 1284 C 115.039 -1.91068 0.806706 0
M  V30 1285 C 115.464 -1.77112 -0.633485 0
M  V30 1286 O 114.822 -1.09908 -1.44187 0
M  V30 1287 C 114.87 -3.39655 1.21106 0
M  V30 1288 O 113.974 -4.10893 0.352189 0
M  V30 1289 H 113.315 -0.595125 0.294486 0
M  V30 1290 H 115.845 -1.46955 1.42356 0
M  V30 1291 H 115.855 -3.90434 1.18428 0
M  V30 1292 H 114.53 -3.49132 2.26008 0
M  V30 1293 H 113.107 -3.70285 0.440868 0
M  V30 1294 N 115.292 -0.849877 -1.32721 0
M  V30 1295 C 116.539 -0.450923 -1.97416 0
M  V30 1296 C 116.867 0.992376 -1.67279 0
M  V30 1297 O 116.122 1.71048 -0.950845 0
M  V30 1298 C 116.421 -0.631272 -3.51781 0
M  V30 1299 C 116.087 -2.04432 -4.01894 0
M  V30 1300 C 114.749 -2.4308 -4.1529 0
M  V30 1301 C 117.101 -2.96679 -4.28522 0
M  V30 1302 C 114.429 -3.73257 -4.52654 0
M  V30 1303 C 116.781 -4.26349 -4.67343 0
M  V30 1304 C 115.445 -4.64939 -4.78945 0
M  V30 1305 H 114.715 -0.165004 -0.722395 0
M  V30 1306 H 117.362 -1.07901 -1.58207 0
M  V30 1307 H 115.667 0.0800767 -3.91718 0
M  V30 1308 H 117.364 -0.302709 -3.99856 0
M  V30 1309 H 113.954 -1.73419 -3.91949 0
M  V30 1310 H 118.138 -2.68054 -4.17685 0
M  V30 1311 H 113.394 -4.02946 -4.59831 0
M  V30 1312 H 117.568 -4.97895 -4.86902 0
M  V30 1313 H 115.195 -5.65855 -5.07654 0
M  V30 1314 N 116.77 1.45427 -0.607355 0
M  V30 1315 C 117.717 2.3053 0.111625 0
M  V30 1316 C 118.687 1.4209 0.860216 0
M  V30 1317 O 119.872 1.71019 0.845998 0
M  V30 1318 C 117.012 3.26992 1.10319 0
M  V30 1319 C 116.125 4.30535 0.355493 0
M  V30 1320 C 115.26 5.14105 1.33676 0
M  V30 1321 C 114.299 6.09376 0.576862 0
M  V30 1322 N 113.436 6.85727 1.5074 0
M  V30 1323 H 118.276 2.91477 -0.620093 0
M  V30 1324 H 115.813 1.43631 -0.317594 0
M  V30 1325 H 117.771 3.81385 1.6912 0
M  V30 1326 H 116.401 2.67799 1.80232 0
M  V30 1327 H 115.453 3.78805 -0.348023 0
M  V30 1328 H 116.765 4.98235 -0.237423 0
M  V30 1329 H 115.919 5.72897 1.99684 0
M  V30 1330 H 114.658 4.46423 1.9636 0
M  V30 1331 H 113.663 5.49715 -0.0968519 0
M  V30 1332 H 114.888 6.79085 -0.0449341 0
M  V30 1333 H 112.834 6.20735 2.12189 0
M  V30 1334 H 112.751 7.49778 0.967913 0
M  V30 1335 H 114.019 7.4906 2.15706 0
M  V30 1336 N 118.248 0.346503 1.53744 0
M  V30 1337 C 119.181 -0.552023 2.21423 0
M  V30 1338 C 120.159 -1.09798 1.19929 0
M  V30 1339 O 121.343 -1.1577 1.4876 0
M  V30 1340 C 118.47 -1.75972 2.89398 0
M  V30 1341 C 117.516 -1.34295 4.04805 0
M  V30 1342 S 118.349 -0.360263 5.34287 0
M  V30 1343 C 119.505 -1.57473 6.05767 0
M  V30 1344 H 119.738 0.0228119 2.97291 0
M  V30 1345 H 117.271 0.130579 1.53847 0
M  V30 1346 H 119.229 -2.45256 3.2918 0
M  V30 1347 H 117.89 -2.30578 2.1329 0
M  V30 1348 H 117.083 -2.24349 4.51313 0
M  V30 1349 H 116.685 -0.729555 3.66815 0
M  V30 1350 H 118.977 -2.50875 6.29339 0
M  V30 1351 H 119.92 -1.15138 6.98676 0
M  V30 1352 H 120.328 -1.77212 5.35963 0
M  V30 1353 N 119.726 -1.57421 0.075193 0
M  V30 1354 C 120.656 -2.15942 -0.888324 0
M  V30 1355 C 121.637 -1.08737 -1.30806 0
M  V30 1356 O 122.822 -1.36787 -1.37851 0
M  V30 1357 C 119.952 -2.72379 -2.1547 0
M  V30 1358 C 118.906 -3.8478 -1.87425 0
M  V30 1359 C 118.232 -4.27834 -3.20721 0
M  V30 1360 C 119.532 -5.08869 -1.17684 0
M  V30 1361 H 121.226 -2.96705 -0.400799 0
M  V30 1362 H 118.772 -1.42723 -0.191342 0
M  V30 1363 H 120.725 -3.11965 -2.83295 0
M  V30 1364 H 119.449 -1.88841 -2.6647 0
M  V30 1365 H 118.108 -3.45703 -1.22004 0
M  V30 1366 H 117.756 -3.41214 -3.6957 0
M  V30 1367 H 117.456 -5.03605 -3.02746 0
M  V30 1368 H 118.98 -4.70039 -3.89738 0
M  V30 1369 H 120.394 -5.4575 -1.75584 0
M  V30 1370 H 118.791 -5.8994 -1.09956 0
M  V30 1371 H 119.861 -4.84648 -0.156453 0
M  V30 1372 N 121.204 0.198386 -1.56346 0
M  V30 1373 C 122.481 0.944982 -1.71258 0
M  V30 1374 C 122.861 2.0151 -0.629048 0
M  V30 1375 O 122.209 2.25639 0.360473 0
M  V30 1376 C 122.419 1.5344 -3.1346 0
M  V30 1377 C 123.767 2.01778 -3.73591 0
M  V30 1378 O 124.791 1.63288 -3.16568 0
M  V30 1379 O 123.65 2.72594 -4.73661 0
M  V30 1380 H 120.744 0.442939 -0.69838 0
M  V30 1381 H 123.29 0.188342 -1.68652 0
M  V30 1382 H 122.062 0.762869 -3.83792 0
M  V30 1383 H 121.685 2.35596 -3.20282 0
M  V30 1384 N 122.682 1.50554 0.465978 0
M  V30 1385 C 123.907 1.65838 1.24549 0
M  V30 1386 C 124.332 0.343486 1.84937 0
M  V30 1387 O 123.69 -0.69324 1.67523 0
M  V30 1388 C 123.738 2.75533 2.32624 0
M  V30 1389 O 122.842 2.37142 3.37398 0
M  V30 1390 H 122.183 0.553893 0.366194 0
M  V30 1391 H 124.713 1.96959 0.553927 0
M  V30 1392 H 124.723 2.98763 2.77857 0
M  V30 1393 H 123.398 3.70962 1.88043 0
M  V30 1394 H 121.975 2.24377 2.97841 0
M  V30 1395 N 124.16 -0.719506 1.40217 0
M  V30 1396 C 125.4 -1.49181 1.39729 0
M  V30 1397 C 125.764 -1.92 -0.00250614 0
M  V30 1398 O 126.965 -2.68473 -0.132479 0
M  V30 1399 C 125.236 -2.68767 2.35582 0
M  V30 1400 S 126.795 -3.58224 2.53418 0
M  V30 1401 H 123.613 -0.510091 0.495307 0
M  V30 1402 H 126.215 -0.841724 1.76452 0
M  V30 1403 H 124.919 -2.35475 3.36124 0
M  V30 1404 H 124.45 -3.38691 2.0013 0
M  V30 1405 H 126.465 -4.63033 1.78367 0
M  V30 1406 N 125.638 -1.25649 -0.95132 0
M  V30 1407 C 126.887 -1.09988 -1.69073 0
M  V30 1408 C 127.2 0.358355 -1.92289 0
M  V30 1409 O 128.406 0.635466 -2.63958 0
M  V30 1410 C 126.862 -1.92012 -3.044 0
M  V30 1411 C 126.47 -3.42347 -2.88968 0
M  V30 1412 C 128.214 -1.8493 -3.82101 0
M  V30 1413 C 126.121 -4.16655 -4.19705 0
M  V30 1414 H 125.051 -0.407993 -0.63408 0
M  V30 1415 H 127.702 -1.49873 -1.05879 0
M  V30 1416 H 126.084 -1.44952 -3.68517 0
M  V30 1417 H 127.258 -3.97104 -2.33762 0
M  V30 1418 H 125.573 -3.50557 -2.24719 0
M  V30 1419 H 128.17 -2.37739 -4.78941 0
M  V30 1420 H 128.513 -0.817883 -4.08187 0
M  V30 1421 H 129.046 -2.29758 -3.2474 0
M  V30 1422 H 125.785 -5.20224 -3.98807 0
M  V30 1423 H 125.305 -3.66681 -4.74663 0
M  V30 1424 H 126.984 -4.24551 -4.88227 0
M  V30 1425 N 127.117 1.15442 -1.07289 0
M  V30 1426 C 128.08 2.18358 -0.696591 0
M  V30 1427 C 129.08 1.58637 0.262837 0
M  V30 1428 O 130.27 1.74145 0.0438809 0
M  V30 1429 C 127.402 3.4089 -0.0266151 0
M  V30 1430 H 128.595 2.53162 -1.60776 0
M  V30 1431 H 126.148 1.29893 -0.869342 0
M  V30 1432 H 126.883 3.11653 0.896822 0
M  V30 1433 H 126.668 3.85495 -0.716657 0
M  V30 1434 H 128.158 4.17009 0.222028 0
M  V30 1435 N 128.595 0.856903 1.32268 0
M  V30 1436 C 129.543 0.291987 2.3076 0
M  V30 1437 C 130.537 -0.585857 1.58947 0
M  V30 1438 O 131.743 -0.47341 1.73663 0
M  V30 1439 H 128.118 0.075721 0.748178 0
M  V30 1440 H 130.089 1.13687 2.75895 0
M  V30 1441 C 128.838 -0.502869 3.44044 0
M  V30 1442 H 128.161 0.163328 3.99466 0
M  V30 1443 H 129.601 -0.863691 4.1511 0
M  V30 1444 C 128.06 -1.68898 2.91505 0
M  V30 1445 O 128.59 -2.78811 2.89184 0
M  V30 1446 N 126.796 -1.51679 2.47875 0
M  V30 1447 H 126.343 -0.622666 2.49961 0
M  V30 1448 H 126.301 -2.31184 2.13076 0
M  V30 1449 N 130.073 -1.45103 0.615059 0
M  V30 1450 C 131.322 -2.01396 0.110718 0
M  V30 1451 C 131.635 -1.48834 -1.26916 0
M  V30 1452 O 132.841 -1.97152 -1.86664 0
M  V30 1453 C 131.297 -3.59599 0.14723 0
M  V30 1454 C 130.905 -4.21158 1.52743 0
M  V30 1455 C 132.649 -4.23428 -0.30148 0
M  V30 1456 C 130.556 -5.71535 1.51992 0
M  V30 1457 H 129.486 -0.753061 0.0376241 0
M  V30 1458 H 132.137 -1.66494 0.77149 0
M  V30 1459 H 130.519 -3.91724 -0.580339 0
M  V30 1460 H 131.693 -4.00594 2.2773 0
M  V30 1461 H 130.008 -3.69552 1.91886 0
M  V30 1462 H 132.605 -5.33703 -0.326392 0
M  V30 1463 H 132.948 -3.94629 -1.32565 0
M  V30 1464 H 133.481 -3.96047 0.373065 0
M  V30 1465 H 130.22 -6.05044 2.52193 0
M  V30 1466 H 129.74 -5.94268 0.81274 0
M  V30 1467 H 131.419 -6.34873 1.24681 0
M  V30 1468 N 131.551 -0.354651 -1.53558 0
M  V30 1469 C 132.962 0.126902 -1.86268 0
M  V30 1470 C 133.313 1.49075 -1.27558 0
M  V30 1471 O 132.438 2.08105 -0.5934 0
M  V30 1472 C 133.033 0.237046 -3.3797 0
M  V30 1473 C 131.592 0.662842 -3.70518 0
M  V30 1474 C 130.739 -0.196652 -2.76602 0
M  V30 1475 H 133.69 -0.573849 -1.47962 0
M  V30 1476 H 133.711 1.06259 -3.65362 0
M  V30 1477 H 133.223 -0.755725 -3.80671 0
M  V30 1478 H 131.324 1.66424 -3.33367 0
M  V30 1479 H 131.437 0.445034 -4.77029 0
M  V30 1480 H 129.801 0.332763 -2.52517 0
M  V30 1481 H 130.584 -1.18676 -3.22135 0
M  V30 1482 N 133.029 1.57378 -0.0835403 0
M  V30 1483 C 134.257 1.98263 0.59157 0
M  V30 1484 C 134.672 0.962302 1.62435 0
M  V30 1485 O 134.029 -0.049581 1.82433 0
M  V30 1486 C 134.08 3.39214 1.24965 0
M  V30 1487 O 133.801 4.37339 0.258186 0
M  V30 1488 C 135.302 3.95038 2.01147 0
M  V30 1489 H 132.522 0.651773 0.159477 0
M  V30 1490 H 135.066 2.03878 -0.159415 0
M  V30 1491 H 133.221 3.34649 1.95164 0
M  V30 1492 H 133.635 5.19371 0.731734 0
M  V30 1493 H 135.109 4.95848 2.42567 0
M  V30 1494 H 135.586 3.32222 2.87272 0
M  V30 1495 H 136.192 4.0304 1.35789 0
M  V30 1496 N 134.507 -0.190092 1.56449 0
M  V30 1497 C 135.755 -0.907908 1.80559 0
M  V30 1498 C 136.076 -1.83583 0.657438 0
M  V30 1499 O 135.346 -1.93203 -0.323924 0
M  V30 1500 H 133.926 -0.338247 0.666032 0
M  V30 1501 H 136.588 -0.194403 1.93928 0
M  V30 1502 H 135.684 -1.49604 2.73907 0
M  V30 1503 N 135.985 -1.50799 -0.457987 0
M  V30 1504 C 136.917 -1.66786 -1.57211 0
M  V30 1505 C 137.93 -0.548962 -1.53265 0
M  V30 1506 O 139.119 -0.8226 -1.58416 0
M  V30 1507 C 136.219 -1.64834 -2.96113 0
M  V30 1508 C 135.392 -2.92971 -3.24787 0
M  V30 1509 C 134.451 -2.83485 -4.43309 0
M  V30 1510 O 133.477 -3.5744 -4.42973 0
M  V30 1511 N 134.679 -1.97929 -5.45714 0
M  V30 1512 H 137.444 -2.62889 -1.43909 0
M  V30 1513 H 135.005 -1.48427 -0.646617 0
M  V30 1514 H 136.997 -1.56084 -3.7339 0
M  V30 1515 H 135.567 -0.764118 -3.03117 0
M  V30 1516 H 134.787 -3.15749 -2.36 0
M  V30 1517 H 136.075 -3.77834 -3.40762 0
M  V30 1518 H 135.473 -1.37182 -5.48815 0
M  V30 1519 H 134.03 -1.95073 -6.21924 0
M  V30 1520 N 137.463 0.71206 -1.40597 0
M  V30 1521 C 138.373 1.8562 -1.43466 0
M  V30 1522 C 139.389 1.70902 -0.326902 0
M  V30 1523 O 140.565 1.93105 -0.572043 0
M  V30 1524 C 137.63 3.21451 -1.29884 0
M  V30 1525 C 136.691 3.48398 -2.50833 0
M  V30 1526 C 135.924 4.77749 -2.3789 0
M  V30 1527 O 136.147 5.53089 -1.39459 0
M  V30 1528 O 135.081 5.05111 -3.27333 0
M  V30 1529 H 138.907 1.86155 -2.39958 0
M  V30 1530 H 136.492 0.86295 -1.21957 0
M  V30 1531 H 138.374 4.02579 -1.24531 0
M  V30 1532 H 137.049 3.21636 -0.364997 0
M  V30 1533 H 135.956 2.67265 -2.61763 0
M  V30 1534 H 137.289 3.53014 -3.4299 0
M  V30 1535 N 138.941 1.26152 0.944643 0
M  V30 1536 C 139.888 1.07408 2.04285 0
M  V30 1537 C 140.858 -0.0198413 1.66088 0
M  V30 1538 O 142.043 0.139264 1.90291 0
M  V30 1539 C 139.183 0.70945 3.37729 0
M  V30 1540 C 138.296 1.87926 3.88983 0
M  V30 1541 C 137.431 1.45807 5.10797 0
M  V30 1542 C 136.47 2.5964 5.54305 0
M  V30 1543 N 135.607 2.18226 6.67324 0
M  V30 1544 H 140.447 2.01389 2.1965 0
M  V30 1545 H 137.984 1.00275 1.07626 0
M  V30 1546 H 139.942 0.478948 4.14442 0
M  V30 1547 H 138.572 -0.193389 3.2222 0
M  V30 1548 H 137.624 2.22279 3.08701 0
M  V30 1549 H 138.936 2.73377 4.17213 0
M  V30 1550 H 138.09 1.18781 5.94959 0
M  V30 1551 H 136.829 0.574414 4.84305 0
M  V30 1552 H 135.834 2.87399 4.68702 0
M  V30 1553 H 137.059 3.48599 5.828 0
M  V30 1554 H 135.005 1.3229 6.42523 0
M  V30 1555 H 134.922 2.97221 6.95123 0
M  V30 1556 H 136.19 1.94403 7.54869 0
M  V30 1557 N 140.419 -1.14872 1.07899 0
M  V30 1558 C 141.667 -1.85422 0.803941 0
M  V30 1559 C 141.988 -1.83051 -0.67211 0
M  V30 1560 O 141.258 -1.27532 -1.48703 0
M  V30 1561 H 139.838 -0.686537 0.294408 0
M  V30 1562 H 142.5 -1.39226 1.3639 0
M  V30 1563 H 141.596 -2.90399 1.14346 0
M  V30 1564 N 141.898 -0.863906 -1.31812 0
M  V30 1565 C 143.126 -0.486111 -2.01108 0
M  V30 1566 C 143.541 0.919755 -1.64882 0
M  V30 1567 O 142.898 1.60162 -0.874893 0
M  V30 1568 C 142.949 -0.626435 -3.56031 0
M  V30 1569 O 142.67 -1.97693 -3.90959 0
M  V30 1570 C 144.171 -0.248857 -4.42601 0
M  V30 1571 H 141.391 -0.190052 -0.643523 0
M  V30 1572 H 143.935 -1.1634 -1.68182 0
M  V30 1573 H 142.09 0.00322717 -3.874 0
M  V30 1574 H 142.504 -1.98034 -4.85678 0
M  V30 1575 H 143.978 -0.398016 -5.50563 0
M  V30 1576 H 144.455 0.811489 -4.31638 0
M  V30 1577 H 145.061 -0.853971 -4.16638 0
M  V30 1578 N 143.376 1.44774 -0.622745 0
M  V30 1579 C 144.606 2.06187 -0.130532 0
M  V30 1580 C 145.014 1.46547 1.19669 0
M  V30 1581 O 144.357 0.579636 1.74316 0
M  V30 1582 C 144.419 3.59437 0.0674983 0
M  V30 1583 C 144.083 4.41496 -1.18026 0
M  V30 1584 C 145.08 4.75512 -2.102 0
M  V30 1585 C 142.765 4.82007 -1.41333 0
M  V30 1586 C 144.759 5.48912 -3.23998 0
M  V30 1587 C 142.446 5.55157 -2.55429 0
M  V30 1588 C 143.444 5.88528 -3.46589 0
M  V30 1589 O 143.132 6.60191 -4.58697 0
M  V30 1590 H 142.864 0.672045 -0.0730162 0
M  V30 1591 H 145.418 1.86768 -0.854802 0
M  V30 1592 H 143.648 3.77314 0.846825 0
M  V30 1593 H 145.337 4.02642 0.513209 0
M  V30 1594 H 146.103 4.4476 -1.93425 0
M  V30 1595 H 141.982 4.55457 -0.712709 0
M  V30 1596 H 145.526 5.74877 -3.95174 0
M  V30 1597 H 141.423 5.85324 -2.72151 0
M  V30 1598 H 142.191 6.78654 -4.57571 0
M  V30 1599 N 144.854 0.36279 1.53368 0
M  V30 1600 C 146.084 -0.228281 2.05335 0
M  V30 1601 C 146.492 -1.43226 1.23625 0
M  V30 1602 O 145.835 -1.81717 0.269206 0
M  V30 1603 C 145.897 -0.688549 3.52845 0
M  V30 1604 C 145.561 0.398362 4.5526 0
M  V30 1605 C 146.558 1.24732 5.04716 0
M  V30 1606 C 144.243 0.557805 4.99193 0
M  V30 1607 C 146.237 2.2411 5.96702 0
M  V30 1608 C 143.924 1.55495 5.90986 0
M  V30 1609 C 144.922 2.39503 6.39631 0
M  V30 1610 O 144.61 3.37517 7.29615 0
M  V30 1611 H 144.342 -0.044395 0.674541 0
M  V30 1612 H 146.896 0.518668 1.98744 0
M  V30 1613 H 145.126 -1.48706 3.56964 0
M  V30 1614 H 146.815 -1.20231 3.87685 0
M  V30 1615 H 147.581 1.13532 4.71525 0
M  V30 1616 H 143.46 -0.0862959 4.60919 0
M  V30 1617 H 147.004 2.89718 6.34594 0
M  V30 1618 H 142.901 1.66744 6.23592 0
M  V30 1619 H 143.669 3.33213 7.47604 0
M  V30 1620 N 146.332 -1.57332 0.0918853 0
M  V30 1621 C 147.295 -2.12708 -0.85369 0
M  V30 1622 C 148.295 -1.05561 -1.213 0
M  V30 1623 O 149.485 -1.31461 -1.14296 0
M  V30 1624 C 146.617 -2.64503 -2.15061 0
M  V30 1625 H 147.81 -2.97573 -0.3729 0
M  V30 1626 H 145.363 -1.55509 -0.157072 0
M  V30 1627 H 146.098 -1.83149 -2.67632 0
M  V30 1628 H 145.883 -3.4284 -1.90272 0
M  V30 1629 H 147.373 -3.07351 -2.82711 0
M  V30 1630 N 147.81 0.181792 -1.56548 0
M  V30 1631 C 149.059 0.898348 -1.8059 0
M  V30 1632 C 149.372 1.83862 -0.667379 0
M  V30 1633 O 150.578 2.59678 -0.792446 0
M  V30 1634 C 149.034 1.64791 -3.19956 0
M  V30 1635 C 148.642 0.751789 -4.41647 0
M  V30 1636 C 150.386 2.35331 -3.53298 0
M  V30 1637 C 148.293 1.50098 -5.72035 0
M  V30 1638 H 147.223 0.339194 -0.673397 0
M  V30 1639 H 149.874 0.151413 -1.82874 0
M  V30 1640 H 148.256 2.43921 -3.11959 0
M  V30 1641 H 149.43 -0.0018076 -4.608 0
M  V30 1642 H 147.745 0.156562 -4.16106 0
M  V30 1643 H 150.342 2.91958 -4.47956 0
M  V30 1644 H 150.685 3.10164 -2.77676 0
M  V30 1645 H 151.218 1.63154 -3.62803 0
M  V30 1646 H 147.957 0.795175 -6.50659 0
M  V30 1647 H 147.477 2.22817 -5.56878 0
M  V30 1648 H 149.156 2.05125 -6.13622 0
M  V30 1649 N 149.288 1.51039 0.449983 0
M  V30 1650 C 150.565 1.53612 1.21089 0
M  V30 1651 C 150.945 0.292997 2.09057 0
M  V30 1652 O 150.293 -0.72259 2.16774 0
M  V30 1653 C 150.503 2.84337 2.0237 0
M  V30 1654 C 151.851 3.35807 2.59843 0
M  V30 1655 O 152.875 2.85802 2.12593 0
M  V30 1656 O 151.734 4.23029 3.45989 0
M  V30 1657 H 148.828 0.617057 0.550608 0
M  V30 1658 H 151.374 1.63344 0.460082 0
M  V30 1659 H 150.146 3.66278 1.37681 0
M  V30 1660 H 149.769 2.77708 2.84542 0
M  V30 1661 N 150.766 -0.704594 1.40972 0
M  V30 1662 C 152.013 -1.46458 1.39844 0
M  V30 1663 C 152.341 -1.94499 0.00447594 0
M  V30 1664 O 151.596 -1.69275 -0.982057 0
M  V30 1665 C 151.895 -2.698 2.34399 0
M  V30 1666 C 151.561 -2.40464 3.81429 0
M  V30 1667 C 150.223 -2.32174 4.21484 0
M  V30 1668 C 152.575 -2.16086 4.74296 0
M  V30 1669 C 149.903 -1.97589 5.52427 0
M  V30 1670 C 152.255 -1.83011 6.05549 0
M  V30 1671 C 150.919 -1.7321 6.44635 0
M  V30 1672 H 150.189 -0.535927 0.511725 0
M  V30 1673 H 152.836 -0.806124 1.73706 0
M  V30 1674 H 151.141 -3.40536 1.93759 0
M  V30 1675 H 152.838 -3.27919 2.30804 0
M  V30 1676 H 149.428 -2.47808 3.49699 0
M  V30 1677 H 153.612 -2.2144 4.4416 0
M  V30 1678 H 148.868 -1.88547 5.81601 0
M  V30 1679 H 153.042 -1.63164 6.77016 0
M  V30 1680 H 150.669 -1.46179 7.46013 0
M  V30 1681 N 152.244 -1.26651 -0.937939 0
M  V30 1682 C 153.492 -1.12165 -1.68118 0
M  V30 1683 C 153.813 0.334983 -1.92101 0
M  V30 1684 O 153.083 1.23583 -1.52 0
M  V30 1685 H 151.663 -0.412093 -0.623048 0
M  V30 1686 H 154.325 -1.59027 -1.12678 0
M  V30 1687 H 153.421 -1.64289 -2.6536 0
M  V30 1688 N 153.722 1.14298 -1.08507 0
M  V30 1689 C 154.97 1.84993 -0.813763 0
M  V30 1690 C 155.291 1.83405 0.662393 0
M  V30 1691 O 154.561 1.28319 1.48024 0
M  V30 1692 H 153.141 0.684966 -0.298045 0
M  V30 1693 H 155.803 1.385 -1.37126 0
M  V30 1694 H 154.899 2.89788 -1.15884 0
M  V30 1695 N 155.201 0.870884 1.31352 0
M  V30 1696 C 156.429 0.49677 2.00848 0
M  V30 1697 C 156.844 -0.910998 1.65367 0
M  V30 1698 O 156.201 -1.59696 0.883374 0
M  V30 1699 C 156.252 0.645308 3.55694 0
M  V30 1700 O 155.973 1.99764 3.89905 0
M  V30 1701 C 157.474 0.272326 4.42463 0
M  V30 1702 H 154.694 0.193462 0.642506 0
M  V30 1703 H 157.238 1.1723 1.67563 0
M  V30 1704 H 155.393 0.0173176 3.87396 0
M  V30 1705 H 155.807 2.00607 4.84621 0
M  V30 1706 H 157.281 0.427208 5.50344 0
M  V30 1707 H 157.758 -0.788587 4.32062 0
M  V30 1708 H 158.364 0.876054 4.1618 0
M  V30 1709 N 156.679 -1.44442 0.630414 0
M  V30 1710 C 157.627 -2.32437 -0.0871428 0
M  V30 1711 C 158.621 -1.47304 -0.836525 0
M  V30 1712 O 159.827 -1.63653 -0.749506 0
M  V30 1713 H 156.202 -0.750533 -0.0469495 0
M  V30 1714 H 158.173 -2.90709 0.673096 0
M  V30 1715 C 156.922 -3.31288 -1.05563 0
M  V30 1716 H 156.245 -3.96805 -0.488426 0
M  V30 1717 H 157.685 -3.9554 -1.52721 0
M  V30 1718 C 156.144 -2.6016 -2.14052 0
M  V30 1719 O 156.674 -2.39997 -3.22124 0
M  V30 1720 N 154.88 -2.19911 -1.89967 0
M  V30 1721 H 154.427 -2.36509 -1.02085 0
M  V30 1722 H 154.385 -1.72646 -2.62756 0
M  V30 1723 N 158.157 -0.370918 -1.53173 0
M  V30 1724 C 159.404 0.217102 -2.01333 0
M  V30 1725 C 159.732 1.48338 -1.25802 0
M  V30 1726 O 158.987 1.92698 -0.34146 0
M  V30 1727 C 159.286 0.549696 -3.53147 0
M  V30 1728 C 158.952 -0.622872 -4.46577 0
M  V30 1729 C 157.614 -0.944595 -4.71838 0
M  V30 1730 C 159.966 -1.40819 -5.01816 0
M  V30 1731 C 157.294 -2.05351 -5.49589 0
M  V30 1732 C 159.646 -2.50757 -5.80778 0
M  V30 1733 C 158.31 -2.83458 -6.04324 0
M  V30 1734 H 157.58 0.0794431 -0.736729 0
M  V30 1735 H 160.227 -0.504481 -1.84736 0
M  V30 1736 H 158.532 1.35237 -3.6772 0
M  V30 1737 H 160.229 1.017 -3.87889 0
M  V30 1738 H 156.819 -0.36209 -4.27068 0
M  V30 1739 H 161.003 -1.17289 -4.82242 0
M  V30 1740 H 156.259 -2.3108 -5.6605 0
M  V30 1741 H 160.433 -3.12022 -6.22588 0
M  V30 1742 H 158.06 -3.69508 -6.64355 0
M  V30 1743 N 159.635 1.57281 -0.100228 0
M  V30 1744 C 161.051 1.57527 0.256416 0
M  V30 1745 C 161.251 1.11173 1.68056 0
M  V30 1746 O 160.307 0.79053 2.39806 0
M  V30 1747 C 161.62 3.00673 0.0401747 0
M  V30 1748 C 163.168 3.12815 0.107528 0
M  V30 1749 C 163.643 4.57929 -0.0807834 0
M  V30 1750 N 165.134 4.63193 -0.0261207 0
M  V30 1751 C 165.869 5.73212 -0.146999 0
M  V30 1752 N 165.365 6.92047 -0.322999 0
M  V30 1753 N 167.158 5.62031 -0.0879044 0
M  V30 1754 H 159.309 1.85718 -1.03065 0
M  V30 1755 H 161.572 0.857446 -0.404339 0
M  V30 1756 H 161.278 3.38804 -0.943649 0
M  V30 1757 H 161.152 3.69042 0.780262 0
M  V30 1758 H 163.539 2.74554 1.08186 0
M  V30 1759 H 163.62 2.47028 -0.664134 0
M  V30 1760 H 163.264 4.96886 -1.05201 0
M  V30 1761 H 163.194 5.21783 0.710635 0
M  V30 1762 H 165.685 3.77748 0.107161 0
M  V30 1763 H 165.998 7.7173 -0.406608 0
M  V30 1764 H 164.343 6.94074 -0.358733 0
M  V30 1765 H 167.534 4.68075 0.048498 0
M  V30 1766 H 167.707 6.47734 -0.185557 0
M  V30 1767 N 161.113 -0.173488 1.56642 0
M  V30 1768 C 162.076 -1.19859 1.95362 0
M  V30 1769 C 163.076 -1.37296 0.83704 0
M  V30 1770 O 164.266 -1.34739 1.10413 0
M  V30 1771 C 161.398 -2.56405 2.24654 0
M  V30 1772 H 162.591 -0.867062 2.87092 0
M  V30 1773 H 160.144 -0.415853 1.50666 0
M  V30 1774 H 160.879 -2.94576 1.35631 0
M  V30 1775 H 160.664 -2.45115 3.06041 0
M  V30 1776 H 162.154 -3.30287 2.5554 0
M  V30 1777 N 162.591 -1.51276 -0.441967 0
M  V30 1778 C 163.837 -1.63958 -1.19355 0
M  V30 1779 C 164.17 -0.352543 -1.90973 0
M  V30 1780 O 163.445 0.647627 -1.83401 0
M  V30 1781 C 163.728 -2.83979 -2.21422 0
M  V30 1782 C 163.581 -4.22646 -1.53918 0
M  V30 1783 C 164.9 -2.99521 -3.22451 0
M  V30 1784 H 162.019 -0.596709 -0.432559 0
M  V30 1785 H 164.661 -1.83748 -0.483398 0
M  V30 1786 H 162.811 -2.67237 -2.81987 0
M  V30 1787 H 164.483 -4.51045 -0.967256 0
M  V30 1788 H 162.726 -4.25558 -0.841615 0
M  V30 1789 H 163.397 -5.02609 -2.28229 0
M  V30 1790 H 165.873 -3.14944 -2.71937 0
M  V30 1791 H 164.749 -3.85072 -3.91166 0
M  V30 1792 H 165.01 -2.11391 -3.88287 0
M  V30 1793 N 164.069 0.697108 -1.41344 0
M  V30 1794 C 165.485 1.00751 -1.2378 0
M  V30 1795 C 165.685 2.01105 -0.126066 0
M  V30 1796 O 164.741 2.47295 0.51004 0
M  V30 1797 C 166.054 1.53359 -2.58653 0
M  V30 1798 C 167.602 1.6525 -2.65822 0
M  V30 1799 C 168.077 2.2126 -4.01009 0
M  V30 1800 N 169.568 2.28622 -4.02847 0
M  V30 1801 C 170.303 2.72984 -5.04249 0
M  V30 1802 N 169.799 3.16962 -6.16041 0
M  V30 1803 N 171.592 2.72534 -4.91611 0
M  V30 1804 H 163.743 0.0322662 -2.12375 0
M  V30 1805 H 166.006 0.0768853 -0.944877 0
M  V30 1806 H 165.712 0.870773 -3.4075 0
M  V30 1807 H 165.586 2.51597 -2.81032 0
M  V30 1808 H 167.973 2.30644 -1.84086 0
M  V30 1809 H 168.054 0.655614 -2.47256 0
M  V30 1810 H 167.698 1.56482 -4.83193 0
M  V30 1811 H 167.628 3.21698 -4.16915 0
M  V30 1812 H 170.119 1.97585 -3.22131 0
M  V30 1813 H 170.432 3.49434 -6.89287 0
M  V30 1814 H 168.777 3.14875 -6.1958 0
M  V30 1815 H 171.968 2.37525 -4.0336 0
M  V30 1816 H 172.141 3.06789 -5.70775 0
M  V30 1817 N 165.547 1.27147 0.931209 0
M  V30 1818 C 166.51 1.09615 2.01289 0
M  V30 1819 C 167.51 0.0412581 1.60747 0
M  V30 1820 O 168.7 0.285545 1.71844 0
M  V30 1821 C 165.832 0.669447 3.34262 0
M  V30 1822 H 167.025 2.05662 2.18273 0
M  V30 1823 H 164.578 1.09885 1.11153 0
M  V30 1824 H 165.313 -0.292572 3.22978 0
M  V30 1825 H 165.098 1.43127 3.65044 0
M  V30 1826 H 166.588 0.568921 4.13706 0
M  V30 1827 N 167.025 -1.13721 1.09112 0
M  V30 1828 C 168.25 -1.89314 0.847053 0
M  V30 1829 C 168.675 -1.78416 -0.595774 0
M  V30 1830 O 168.033 -1.12942 -1.41823 0
M  V30 1831 C 168.081 -3.3701 1.28284 0
M  V30 1832 O 167.185 -4.10054 0.439267 0
M  V30 1833 H 166.526 -0.588745 0.307044 0
M  V30 1834 H 169.056 -1.43902 1.45442 0
M  V30 1835 H 169.066 -3.87834 1.26683 0
M  V30 1836 H 167.741 -3.4426 2.33363 0
M  V30 1837 H 166.318 -3.69266 0.519312 0
M  V30 1838 N 168.503 -0.877838 -1.30888 0
M  V30 1839 C 169.433 -0.35534 -2.3078 0
M  V30 1840 C 170.414 0.557994 -1.60687 0
M  V30 1841 O 171.599 0.473355 -1.88343 0
M  V30 1842 C 168.729 0.437221 -3.44537 0
M  V30 1843 C 167.683 -0.383715 -4.26276 0
M  V30 1844 C 167.009 0.535014 -5.32017 0
M  V30 1845 C 168.309 -1.62201 -4.96476 0
M  V30 1846 H 170.003 -1.19007 -2.74732 0
M  V30 1847 H 167.549 -0.573698 -1.32078 0
M  V30 1848 H 169.502 0.813334 -4.13477 0
M  V30 1849 H 168.226 1.30553 -2.99372 0
M  V30 1850 H 166.885 -0.741874 -3.59015 0
M  V30 1851 H 166.533 1.40083 -4.831 0
M  V30 1852 H 166.233 -0.0104211 -5.87599 0
M  V30 1853 H 167.757 0.907799 -6.03814 0
M  V30 1854 H 169.171 -1.31689 -5.5797 0
M  V30 1855 H 167.568 -2.10711 -5.61891 0
M  V30 1856 H 168.638 -2.37044 -4.23011 0
M  V30 1857 N 169.982 1.44106 -0.638065 0
M  V30 1858 C 171.259 1.95453 -0.0759321 0
M  V30 1859 C 171.639 1.57984 1.40015 0
M  V30 1860 O 170.987 0.857361 2.11806 0
M  V30 1861 C 171.197 3.47655 -0.306132 0
M  V30 1862 C 172.545 4.24114 -0.203008 0
M  V30 1863 O 173.569 3.55405 -0.237871 0
M  V30 1864 O 172.428 5.46381 -0.113827 0
M  V30 1865 H 169.522 0.826797 0.0183332 0
M  V30 1866 H 172.068 1.54122 -0.710251 0
M  V30 1867 H 170.84 3.68 -1.3301 0
M  V30 1868 H 170.463 3.95949 0.361991 0
M  V30 1869 N 171.46 0.379036 1.52974 0
M  V30 1870 C 172.708 -0.206014 2.01047 0
M  V30 1871 C 173.029 -1.48175 1.26765 0
M  V30 1872 O 172.299 -1.92085 0.384743 0
M  V30 1873 H 170.879 -0.0791184 0.742798 0
M  V30 1874 H 173.541 0.508366 1.88153 0
M  V30 1875 H 172.637 -0.423501 3.09213 0
M  V30 1876 N 172.938 -1.57226 0.108567 0
M  V30 1877 C 173.885 -2.14756 -0.845481 0
M  V30 1878 C 174.855 -1.06971 -1.27068 0
M  V30 1879 O 176.04 -1.34827 -1.35005 0
M  V30 1880 C 173.18 -2.74298 -2.09415 0
M  V30 1881 C 172.293 -3.96358 -1.71826 0
M  V30 1882 C 171.428 -4.44021 -2.9158 0
M  V30 1883 C 170.467 -5.58637 -2.50181 0
M  V30 1884 N 169.604 -6.01091 -3.62814 0
M  V30 1885 H 174.444 -2.95961 -0.348035 0
M  V30 1886 H 171.981 -1.46226 -0.160106 0
M  V30 1887 H 173.939 -3.06945 -2.82561 0
M  V30 1888 H 172.569 -1.95801 -2.56636 0
M  V30 1889 H 171.621 -3.69939 -0.885947 0
M  V30 1890 H 172.933 -4.79504 -1.37394 0
M  V30 1891 H 172.087 -4.78522 -3.72963 0
M  V30 1892 H 170.826 -3.59803 -3.29231 0
M  V30 1893 H 169.831 -5.23751 -1.67228 0
M  V30 1894 H 171.056 -6.44613 -2.13659 0
M  V30 1895 H 169.002 -5.19817 -4.00158 0
M  V30 1896 H 168.919 -6.79066 -3.32273 0
M  V30 1897 H 170.187 -6.40227 -4.44668 0
M  V30 1898 N 174.416 0.165178 -1.56732 0
M  V30 1899 C 175.664 0.879068 -1.8198 0
M  V30 1900 C 175.985 1.82514 -0.686561 0
M  V30 1901 O 175.255 1.93694 0.293146 0
M  V30 1902 H 173.835 0.327608 -0.671329 0
M  V30 1903 H 176.497 0.163526 -1.94213 0
M  V30 1904 H 175.593 1.45228 -2.76252 0
M  V30 1905 N 175.894 1.51508 0.433938 0
M  V30 1906 C 176.841 1.73068 1.52696 0
M  V30 1907 C 177.811 0.572441 1.55924 0
M  V30 1908 O 178.996 0.807253 1.72882 0
M  V30 1909 C 176.136 1.86474 2.90381 0
M  V30 1910 C 175.249 3.14037 2.96656 0
M  V30 1911 C 174.384 3.18019 4.25485 0
M  V30 1912 C 173.423 4.39882 4.2564 0
M  V30 1913 N 172.56 4.41394 5.45999 0
M  V30 1914 H 177.4 2.66366 1.33615 0
M  V30 1915 H 174.937 1.32008 0.649018 0
M  V30 1916 H 176.895 1.92229 3.70275 0
M  V30 1917 H 175.525 0.965809 3.08013 0
M  V30 1918 H 174.577 3.17575 2.09404 0
M  V30 1919 H 175.889 4.0394 2.92633 0
M  V30 1920 H 175.043 3.22708 5.13755 0
M  V30 1921 H 173.782 2.2601 4.3217 0
M  V30 1922 H 172.787 4.35366 3.35763 0
M  V30 1923 H 174.012 5.33159 4.20617 0
M  V30 1924 H 171.958 3.52258 5.53399 0
M  V30 1925 H 171.875 5.25111 5.4387 0
M  V30 1926 H 173.143 4.50281 6.36292 0
M  V30 1927 N 177.372 -0.689602 1.41712 0
M  V30 1928 C 178.621 -1.44534 1.40686 0
M  V30 1929 C 178.934 -1.95588 0.0213352 0
M  V30 1930 O 180.14 -2.71271 -0.111534 0
M  V30 1931 C 178.596 -2.61387 2.47396 0
M  V30 1932 C 178.204 -2.17094 3.91885 0
M  V30 1933 C 179.948 -3.38986 2.55517 0
M  V30 1934 C 177.855 -3.3094 4.90135 0
M  V30 1935 H 176.785 -0.542925 0.52321 0
M  V30 1936 H 179.436 -0.748054 1.6756 0
M  V30 1937 H 177.818 -3.33412 2.13664 0
M  V30 1938 H 178.992 -1.52318 4.34897 0
M  V30 1939 H 177.307 -1.52473 3.8748 0
M  V30 1940 H 179.904 -4.23747 3.26102 0
M  V30 1941 H 180.247 -3.84578 1.59391 0
M  V30 1942 H 180.78 -2.74021 2.8837 0
M  V30 1943 H 177.519 -2.90355 5.87685 0
M  V30 1944 H 177.039 -3.94546 4.51767 0
M  V30 1945 H 178.718 -3.9663 5.11169 0
M  V30 1946 N 178.85 -1.27639 -0.924453 0
M  V30 1947 C 179.797 -1.10644 -2.0255 0
M  V30 1948 C 180.767 -0.00658438 -1.66099 0
M  V30 1949 O 181.952 -0.16952 -1.90045 0
M  V30 1950 C 179.092 -0.76309 -3.36557 0
M  V30 1951 C 178.205 -1.94091 -3.85944 0
M  V30 1952 C 177.34 -1.53914 -5.08413 0
M  V30 1953 C 176.379 -2.68425 -5.50104 0
M  V30 1954 N 175.516 -2.28815 -6.63768 0
M  V30 1955 H 180.356 -2.04858 -2.16419 0
M  V30 1956 H 177.893 -1.01974 -1.06017 0
M  V30 1957 H 179.851 -0.544822 -4.13627 0
M  V30 1958 H 178.481 0.142102 -3.22487 0
M  V30 1959 H 177.533 -2.27162 -3.05125 0
M  V30 1960 H 178.845 -2.7998 -4.12811 0
M  V30 1961 H 177.999 -1.28231 -5.92994 0
M  V30 1962 H 176.738 -0.651391 -4.8333 0
M  V30 1963 H 175.743 -2.94819 -4.64071 0
M  V30 1964 H 176.968 -3.57826 -5.7718 0
M  V30 1965 H 174.914 -1.42495 -6.40337 0
M  V30 1966 H 174.831 -3.08242 -6.90306 0
M  V30 1967 H 176.099 -2.06387 -7.51681 0
M  V30 1968 N 180.328 1.1314 -1.09713 0
M  V30 1969 C 181.744 1.36477 -0.827423 0
M  V30 1970 C 181.944 1.93654 0.556817 0
M  V30 1971 O 181 2.15791 1.31112 0
M  V30 1972 C 182.313 2.31334 -1.92106 0
M  V30 1973 C 183.861 2.44943 -1.94864 0
M  V30 1974 C 184.336 3.4311 -3.0338 0
M  V30 1975 N 185.827 3.50662 -3.02639 0
M  V30 1976 C 186.562 4.2651 -3.83246 0
M  V30 1977 N 186.058 5.05485 -4.73768 0
M  V30 1978 N 187.851 4.2184 -3.71493 0
M  V30 1979 H 180.002 0.743807 -1.9895 0
M  V30 1980 H 182.265 0.389823 -0.864143 0
M  V30 1981 H 181.971 1.96483 -2.91698 0
M  V30 1982 H 181.845 3.31381 -1.80184 0
M  V30 1983 H 184.232 2.79079 -0.959099 0
M  V30 1984 H 184.313 1.4481 -2.10864 0
M  V30 1985 H 183.957 3.09704 -4.02549 0
M  V30 1986 H 183.887 4.43055 -2.84622 0
M  V30 1987 H 186.378 2.94315 -2.37039 0
M  V30 1988 H 186.691 5.60675 -5.3185 0
M  V30 1989 H 185.036 5.04708 -4.77802 0
M  V30 1990 H 188.227 3.5922 -3.00131 0
M  V30 1991 H 188.4 4.80697 -4.3455 0
M  V30 1992 N 181.806 0.884767 1.30421 0
M  V30 1993 C 183.083 0.423185 1.90967 0
M  V30 1994 C 183.463 -1.09605 1.80416 0
M  V30 1995 O 182.811 -1.93126 1.22125 0
M  V30 1996 C 183.021 0.921056 3.36627 0
M  V30 1997 C 184.369 0.955903 4.137 0
M  V30 1998 O 185.393 0.867706 3.4547 0
M  V30 1999 O 184.252 1.08614 5.35598 0
M  V30 2000 H 181.346 0.129369 0.816819 0
M  V30 2001 H 183.892 0.973653 1.3899 0
M  V30 2002 H 182.664 1.96489 3.3839 0
M  V30 2003 H 182.287 0.349741 3.96059 0
M  V30 2004 N 183.284 -1.43765 0.645699 0
M  V30 2005 C 184.216 -2.29027 -0.0890605 0
M  V30 2006 C 185.229 -1.42093 -0.794563 0
M  V30 2007 O 186.418 -1.66104 -0.653575 0
M  V30 2008 C 183.518 -3.18831 -1.14891 0
M  V30 2009 C 182.691 -4.34261 -0.523043 0
M  V30 2010 C 181.75 -5.04994 -1.47878 0
M  V30 2011 O 180.776 -5.6052 -0.990277 0
M  V30 2012 N 181.978 -5.07795 -2.81291 0
M  V30 2013 H 184.743 -2.92727 0.64272 0
M  V30 2014 H 182.304 -1.54373 0.487924 0
M  V30 2015 H 184.296 -3.63015 -1.78892 0
M  V30 2016 H 182.866 -2.56782 -1.78275 0
M  V30 2017 H 182.086 -3.93088 0.295896 0
M  V30 2018 H 183.374 -5.08728 -0.0858147 0
M  V30 2019 H 182.772 -4.64042 -3.23546 0
M  V30 2020 H 181.329 -5.55721 -3.40614 0
M  V30 2021 N 184.763 -0.387143 -1.52771 0
M  V30 2022 C 185.673 0.456442 -2.30117 0
M  V30 2023 C 186.689 1.07342 -1.36944 0
M  V30 2024 O 187.865 1.07971 -1.70013 0
M  V30 2025 C 184.93 1.56957 -3.09136 0
M  V30 2026 C 183.991 0.977916 -4.18014 0
M  V30 2027 C 183.224 2.038 -4.93256 0
M  V30 2028 O 183.447 3.25271 -4.68567 0
M  V30 2029 O 182.381 1.6565 -5.78657 0
M  V30 2030 H 186.207 -0.17359 -3.03203 0
M  V30 2031 H 183.792 -0.150919 -1.48636 0
M  V30 2032 H 185.674 2.21628 -3.58412 0
M  V30 2033 H 184.349 2.18461 -2.38865 0
M  V30 2034 H 183.256 0.294525 -3.72939 0
M  V30 2035 H 184.589 0.407128 -4.90513 0
M  V30 2036 N 186.241 1.57166 -0.116904 0
M  V30 2037 C 187.469 1.99473 0.549383 0
M  V30 2038 C 187.884 0.996541 1.60357 0
M  V30 2039 O 187.241 -0.0108731 1.82497 0
M  V30 2040 C 187.292 3.41788 1.17741 0
M  V30 2041 O 187.013 4.37788 0.165362 0
M  V30 2042 C 188.514 3.99216 1.92722 0
M  V30 2043 H 185.734 0.655009 0.145616 0
M  V30 2044 H 188.278 2.03494 -0.202625 0
M  V30 2045 H 186.433 3.38713 1.88021 0
M  V30 2046 H 186.847 5.20806 0.621403 0
M  V30 2047 H 188.321 5.00882 2.31995 0
M  V30 2048 H 188.798 3.3824 2.80161 0
M  V30 2049 H 189.404 4.0583 1.27209 0
M  V30 2050 N 187.719 -0.156864 1.56817 0
M  V30 2051 C 188.949 -0.885031 1.86684 0
M  V30 2052 C 189.357 -1.75696 0.701954 0
M  V30 2053 O 188.7 -1.80569 -0.337732 0
M  V30 2054 C 188.762 -1.80092 3.11138 0
M  V30 2055 C 188.426 -1.10714 4.43386 0
M  V30 2056 C 189.423 -0.465714 5.1781 0
M  V30 2057 C 187.108 -1.09959 4.90117 0
M  V30 2058 C 189.102 0.174002 6.37162 0
M  V30 2059 C 186.789 -0.456055 6.09396 0
M  V30 2060 C 187.787 0.179622 6.82764 0
M  V30 2061 O 187.475 0.812975 7.99779 0
M  V30 2062 H 187.207 -0.261813 0.623242 0
M  V30 2063 H 189.761 -0.157383 2.04796 0
M  V30 2064 H 187.991 -2.56926 2.89009 0
M  V30 2065 H 189.68 -2.40018 3.27332 0
M  V30 2066 H 190.446 -0.463427 4.82781 0
M  V30 2067 H 186.325 -1.58378 4.3294 0
M  V30 2068 H 189.869 0.670765 6.94368 0
M  V30 2069 H 185.766 -0.455975 6.43888 0
M  V30 2070 H 186.534 0.71366 8.15383 0
M  V30 2071 N 189.197 -1.51736 -0.425897 0
M  V30 2072 C 190.422 -1.69082 -1.20108 0
M  V30 2073 C 190.847 -0.392398 -1.83962 0
M  V30 2074 O 190.205 0.64858 -1.69302 0
M  V30 2075 C 190.253 -2.81604 -2.25237 0
M  V30 2076 O 189.357 -2.46004 -3.30992 0
M  V30 2077 H 188.698 -0.563408 -0.35138 0
M  V30 2078 H 191.228 -1.98358 -0.501512 0
M  V30 2079 H 191.238 -3.06025 -2.69838 0
M  V30 2080 H 189.913 -3.75817 -1.78142 0
M  V30 2081 H 188.49 -2.32195 -2.91787 0
M  V30 2082 N 190.675 0.682077 -1.42076 0
M  V30 2083 C 191.605 1.80796 -1.47767 0
M  V30 2084 C 192.586 1.6677 -0.334954 0
M  V30 2085 O 193.771 1.863 -0.548264 0
M  V30 2086 C 190.901 3.19038 -1.37229 0
M  V30 2087 C 189.855 3.47789 -2.49453 0
M  V30 2088 C 189.181 4.8553 -2.23975 0
M  V30 2089 C 190.481 3.45411 -3.91776 0
M  V30 2090 H 192.175 1.7629 -2.41997 0
M  V30 2091 H 189.721 0.846721 -1.16476 0
M  V30 2092 H 191.674 3.97528 -1.39821 0
M  V30 2093 H 190.398 3.24204 -0.394907 0
M  V30 2094 H 189.057 2.71657 -2.46166 0
M  V30 2095 H 188.705 4.87337 -1.24547 0
M  V30 2096 H 188.405 5.0573 -2.99184 0
M  V30 2097 H 189.929 5.66312 -2.28304 0
M  V30 2098 H 191.343 4.13882 -3.96705 0
M  V30 2099 H 189.74 3.77145 -4.66778 0
M  V30 2100 H 190.81 2.44122 -4.18966 0
M  V30 2101 N 192.153 1.28127 0.917671 0
M  V30 2102 C 193.1 1.11717 2.0196 0
M  V30 2103 C 194.07 0.0153929 1.66093 0
M  V30 2104 O 195.255 0.179596 1.89953 0
M  V30 2105 C 192.395 0.780927 3.36148 0
M  V30 2106 C 191.508 1.96135 3.84909 0
M  V30 2107 C 190.643 1.56609 5.0759 0
M  V30 2108 C 189.682 2.71339 5.48673 0
M  V30 2109 N 188.819 2.32332 6.62545 0
M  V30 2110 H 193.659 2.06003 2.15329 0
M  V30 2111 H 191.196 1.02535 1.05475 0
M  V30 2112 H 193.154 0.56675 4.13333 0
M  V30 2113 H 191.784 -0.124998 3.22558 0
M  V30 2114 H 190.836 2.28777 3.03916 0
M  V30 2115 H 192.148 2.82165 4.1132 0
M  V30 2116 H 191.302 1.31374 5.92305 0
M  V30 2117 H 190.041 0.677014 4.82978 0
M  V30 2118 H 189.046 2.97276 4.62501 0
M  V30 2119 H 190.271 3.60882 5.75274 0
M  V30 2120 H 188.217 1.45889 6.39572 0
M  V30 2121 H 188.134 3.11899 6.88662 0
M  V30 2122 H 189.402 2.10371 7.50576 0
M  V30 2123 N 193.631 -1.12557 1.10312 0
M  V30 2124 C 194.878 -1.84038 0.844759 0
M  V30 2125 C 195.206 -1.84026 -0.629668 0
M  V30 2126 O 194.461 -1.28026 -1.48013 0
M  V30 2127 C 194.76 -3.31462 1.33669 0
M  V30 2128 C 194.426 -3.51647 2.82232 0
M  V30 2129 C 193.088 -3.56864 3.22802 0
M  V30 2130 C 195.44 -3.58867 3.77974 0
M  V30 2131 C 192.768 -3.66844 4.57867 0
M  V30 2132 C 195.12 -3.70375 5.1284 0
M  V30 2133 C 193.784 -3.73848 5.52986 0
M  V30 2134 H 193.054 -0.673444 0.309119 0
M  V30 2135 H 195.701 -1.32824 1.37949 0
M  V30 2136 H 194.006 -3.85091 0.721949 0
M  V30 2137 H 195.703 -3.85236 1.11329 0
M  V30 2138 H 192.293 -3.48249 2.49842 0
M  V30 2139 H 196.477 -3.54107 3.47738 0
M  V30 2140 H 191.733 -3.67804 4.88396 0
M  V30 2141 H 195.907 -3.74904 5.86873 0
M  V30 2142 H 193.534 -3.81333 6.57639 0
M  V30 2143 N 195.109 -0.891671 -1.2995 0
M  V30 2144 C 196.337 -0.52866 -2.00032 0
M  V30 2145 C 196.752 0.884574 -1.66795 0
M  V30 2146 O 196.109 1.5827 -0.908669 0
M  V30 2147 C 196.16 -0.701814 -3.54622 0
M  V30 2148 O 195.881 -2.05942 -3.86678 0
M  V30 2149 C 197.382 -0.342683 -4.41973 0
M  V30 2150 H 194.602 -0.203659 -0.639347 0
M  V30 2151 H 197.146 -1.19881 -1.65677 0
M  V30 2152 H 195.301 -0.0789468 -3.8732 0
M  V30 2153 H 195.715 -2.08291 -4.81368 0
M  V30 2154 H 197.189 -0.514709 -5.49595 0
M  V30 2155 H 197.666 0.71975 -4.33262 0
M  V30 2156 H 198.272 -0.942154 -4.14733 0
M  V30 2157 N 196.587 1.43421 -0.653314 0
M  V30 2158 C 197.835 2.01414 -0.166415 0
M  V30 2159 C 198.156 1.51803 1.22397 0
M  V30 2160 O 197.426 0.730693 1.81763 0
M  V30 2161 H 196.006 0.744703 -0.0585319 0
M  V30 2162 H 198.668 1.75629 -0.845003 0
M  V30 2163 H 197.764 3.11734 -0.151111 0
M  V30 2164 N 198.065 0.39524 1.52563 0
M  V30 2165 C 199.29 -0.187456 2.06551 0
M  V30 2166 C 199.715 -1.39249 1.26457 0
M  V30 2167 O 199.073 -1.78947 0.291151 0
M  V30 2168 C 199.121 -0.529985 3.56684 0
M  V30 2169 O 198.225 -1.62307 3.79118 0
M  V30 2170 H 197.566 -0.0202537 0.663691 0
M  V30 2171 H 200.096 0.564426 1.96661 0
M  V30 2172 H 200.106 -0.792598 4.00227 0
M  V30 2173 H 198.781 0.350987 4.14416 0
M  V30 2174 H 197.358 -1.3537 3.47461 0
M  V30 2175 N 199.544 -1.57102 0.125237 0
M  V30 2176 C 200.774 -1.99472 -0.538015 0
M  V30 2177 C 201.182 -1.00395 -1.60366 0
M  V30 2178 O 200.525 0.0103875 -1.83697 0
M  V30 2179 C 200.587 -3.38262 -1.21734 0
M  V30 2180 C 200.251 -4.56021 -0.298897 0
M  V30 2181 C 201.248 -5.17817 0.464943 0
M  V30 2182 C 198.933 -5.01869 -0.208149 0
M  V30 2183 C 200.927 -6.23852 1.3072 0
M  V30 2184 C 198.614 -6.07763 0.637736 0
M  V30 2185 C 199.612 -6.68622 1.39403 0
M  V30 2186 O 199.3 -7.7247 2.22586 0
M  V30 2187 H 199.032 -0.659934 -0.146501 0
M  V30 2188 H 201.586 -2.04321 0.210267 0
M  V30 2189 H 199.816 -3.30185 -2.01282 0
M  V30 2190 H 201.505 -3.6488 -1.77813 0
M  V30 2191 H 202.271 -4.83308 0.404741 0
M  V30 2192 H 198.15 -4.54241 -0.786522 0
M  V30 2193 H 201.694 -6.71284 1.898 0
M  V30 2194 H 197.591 -6.41701 0.699309 0
M  V30 2195 H 198.359 -7.89595 2.15596 0
M  V30 2196 N 201.022 0.148545 -1.56898 0
M  V30 2197 C 202.247 0.880385 -1.87787 0
M  V30 2198 C 202.672 1.74018 -0.714093 0
M  V30 2199 O 202.03 1.78153 0.336343 0
M  V30 2200 C 202.078 1.71422 -3.17249 0
M  V30 2201 O 201.182 2.8183 -3.01074 0
M  V30 2202 H 200.523 0.245301 -0.617028 0
M  V30 2203 H 203.053 0.139826 -2.04122 0
M  V30 2204 H 203.063 2.10954 -3.49231 0
M  V30 2205 H 201.738 1.08284 -4.01556 0
M  V30 2206 H 200.315 2.45715 -2.80497 0
M  V30 2207 N 202.5 1.5196 0.417844 0
M  V30 2208 C 203.45 1.7106 1.5074 0
M  V30 2209 C 204.434 0.564487 1.50673 0
M  V30 2210 O 205.626 0.821206 1.56797 0
M  V30 2211 C 202.755 1.85677 2.88754 0
M  V30 2212 C 201.841 3.06133 2.93502 0
M  V30 2213 N 202.232 4.28987 2.67962 0
M  V30 2214 C 200.53 3.05787 3.24669 0
M  V30 2215 C 201.231 5.10395 2.79055 0
M  V30 2216 N 200.207 4.45455 3.11561 0
M  V30 2217 H 204.009 2.63696 1.29775 0
M  V30 2218 H 201.523 1.49873 0.625436 0
M  V30 2219 H 203.52 1.97475 3.67164 0
M  V30 2220 H 202.18 0.942348 3.10725 0
M  V30 2221 H 203.191 4.57607 2.4252 0
M  V30 2222 H 199.868 2.2405 3.52289 0
M  V30 2223 H 201.258 6.18247 2.63097 0
M  V30 2224 N 203.978 -0.674533 1.42435 0
M  V30 2225 C 204.888 -1.81751 1.48337 0
M  V30 2226 C 205.904 -1.69975 0.372099 0
M  V30 2227 O 207.08 -1.91521 0.62304 0
M  V30 2228 C 204.145 -3.17895 1.38361 0
M  V30 2229 C 203.206 -3.41625 2.59982 0
M  V30 2230 C 202.439 -4.71274 2.50473 0
M  V30 2231 O 202.662 -5.49197 1.54075 0
M  V30 2232 O 201.596 -4.96254 3.4061 0
M  V30 2233 H 205.422 -1.79728 2.44809 0
M  V30 2234 H 203.007 -0.830312 1.24202 0
M  V30 2235 H 204.889 -3.99136 1.35161 0
M  V30 2236 H 203.564 -3.20555 0.450144 0
M  V30 2237 H 202.471 -2.60231 2.68757 0
M  V30 2238 H 203.804 -3.43796 3.52229 0
M  V30 2239 N 205.456 -1.28612 -0.910864 0
M  V30 2240 C 206.403 -1.12786 -2.01365 0
M  V30 2241 C 207.373 -0.024201 -1.66082 0
M  V30 2242 O 208.558 -0.189667 -1.89855 0
M  V30 2243 C 205.698 -0.798743 -3.35729 0
M  V30 2244 C 204.811 -1.98173 -3.83864 0
M  V30 2245 C 203.946 -1.59298 -5.06752 0
M  V30 2246 C 202.985 -2.74245 -5.47226 0
M  V30 2247 N 202.122 -2.35842 -6.61304 0
M  V30 2248 H 206.962 -2.07142 -2.14234 0
M  V30 2249 H 204.499 -1.03093 -1.0493 0
M  V30 2250 H 206.457 -0.588662 -4.13026 0
M  V30 2251 H 205.087 0.10789 -3.2262 0
M  V30 2252 H 204.139 -2.30386 -3.02699 0
M  V30 2253 H 205.451 -2.84343 -4.09818 0
M  V30 2254 H 204.605 -1.34513 -5.916 0
M  V30 2255 H 203.344 -0.702618 -4.82612 0
M  V30 2256 H 202.349 -2.99725 -4.60918 0
M  V30 2257 H 203.574 -3.63928 -5.73353 0
M  V30 2258 H 201.52 -1.49279 -6.38789 0
M  V30 2259 H 201.437 -3.15546 -6.86998 0
M  V30 2260 H 202.705 -2.14348 -7.4945 0
M  V30 2261 N 206.934 1.1197 -1.10907 0
M  V30 2262 C 208.182 1.83225 -0.852819 0
M  V30 2263 C 208.503 1.84769 0.623341 0
M  V30 2264 O 207.773 1.3143 1.45269 0
M  V30 2265 H 206.353 0.67849 -0.312507 0
M  V30 2266 H 209.015 1.3556 -1.40033 0
M  V30 2267 H 208.111 2.87265 -1.22005 0
M  V30 2268 N 208.412 0.89855 1.29475 0
M  V30 2269 C 209.342 0.39201 2.30186 0
M  V30 2270 C 210.323 -0.532359 1.61555 0
M  V30 2271 O 211.508 -0.443331 1.89072 0
M  V30 2272 C 208.638 -0.382353 3.45189 0
M  V30 2273 C 207.592 0.451483 4.25612 0
M  V30 2274 C 206.918 -0.450307 5.328 0
M  V30 2275 C 208.218 1.70079 4.93832 0
M  V30 2276 H 209.912 1.23362 2.72804 0
M  V30 2277 H 207.458 0.594638 1.31149 0
M  V30 2278 H 209.411 -0.747451 4.14718 0
M  V30 2279 H 208.135 -1.25774 3.01411 0
M  V30 2280 H 206.794 0.798897 3.57789 0
M  V30 2281 H 206.442 -1.32379 4.85268 0
M  V30 2282 H 206.142 0.103902 5.87508 0
M  V30 2283 H 207.666 -0.811623 6.05182 0
M  V30 2284 H 209.08 1.40549 5.55805 0
M  V30 2285 H 207.477 2.19623 5.58467 0
M  V30 2286 H 208.547 2.43744 4.19186 0
M  V30 2287 N 209.89 -1.43072 0.660911 0
M  V30 2288 C 210.82 -2.33497 -0.0122829 0
M  V30 2289 C 211.801 -1.49903 -0.803925 0
M  V30 2290 O 212.986 -1.78546 -0.763864 0
M  V30 2291 C 210.116 -3.33363 -0.973994 0
M  V30 2292 C 209.07 -4.27003 -0.291928 0
M  V30 2293 C 208.396 -5.16967 -1.36562 0
M  V30 2294 C 209.696 -5.15816 0.820462 0
M  V30 2295 H 211.39 -2.90038 0.742873 0
M  V30 2296 H 208.936 -1.39461 0.358688 0
M  V30 2297 H 210.889 -3.95524 -1.45392 0
M  V30 2298 H 209.613 -2.75095 -1.7604 0
M  V30 2299 H 208.272 -3.66217 0.167623 0
M  V30 2300 H 207.92 -4.55034 -2.14366 0
M  V30 2301 H 207.62 -5.80441 -0.914454 0
M  V30 2302 H 209.144 -5.82003 -1.84675 0
M  V30 2303 H 210.558 -5.71742 0.422366 0
M  V30 2304 H 208.955 -5.8805 1.19656 0
M  V30 2305 H 210.025 -4.55045 1.67518 0
M  V30 2306 N 211.368 -0.403325 -1.52352 0
M  V30 2307 C 212.645 0.232611 -1.94212 0
M  V30 2308 C 213.025 1.63133 -1.33981 0
M  V30 2309 O 212.373 2.22659 -0.513344 0
M  V30 2310 C 212.583 0.244811 -3.4814 0
M  V30 2311 C 213.931 0.46698 -4.22024 0
M  V30 2312 O 214.955 0.324419 -3.5472 0
M  V30 2313 O 213.814 0.74747 -5.41364 0
M  V30 2314 H 210.908 0.148223 -0.813609 0
M  V30 2315 H 213.454 -0.458848 -1.63379 0
M  V30 2316 H 212.226 -0.734378 -3.84347 0
M  V30 2317 H 211.849 0.980611 -3.85318 0
M  V30 2318 N 212.846 1.57033 -0.133567 0
M  V30 2319 C 213.793 2.16074 0.811208 0
M  V30 2320 C 214.763 1.08979 1.2535 0
M  V30 2321 O 215.948 1.36958 1.32843 0
M  V30 2322 C 213.088 2.77595 2.05024 0
M  V30 2323 C 212.201 3.99042 1.65498 0
M  V30 2324 C 211.336 4.48603 2.84479 0
M  V30 2325 C 210.375 5.62547 2.41262 0
M  V30 2326 N 209.512 6.06787 3.53206 0
M  V30 2327 H 214.352 2.96477 0.300906 0
M  V30 2328 H 211.889 1.46462 0.136822 0
M  V30 2329 H 213.847 3.11402 2.77642 0
M  V30 2330 H 212.477 1.99859 2.53488 0
M  V30 2331 H 211.529 3.71302 0.826981 0
M  V30 2332 H 212.841 4.81629 1.29748 0
M  V30 2333 H 211.995 4.84395 3.65303 0
M  V30 2334 H 210.734 3.64995 3.23465 0
M  V30 2335 H 209.739 5.26345 1.58874 0
M  V30 2336 H 210.964 6.47931 2.03377 0
M  V30 2337 H 208.91 5.26117 3.91838 0
M  V30 2338 H 208.827 6.84266 3.21427 0
M  V30 2339 H 210.095 6.4722 4.34427 0
M  V30 2340 N 214.325 -0.140222 1.56975 0
M  V30 2341 C 215.275 -1.17827 1.95194 0
M  V30 2342 C 216.259 -1.38195 0.824075 0
M  V30 2343 O 217.451 -1.39643 1.0876 0
M  V30 2344 C 214.58 -2.51024 2.34184 0
M  V30 2345 C 213.666 -2.3422 3.53556 0
M  V30 2346 N 214.057 -1.87185 4.69889 0
M  V30 2347 C 212.355 -2.64949 3.58773 0
M  V30 2348 C 213.056 -1.83586 5.5197 0
M  V30 2349 N 212.032 -2.2715 4.93866 0
M  V30 2350 H 215.834 -0.806817 2.82609 0
M  V30 2351 H 213.348 -0.348208 1.58623 0
M  V30 2352 H 215.345 -3.26074 2.59772 0
M  V30 2353 H 214.005 -2.88945 1.48124 0
M  V30 2354 H 215.016 -1.57048 4.93514 0
M  V30 2355 H 211.693 -3.067 2.8327 0
M  V30 2356 H 213.083 -1.48655 6.55249 0
M  V30 2357 N 215.803 -1.52179 -0.40978 0
M  V30 2358 C 216.766 -1.74853 -1.48186 0
M  V30 2359 C 217.766 -0.618417 -1.48433 0
M  V30 2360 O 218.956 -0.886286 -1.49969 0
M  V30 2361 C 216.088 -1.8303 -2.87598 0
M  V30 2362 H 217.281 -2.70559 -1.29374 0
M  V30 2363 H 214.834 -1.42586 -0.640233 0
M  V30 2364 H 215.569 -0.89236 -3.11781 0
M  V30 2365 H 215.354 -2.65187 -2.88822 0
M  V30 2366 H 216.844 -2.02316 -3.65319 0
M  V30 2367 N 217.281 0.66697 -1.42791 0
M  V30 2368 C 218.509 1.45505 -1.47091 0
M  V30 2369 C 218.924 1.8861 -0.0845873 0
M  V30 2370 O 218.281 1.58632 0.90234 0
M  V30 2371 C 218.332 2.69906 -2.40485 0
M  V30 2372 O 218.053 2.28608 -3.73725 0
M  V30 2373 C 219.554 3.63396 -2.53886 0
M  V30 2374 H 216.774 0.447459 -0.500022 0
M  V30 2375 H 219.318 0.818866 -1.8739 0
M  V30 2376 H 217.473 3.29696 -2.03419 0
M  V30 2377 H 217.887 3.08997 -4.23817 0
M  V30 2378 H 219.361 4.47387 -3.2334 0
M  V30 2379 H 219.838 4.09824 -1.57927 0
M  V30 2380 H 220.444 3.09495 -2.91706 0
M  V30 2381 N 218.759 1.29093 0.90403 0
M  V30 2382 C 219.722 1.1386 1.98919 0
M  V30 2383 C 220.722 0.0753457 1.60623 0
M  V30 2384 O 221.912 0.321931 1.71199 0
M  V30 2385 C 219.044 0.740198 3.32767 0
M  V30 2386 H 220.237 2.10246 2.13861 0
M  V30 2387 H 217.79 1.12218 1.08797 0
M  V30 2388 H 218.525 -0.223997 3.23525 0
M  V30 2389 H 218.31 1.50838 3.61926 0
M  V30 2390 H 219.8 0.656546 4.12407 0
M  V30 2391 N 220.237 -1.11381 1.11499 0
M  V30 2392 C 221.462 -1.87475 0.887019 0
M  V30 2393 C 221.887 -1.79639 -0.557796 0
M  V30 2394 O 221.245 -1.15924 -1.39396 0
M  V30 2395 C 221.293 -3.34213 1.35403 0
M  V30 2396 O 220.397 -4.0903 0.526146 0
M  V30 2397 H 219.738 -0.582099 0.319463 0
M  V30 2398 H 222.268 -1.40785 1.48461 0
M  V30 2399 H 222.278 -3.8506 1.34881 0
M  V30 2400 H 220.953 -3.39232 2.40612 0
M  V30 2401 H 219.53 -3.68082 0.597522 0
M  V30 2402 N 221.715 -0.905404 -1.28997 0
M  V30 2403 C 222.647 -0.344748 -2.26592 0
M  V30 2404 C 223.66 0.512135 -1.54535 0
M  V30 2405 O 224.849 0.328368 -1.75454 0
M  V30 2406 C 221.949 0.526587 -3.34784 0
M  V30 2407 C 221.122 -0.305871 -4.36329 0
M  V30 2408 C 220.181 0.499209 -5.23827 0
M  V30 2409 O 219.207 -0.0853004 -5.69136 0
M  V30 2410 N 220.409 1.80408 -5.51755 0
M  V30 2411 H 223.174 -1.18359 -2.75338 0
M  V30 2412 H 220.735 -0.770481 -1.42391 0
M  V30 2413 H 222.727 1.07171 -3.90252 0
M  V30 2414 H 221.297 1.26613 -2.85811 0
M  V30 2415 H 220.517 -1.0324 -3.80441 0
M  V30 2416 H 221.805 -0.875773 -5.01206 0
M  V30 2417 H 221.203 2.3016 -5.16762 0
M  V30 2418 H 219.76 2.29621 -6.10014 0
M  V30 2419 N 223.193 1.4272 -0.668489 0
M  V30 2420 C 224.123 2.335 -0.000100175 0
M  V30 2421 C 225.104 1.50328 0.795964 0
M  V30 2422 O 226.289 1.78949 0.754385 0
M  V30 2423 C 223.419 3.33874 0.956302 0
M  V30 2424 C 222.373 4.27152 0.269278 0
M  V30 2425 C 221.699 5.17684 1.33818 0
M  V30 2426 C 222.999 5.15373 -0.847805 0
M  V30 2427 H 224.693 2.89639 -0.758244 0
M  V30 2428 H 222.239 1.39269 -0.366079 0
M  V30 2429 H 224.192 3.9629 1.43292 0
M  V30 2430 H 222.916 2.76025 1.74579 0
M  V30 2431 H 221.575 3.66123 -0.187042 0
M  V30 2432 H 221.223 4.56165 2.1195 0
M  V30 2433 H 220.923 5.80918 0.883659 0
M  V30 2434 H 222.447 5.82974 1.81586 0
M  V30 2435 H 223.861 5.7151 -0.452681 0
M  V30 2436 H 222.258 5.87407 -1.22773 0
M  V30 2437 H 223.328 4.5415 -1.69929 0
M  V30 2438 N 224.671 0.411399 1.52136 0
M  V30 2439 C 225.918 -0.163645 2.01838 0
M  V30 2440 C 226.246 -1.4495 1.29691 0
M  V30 2441 O 225.501 -1.91725 0.392431 0
M  V30 2442 C 225.8 -0.455872 3.54481 0
M  V30 2443 C 225.466 0.741055 4.44769 0
M  V30 2444 C 224.128 1.06936 4.69167 0
M  V30 2445 C 226.48 1.54075 4.97906 0
M  V30 2446 C 223.808 2.19851 5.43951 0
M  V30 2447 C 226.16 2.66067 5.73926 0
M  V30 2448 C 224.824 2.99381 5.96596 0
M  V30 2449 H 224.094 -0.0598821 0.738576 0
M  V30 2450 H 226.741 0.553283 1.83333 0
M  V30 2451 H 225.046 -1.2544 3.71177 0
M  V30 2452 H 226.743 -0.913802 3.90449 0
M  V30 2453 H 223.333 0.475192 4.25958 0
M  V30 2454 H 227.517 1.30033 4.78963 0
M  V30 2455 H 222.773 2.46006 5.59724 0
M  V30 2456 H 226.947 3.28419 6.14096 0
M  V30 2457 H 224.574 3.86992 6.54325 0
M  V30 2458 N 226.149 -1.5696 0.141893 0
M  V30 2459 C 227.426 -1.87553 -0.555281 0
M  V30 2460 C 227.806 -1.04699 -1.83306 0
M  V30 2461 O 227.154 -0.132346 -2.28116 0
M  V30 2462 C 227.364 -3.39093 -0.825664 0
M  V30 2463 C 228.712 -4.08199 -1.16869 0
M  V30 2464 O 229.736 -3.44242 -0.915185 0
M  V30 2465 O 228.595 -5.21139 -1.6455 0
M  V30 2466 H 225.689 -0.777188 -0.282679 0
M  V30 2467 H 228.235 -1.68763 0.17812 0
M  V30 2468 H 227.007 -3.91221 0.0788633 0
M  V30 2469 H 226.63 -3.63393 -1.61343 0
M  V30 2470 N 227.627 0.131896 -1.57047 0
M  V30 2471 C 228.577 1.1679 -1.95816 0
M  V30 2472 C 229.561 1.37756 -0.831393 0
M  V30 2473 O 230.753 1.39065 -1.09499 0
M  V30 2474 C 227.882 2.49778 -2.35512 0
M  V30 2475 C 226.968 2.32342 -3.54793 0
M  V30 2476 N 227.359 1.8469 -4.70875 0
M  V30 2477 C 225.657 2.63043 -3.60173 0
M  V30 2478 C 226.358 1.80656 -5.52936 0
M  V30 2479 N 225.334 2.24528 -4.95064 0
M  V30 2480 H 229.136 0.791818 -2.83033 0
M  V30 2481 H 226.65 0.339791 -1.58805 0
M  V30 2482 H 228.647 3.24692 -2.61498 0
M  V30 2483 H 227.307 2.88156 -1.49654 0
M  V30 2484 H 228.318 1.54429 -4.9434 0
M  V30 2485 H 224.995 3.05193 -2.84892 0
M  V30 2486 H 226.385 1.45178 -6.56028 0
M  V30 2487 N 229.106 1.52395 0.401703 0
M  V30 2488 C 230.353 1.66817 1.14796 0
M  V30 2489 C 230.681 0.401772 1.90305 0
M  V30 2490 O 229.936 -0.615487 1.85769 0
M  V30 2491 C 230.235 2.84578 2.16217 0
M  V30 2492 C 229.901 4.22513 1.5746 0
M  V30 2493 C 228.563 4.60029 1.41161 0
M  V30 2494 C 230.915 5.0844 1.14622 0
M  V30 2495 C 228.243 5.81144 0.80552 0
M  V30 2496 C 230.595 6.30167 0.55428 0
M  V30 2497 C 229.259 6.66426 0.378482 0
M  V30 2498 H 228.529 0.610428 0.420069 0
M  V30 2499 H 231.176 1.86512 0.434212 0
M  V30 2500 H 229.481 2.59248 2.93764 0
M  V30 2501 H 231.178 2.92933 2.73845 0
M  V30 2502 H 227.768 3.92953 1.71132 0
M  V30 2503 H 231.952 4.80034 1.26021 0
M  V30 2504 H 227.208 6.07855 0.657399 0
M  V30 2505 H 231.382 6.96071 0.213983 0
M  V30 2506 H 229.009 7.60143 -0.0932606 0
M  V30 2507 N 230.584 -0.659388 1.43143 0
M  V30 2508 C 231.547 -1.75432 1.47501 0
M  V30 2509 C 232.547 -1.56707 0.360512 0
M  V30 2510 O 233.737 -1.62717 0.622002 0
M  V30 2511 C 230.869 -3.14239 1.32162 0
M  V30 2512 H 232.062 -1.7295 2.45006 0
M  V30 2513 H 229.615 -0.870469 1.29817 0
M  V30 2514 H 230.35 -3.22336 0.356401 0
M  V30 2515 H 230.135 -3.29235 2.12948 0
M  V30 2516 H 231.625 -3.94094 1.3813 0
M  V30 2517 N 232.062 -1.29571 -0.897171 0
M  V30 2518 C 232.972 -1.16808 -2.03453 0
M  V30 2519 C 233.988 -0.0907471 -1.73763 0
M  V30 2520 O 235.164 -0.303312 -1.99103 0
M  V30 2521 C 232.229 -0.848264 -3.36163 0
M  V30 2522 C 231.29 -2.0097 -3.79354 0
M  V30 2523 C 230.523 -1.70505 -5.05731 0
M  V30 2524 O 230.746 -0.62718 -5.66941 0
M  V30 2525 O 229.68 -2.5538 -5.45036 0
M  V30 2526 H 233.506 -2.12325 -2.17144 0
M  V30 2527 H 231.091 -1.09047 -1.02123 0
M  V30 2528 H 232.973 -0.684581 -4.15802 0
M  V30 2529 H 231.648 0.0771071 -3.23608 0
M  V30 2530 H 230.555 -2.22863 -3.00471 0
M  V30 2531 H 231.888 -2.91636 -3.96496 0
M  V30 2532 N 233.54 1.10788 -1.12088 0
M  V30 2533 C 234.956 1.34691 -0.856186 0
M  V30 2534 C 235.156 1.94791 0.515615 0
M  V30 2535 O 234.212 2.18524 1.26505 0
M  V30 2536 C 235.525 2.27208 -1.9697 0
M  V30 2537 C 237.073 2.40755 -2.00016 0
M  V30 2538 C 237.548 3.36598 -3.1059 0
M  V30 2539 N 239.039 3.44164 -3.10008 0
M  V30 2540 C 239.774 4.18284 -3.92206 0
M  V30 2541 N 239.27 4.95322 -4.84384 0
M  V30 2542 N 241.063 4.13865 -3.80357 0
M  V30 2543 H 233.214 0.70144 -2.00483 0
M  V30 2544 H 235.477 0.371405 -0.872217 0
M  V30 2545 H 235.183 1.90251 -2.958 0
M  V30 2546 H 235.057 3.27485 -1.87172 0
M  V30 2547 H 237.444 2.76982 -1.01808 0
M  V30 2548 H 237.525 1.40305 -2.13888 0
M  V30 2549 H 237.169 3.01096 -4.09028 0
M  V30 2550 H 237.099 4.36918 -2.93956 0
M  V30 2551 H 239.59 2.8922 -2.43228 0
M  V30 2552 H 239.903 5.49267 -5.43623 0
M  V30 2553 H 238.248 4.94459 -4.884 0
M  V30 2554 H 241.439 3.52773 -3.07683 0
M  V30 2555 H 241.612 4.71372 -4.44649 0
M  V30 2556 N 235.018 0.912232 1.28515 0
M  V30 2557 C 236.267 0.540504 1.94323 0
M  V30 2558 C 236.58 -0.920044 1.72611 0
M  V30 2559 O 237.786 -1.39986 2.32629 0
M  V30 2560 C 236.242 0.915803 3.48053 0
M  V30 2561 C 235.85 2.39598 3.78546 0
M  V30 2562 C 237.594 0.614588 4.20027 0
M  V30 2563 C 235.501 2.71148 5.25578 0
M  V30 2564 H 234.431 0.198418 0.727424 0
M  V30 2565 H 237.082 1.11094 1.46049 0
M  V30 2566 H 235.464 0.274168 3.9505 0
M  V30 2567 H 236.638 3.08422 3.42364 0
M  V30 2568 H 234.953 2.66749 3.1974 0
M  V30 2569 H 237.55 0.827002 5.28266 0
M  V30 2570 H 237.893 -0.447531 4.13887 0
M  V30 2571 H 238.426 1.21462 3.78803 0
M  V30 2572 H 235.165 3.76207 5.36794 0
M  V30 2573 H 234.685 2.0696 5.62963 0
M  V30 2574 H 236.364 2.58072 5.93302 0
M  V30 2575 N 236.496 -1.42363 0.676048 0
M  V30 2576 C 237.443 -2.308 -0.00150904 0
M  V30 2577 C 238.413 -1.46032 -0.791444 0
M  V30 2578 O 239.598 -1.74861 -0.76344 0
M  V30 2579 C 236.738 -3.31883 -0.945919 0
M  V30 2580 C 235.851 -4.31741 -0.149675 0
M  V30 2581 C 234.986 -5.19898 -1.08995 0
M  V30 2582 C 234.025 -6.11434 -0.285465 0
M  V30 2583 N 233.162 -6.92138 -1.17851 0
M  V30 2584 H 238.002 -2.88187 0.758455 0
M  V30 2585 H 235.539 -1.41952 0.38576 0
M  V30 2586 H 237.497 -3.89019 -1.50731 0
M  V30 2587 H 236.127 -2.76093 -1.6725 0
M  V30 2588 H 235.179 -3.76713 0.528359 0
M  V30 2589 H 236.491 -4.96534 0.474866 0
M  V30 2590 H 235.645 -5.81772 -1.72123 0
M  V30 2591 H 234.384 -4.55284 -1.74837 0
M  V30 2592 H 233.389 -5.48627 0.359018 0
M  V30 2593 H 234.614 -6.78097 0.368883 0
M  V30 2594 H 232.56 -6.30152 -1.82332 0
M  V30 2595 H 232.477 -7.53542 -0.609082 0
M  V30 2596 H 233.745 -7.58499 -1.79722 0
M  V30 2597 N 237.974 -0.419461 -1.51915 0
M  V30 2598 C 239.204 0.151915 -2.06041 0
M  V30 2599 C 239.612 1.38539 -1.28855 0
M  V30 2600 O 238.955 1.80592 -0.336463 0
M  V30 2601 C 239.017 0.557119 -3.55157 0
M  V30 2602 C 238.681 -0.567054 -4.53468 0
M  V30 2603 C 239.678 -1.43379 -4.99738 0
M  V30 2604 C 237.363 -0.742693 -4.96779 0
M  V30 2605 C 239.357 -2.46102 -5.87973 0
M  V30 2606 C 237.044 -1.77322 -5.84808 0
M  V30 2607 C 238.042 -2.63078 -6.30301 0
M  V30 2608 O 237.73 -3.64364 -7.16585 0
M  V30 2609 H 237.462 0.0193293 -0.675724 0
M  V30 2610 H 240.016 -0.592073 -1.96682 0
M  V30 2611 H 238.246 1.35355 -3.62238 0
M  V30 2612 H 239.935 1.05759 -3.9188 0
M  V30 2613 H 240.701 -1.30954 -4.66986 0
M  V30 2614 H 236.58 -0.0848307 -4.60922 0
M  V30 2615 H 240.124 -3.13071 -6.23404 0
M  V30 2616 H 236.021 -1.89773 -6.16974 0
M  V30 2617 H 236.789 -3.60731 -7.34721 0
M  V30 2618 N 239.452 1.56882 -0.150215 0
M  V30 2619 C 240.701 1.95403 0.500071 0
M  V30 2620 C 241.014 1.03777 1.658 0
M  V30 2621 O 242.22 1.31889 2.37313 0
M  V30 2622 C 240.676 3.4738 0.941018 0
M  V30 2623 C 240.284 4.47596 -0.190158 0
M  V30 2624 C 242.028 3.9476 1.56091 0
M  V30 2625 C 239.935 5.90787 0.269237 0
M  V30 2626 H 238.865 0.729515 0.190588 0
M  V30 2627 H 241.516 1.81988 -0.235074 0
M  V30 2628 H 239.898 3.56138 1.73152 0
M  V30 2629 H 241.072 4.50536 -0.967157 0
M  V30 2630 H 239.387 4.10151 -0.718666 0
M  V30 2631 H 241.984 4.99181 1.9163 0
M  V30 2632 H 242.327 3.36494 2.45107 0
M  V30 2633 H 242.86 3.88932 0.835249 0
M  V30 2634 H 239.599 6.52879 -0.585621 0
M  V30 2635 H 239.119 5.912 1.01204 0
M  V30 2636 H 240.798 6.42979 0.720176 0
M  V30 2637 N 240.93 -0.123565 1.57115 0
M  V30 2638 C 241.863 -1.18202 1.95201 0
M  V30 2639 C 242.841 -1.40349 0.821031 0
M  V30 2640 O 244.025 -1.54578 1.07879 0
M  V30 2641 C 241.152 -2.53671 2.24429 0
M  V30 2642 C 240.198 -2.4798 3.46999 0
M  V30 2643 S 241.031 -1.92389 4.99747 0
M  V30 2644 C 242.187 -3.2954 5.32123 0
M  V30 2645 H 242.42 -0.857212 2.84674 0
M  V30 2646 H 239.953 -0.33014 1.50829 0
M  V30 2647 H 241.911 -3.3162 2.41947 0
M  V30 2648 H 240.572 -2.83332 1.35579 0
M  V30 2649 H 239.765 -3.47758 3.64801 0
M  V30 2650 H 239.367 -1.7815 3.28844 0
M  V30 2651 H 241.659 -4.25736 5.27025 0
M  V30 2652 H 242.602 -3.16569 6.33395 0
M  V30 2653 H 243.01 -3.27758 4.59603 0
M  V30 2654 N 242.408 -1.52605 -0.393616 0
M  V30 2655 C 243.656 -1.67093 -1.13685 0
M  V30 2656 C 243.977 -0.411011 -1.90619 0
M  V30 2657 O 243.247 0.574491 -1.87287 0
M  V30 2658 H 241.827 -0.615923 -0.422668 0
M  V30 2659 H 244.489 -1.89704 -0.447039 0
M  V30 2660 H 243.585 -2.51922 -1.84232 0
M  V30 2661 N 243.887 0.651787 -1.4349 0
M  V30 2662 C 244.797 1.79368 -1.5121 0
M  V30 2663 C 245.813 1.69361 -0.399093 0
M  V30 2664 O 246.989 1.90505 -0.653431 0
M  V30 2665 C 244.054 3.15653 -1.43401 0
M  V30 2666 C 243.115 3.37446 -2.65384 0
M  V30 2667 C 242.348 4.67229 -2.57939 0
M  V30 2668 O 242.571 5.46676 -1.62792 0
M  V30 2669 O 241.505 4.90773 -3.48462 0
M  V30 2670 H 245.331 1.7581 -2.47638 0
M  V30 2671 H 242.916 0.810447 -1.25507 0
M  V30 2672 H 244.798 3.96935 -1.41494 0
M  V30 2673 H 243.473 3.19798 -0.501085 0
M  V30 2674 H 242.38 2.55923 -2.72863 0
M  V30 2675 H 243.713 3.38148 -3.57654 0
M  V30 2676 N 245.365 1.30045 0.890287 0
M  V30 2677 C 246.612 1.18561 1.64163 0
M  V30 2678 C 246.94 -0.260852 1.92743 0
M  V30 2679 O 246.195 -1.20376 1.54299 0
M  V30 2680 C 246.494 1.95409 2.99249 0
M  V30 2681 C 246.16 3.45066 2.90242 0
M  V30 2682 C 244.822 3.85878 2.87492 0
M  V30 2683 C 247.174 4.4039 2.78758 0
M  V30 2684 C 244.502 5.20314 2.7109 0
M  V30 2685 C 246.854 5.74928 2.63894 0
M  V30 2686 C 245.518 6.14986 2.59516 0
M  V30 2687 H 244.788 0.433846 0.600715 0
M  V30 2688 H 247.435 1.61088 1.03552 0
M  V30 2689 H 245.74 1.45501 3.63781 0
M  V30 2690 H 247.437 1.8392 3.56334 0
M  V30 2691 H 244.027 3.12631 2.93189 0
M  V30 2692 H 248.211 4.09806 2.79952 0
M  V30 2693 H 243.467 5.50449 2.66112 0
M  V30 2694 H 247.641 6.48434 2.53981 0
M  V30 2695 H 245.268 7.19104 2.46565 0
M  V30 2696 N 246.843 -1.10192 1.12674 0
M  V30 2697 C 247.791 -2.18694 0.792196 0
M  V30 2698 C 248.785 -1.67938 -0.222058 0
M  V30 2699 O 249.991 -1.79822 -0.0800074 0
M  V30 2700 H 246.366 -0.713223 0.238364 0
M  V30 2701 H 248.337 -2.44149 1.71564 0
M  V30 2702 C 247.086 -3.46682 0.265859 0
M  V30 2703 H 246.409 -3.86101 1.03761 0
M  V30 2704 H 247.849 -4.23942 0.0701128 0
M  V30 2705 C 246.308 -3.21506 -1.00675 0
M  V30 2706 O 246.838 -3.43408 -2.08408 0
M  V30 2707 N 245.044 -2.75158 -0.934692 0
M  V30 2708 H 244.591 -2.57535 -0.0578604 0
M  V30 2709 H 244.549 -2.58691 -1.7868 0
M  V30 2710 N 248.321 -0.919034 -1.28029 0
M  V30 2711 C 249.598 -0.473668 -1.89778 0
M  V30 2712 C 249.978 1.04783 -1.83259 0
M  V30 2713 O 249.326 1.8982 -1.27202 0
M  V30 2714 C 249.536 -1.00998 -3.34066 0
M  V30 2715 C 250.884 -1.06525 -4.1102 0
M  V30 2716 O 251.908 -0.958996 -3.43048 0
M  V30 2717 O 250.767 -1.22776 -5.3253 0
M  V30 2718 H 247.861 -0.15098 -0.813101 0
M  V30 2719 H 250.407 -1.01016 -1.36359 0
M  V30 2720 H 249.179 -2.05392 -3.33061 0
M  V30 2721 H 248.802 -0.454626 -3.94992 0
M  V30 2722 N 249.799 1.42003 -0.683588 0
M  V30 2723 C 250.729 2.33487 -0.024866 0
M  V30 2724 C 251.71 1.51163 0.779975 0
M  V30 2725 O 252.895 1.79739 0.735362 0
M  V30 2726 C 250.025 3.3487 0.920836 0
M  V30 2727 C 248.979 4.27414 0.223958 0
M  V30 2728 C 248.305 5.19074 1.2832 0
M  V30 2729 C 249.605 5.14445 -0.90242 0
M  V30 2730 H 251.299 2.88819 -0.788921 0
M  V30 2731 H 248.845 1.38873 -0.38083 0
M  V30 2732 H 250.798 3.97787 1.39081 0
M  V30 2733 H 249.522 2.77861 1.71642 0
M  V30 2734 H 248.181 3.65904 -0.225864 0
M  V30 2735 H 247.829 4.58387 2.071 0
M  V30 2736 H 247.529 5.81822 0.821995 0
M  V30 2737 H 249.053 5.84867 1.75392 0
M  V30 2738 H 250.467 5.70998 -0.513272 0
M  V30 2739 H 248.864 5.86072 -1.28997 0
M  V30 2740 H 249.934 4.52322 -1.74737 0
M  V30 2741 N 251.277 0.427512 1.51691 0
M  V30 2742 C 252.554 -0.201684 1.94557 0
M  V30 2743 C 252.934 -1.60981 1.36559 0
M  V30 2744 O 252.282 -2.21814 0.548702 0
M  V30 2745 C 252.492 -0.189394 3.48486 0
M  V30 2746 C 253.84 -0.39978 4.22714 0
M  V30 2747 O 254.864 -0.267945 3.55191 0
M  V30 2748 O 253.723 -0.661249 5.42485 0
M  V30 2749 H 250.817 -0.135261 0.815864 0
M  V30 2750 H 253.363 0.484782 1.62628 0
M  V30 2751 H 252.135 0.795431 3.8313 0
M  V30 2752 H 251.758 -0.919187 3.86829 0
M  V30 2753 N 252.755 -1.56801 0.158532 0
M  V30 2754 C 253.703 -2.18638 -0.793729 0
M  V30 2755 C 254.697 -1.14669 -1.24689 0
M  V30 2756 O 255.903 -1.32895 -1.21403 0
M  V30 2757 H 252.278 -0.700226 -0.274204 0
M  V30 2758 H 254.249 -2.97367 -0.248095 0
M  V30 2759 C 252.998 -2.83139 -2.0181 0
M  V30 2760 H 252.321 -3.62863 -1.67841 0
M  V30 2761 H 253.761 -3.29894 -2.66357 0
M  V30 2762 C 252.22 -1.82244 -2.83353 0
M  V30 2763 O 252.75 -1.3 -3.80083 0
M  V30 2764 N 250.956 -1.51288 -2.48114 0
M  V30 2765 H 250.503 -1.93964 -1.69516 0
M  V30 2766 H 250.461 -0.840296 -3.02963 0
M  V30 2767 N 254.233 0.115231 -1.57178 0
M  V30 2768 C 255.18 1.14115 -2.00615 0
M  V30 2769 C 256.15 1.40939 -0.878941 0
M  V30 2770 O 257.335 1.52741 -1.14345 0
M  V30 2771 C 254.475 2.46156 -2.4187 0
M  V30 2772 C 253.588 2.26236 -3.68024 0
M  V30 2773 C 252.723 3.51534 -3.98243 0
M  V30 2774 C 251.762 3.26787 -5.17568 0
M  V30 2775 N 250.899 4.44298 -5.43639 0
M  V30 2776 H 255.739 0.763743 -2.88047 0
M  V30 2777 H 253.276 0.365615 -1.42484 0
M  V30 2778 H 255.234 3.23189 -2.63827 0
M  V30 2779 H 253.864 2.81783 -1.57475 0
M  V30 2780 H 252.916 1.40102 -3.5366 0
M  V30 2781 H 254.228 2.03929 -4.55208 0
M  V30 2782 H 253.382 4.36984 -4.20868 0
M  V30 2783 H 252.121 3.76876 -3.09541 0
M  V30 2784 H 251.126 2.39729 -4.94783 0
M  V30 2785 H 252.351 3.02812 -6.0785 0
M  V30 2786 H 250.297 4.69754 -4.57895 0
M  V30 2787 H 250.214 4.25109 -6.25154 0
M  V30 2788 H 251.482 5.3087 -5.70786 0
M  V30 2789 N 255.711 1.52812 0.385517 0
M  V30 2790 C 256.621 1.80766 1.49535 0
M  V30 2791 C 257.637 0.694651 1.59532 0
M  V30 2792 O 258.813 0.982611 1.75803 0
M  V30 2793 C 255.878 1.97381 2.85029 0
M  V30 2794 C 254.939 3.21295 2.84724 0
M  V30 2795 C 254.172 3.37108 4.13756 0
M  V30 2796 O 254.395 2.5765 5.08893 0
M  V30 2797 O 253.329 4.30378 4.20783 0
M  V30 2798 H 257.155 2.75015 1.28842 0
M  V30 2799 H 254.74 1.37946 0.573697 0
M  V30 2800 H 256.622 2.09996 3.65349 0
M  V30 2801 H 255.297 1.06322 3.05741 0
M  V30 2802 H 254.204 3.1412 2.03174 0
M  V30 2803 H 255.537 4.12212 2.68965 0
M  V30 2804 N 257.189 -0.644168 1.43834 0
M  V30 2805 C 258.435 -1.40603 1.46146 0
M  V30 2806 C 258.768 -1.93997 0.0887717 0
M  V30 2807 O 258.043 -1.72854 -0.891724 0
M  V30 2808 C 258.326 -2.58086 2.51124 0
M  V30 2809 C 258.179 -2.10126 3.97702 0
M  V30 2810 C 259.498 -3.60291 2.52742 0
M  V30 2811 H 256.617 -0.509905 0.532134 0
M  V30 2812 H 259.259 -0.729502 1.75437 0
M  V30 2813 H 257.409 -3.15801 2.26278 0
M  V30 2814 H 259.081 -1.57342 4.33637 0
M  V30 2815 H 257.324 -1.41419 4.10101 0
M  V30 2816 H 257.995 -2.94649 4.66783 0
M  V30 2817 H 260.471 -3.12352 2.7491 0
M  V30 2818 H 259.347 -4.40032 3.28121 0
M  V30 2819 H 259.608 -4.1349 1.56455 0
M  V30 2820 N 258.668 -1.30515 -0.883378 0
M  V30 2821 C 259.615 -1.17032 -1.98927 0
M  V30 2822 C 260.585 -0.0594241 -1.65994 0
M  V30 2823 O 261.77 -0.229895 -1.8941 0
M  V30 2824 C 258.91 -0.869777 -3.33959 0
M  V30 2825 C 258.023 -2.06271 -3.79574 0
M  V30 2826 C 257.158 -1.70011 -5.03259 0
M  V30 2827 C 256.197 -2.8579 -5.41286 0
M  V30 2828 N 255.334 -2.49816 -6.56153 0
M  V30 2829 H 260.174 -2.1164 -2.09792 0
M  V30 2830 H 257.711 -1.05296 -1.02719 0
M  V30 2831 H 259.669 -0.676138 -4.11685 0
M  V30 2832 H 258.299 0.0394332 -3.22776 0
M  V30 2833 H 257.351 -2.36755 -2.97744 0
M  V30 2834 H 258.663 -2.92971 -4.03694 0
M  V30 2835 H 257.817 -1.47032 -5.88614 0
M  V30 2836 H 256.556 -0.804829 -4.81013 0
M  V30 2837 H 255.561 -3.09434 -4.54456 0
M  V30 2838 H 256.786 -3.76008 -5.65504 0
M  V30 2839 H 254.732 -1.62795 -6.35479 0
M  V30 2840 H 254.649 -3.30048 -6.8015 0
M  V30 2841 H 255.917 -2.30197 -7.44735 0
M  V30 2842 N 260.146 1.09593 -1.13257 0
M  V30 2843 C 261.371 1.8604 -0.916732 0
M  V30 2844 C 261.796 1.80504 0.529146 0
M  V30 2845 O 261.154 1.18127 1.37534 0
M  V30 2846 C 261.202 3.32017 -1.40703 0
M  V30 2847 O 260.306 4.08141 -0.591153 0
M  V30 2848 H 259.647 0.576943 -0.328683 0
M  V30 2849 H 262.177 1.38405 -1.50682 0
M  V30 2850 H 262.187 3.82865 -1.4099 0
M  V30 2851 H 260.862 3.35361 -2.45979 0
M  V30 2852 H 259.439 3.67084 -0.656005 0
M  V30 2853 N 261.624 0.925811 1.2754 0
M  V30 2854 C 262.87 0.566092 1.94739 0
M  V30 2855 C 263.203 -0.890057 1.72603 0
M  V30 2856 O 262.478 -1.63467 1.05399 0
M  V30 2857 C 262.761 0.89054 3.48915 0
M  V30 2858 C 262.614 2.4003 3.80402 0
M  V30 2859 C 263.933 0.395101 4.38323 0
M  V30 2860 H 261.052 0.20714 0.707292 0
M  V30 2861 H 263.694 1.15725 1.50691 0
M  V30 2862 H 261.844 0.387452 3.86563 0
M  V30 2863 H 263.516 2.97494 3.52555 0
M  V30 2864 H 261.759 2.85028 3.2702 0
M  V30 2865 H 262.43 2.57785 4.8811 0
M  V30 2866 H 264.906 0.826241 4.07814 0
M  V30 2867 H 263.782 0.651086 5.45025 0
M  V30 2868 H 264.043 -0.704798 4.36446 0
M  V30 2869 N 263.102 -1.41638 0.69111 0
M  V30 2870 C 264.35 -2.00902 0.219758 0
M  V30 2871 C 264.671 -1.54994 -1.18329 0
M  V30 2872 O 263.941 -0.778628 -1.79762 0
M  V30 2873 H 262.521 -0.74289 0.0782558 0
M  V30 2874 H 265.183 -1.73327 0.891271 0
M  V30 2875 H 264.279 -3.11224 0.233708 0
M  V30 2876 N 264.58 -0.43555 -1.51462 0
M  V30 2877 C 265.827 0.131514 -2.02072 0
M  V30 2878 C 266.155 1.42868 -1.31981 0
M  V30 2879 O 265.41 1.91076 -0.422883 0
M  V30 2880 C 265.709 0.39942 -3.55161 0
M  V30 2881 C 265.375 -0.81172 -4.43533 0
M  V30 2882 C 264.037 -1.14387 -4.67407 0
M  V30 2883 C 266.389 -1.61976 -4.95392 0
M  V30 2884 C 263.717 -2.28477 -5.40384 0
M  V30 2885 C 266.069 -2.75164 -5.6962 0
M  V30 2886 C 264.733 -3.08835 -5.91758 0
M  V30 2887 H 264.003 0.0481244 -0.739436 0
M  V30 2888 H 266.65 -0.58238 -1.8243 0
M  V30 2889 H 264.955 1.19519 -3.73125 0
M  V30 2890 H 266.652 0.85157 -3.91854 0
M  V30 2891 H 263.242 -0.542898 -4.25148 0
M  V30 2892 H 267.426 -1.37637 -4.76833 0
M  V30 2893 H 262.682 -2.5488 -5.55739 0
M  V30 2894 H 266.856 -3.38147 -6.08793 0
M  V30 2895 H 264.483 -3.97353 -6.48086 0
M  V30 2896 N 266.058 1.56714 -0.166846 0
M  V30 2897 C 267.286 2.0112 0.485644 0
M  V30 2898 C 267.701 1.04705 1.57106 0
M  V30 2899 O 267.058 0.0471923 1.82439 0
M  V30 2900 C 267.109 3.45361 1.06808 0
M  V30 2901 O 266.83 4.38092 0.0259995 0
M  V30 2902 C 268.331 4.05145 1.79924 0
M  V30 2903 H 265.551 0.65931 0.124704 0
M  V30 2904 H 268.095 2.02746 -0.267262 0
M  V30 2905 H 266.25 3.44524 1.7715 0
M  V30 2906 H 266.664 5.22519 0.455398 0
M  V30 2907 H 268.138 5.08009 2.15942 0
M  V30 2908 H 268.615 3.46982 2.69258 0
M  V30 2909 H 269.221 4.09672 1.14234 0
M  V30 2910 N 267.536 -0.106894 1.57237 0
M  V30 2911 C 268.783 -0.812526 1.85484 0
M  V30 2912 C 269.111 -1.79304 0.753687 0
M  V30 2913 O 268.366 -1.94047 -0.253853 0
M  V30 2914 C 268.665 -1.58628 3.20268 0
M  V30 2915 C 268.331 -0.748967 4.44636 0
M  V30 2916 C 266.993 -0.518104 4.78403 0
M  V30 2917 C 269.345 -0.166122 5.20935 0
M  V30 2918 C 266.673 0.305659 5.85903 0
M  V30 2919 C 269.025 0.644899 6.29304 0
M  V30 2920 C 267.689 0.885965 6.61594 0
M  V30 2921 H 266.959 -0.297324 0.678734 0
M  V30 2922 H 269.606 -0.0744332 1.91355 0
M  V30 2923 H 267.911 -2.39562 3.10028 0
M  V30 2924 H 269.608 -2.13643 3.39349 0
M  V30 2925 H 266.198 -0.939006 4.18187 0
M  V30 2926 H 270.382 -0.33167 4.95191 0
M  V30 2927 H 265.638 0.501528 6.0934 0
M  V30 2928 H 269.812 1.10345 6.87602 0
M  V30 2929 H 267.439 1.52609 7.44725 0
M  V30 2930 N 269.014 -1.53014 -0.377408 0
M  V30 2931 C 270.239 -1.72818 -1.14668 0
M  V30 2932 C 270.664 -0.450725 -1.8262 0
M  V30 2933 O 270.022 0.59439 -1.7128 0
M  V30 2934 C 270.07 -2.88627 -2.16164 0
M  V30 2935 O 269.174 -2.56409 -3.22998 0
M  V30 2936 H 268.515 -0.574301 -0.333278 0
M  V30 2937 H 271.045 -1.99853 -0.438152 0
M  V30 2938 H 271.055 -3.14455 -2.59966 0
M  V30 2939 H 269.73 -3.81294 -1.66095 0
M  V30 2940 H 268.307 -2.4136 -2.84253 0
M  V30 2941 N 270.492 0.636531 -1.44174 0
M  V30 2942 C 271.739 1.39619 -1.46672 0
M  V30 2943 C 272.067 1.94257 -0.0972691 0
M  V30 2944 O 271.322 1.73768 0.900175 0
M  V30 2945 C 271.621 2.58309 -2.47005 0
M  V30 2946 C 271.287 2.21992 -3.92467 0
M  V30 2947 C 269.949 2.118 -4.32081 0
M  V30 2948 C 272.301 1.9321 -4.84065 0
M  V30 2949 C 269.629 1.71007 -5.61225 0
M  V30 2950 C 271.981 1.53911 -6.13591 0
M  V30 2951 C 270.645 1.42257 -6.52165 0
M  V30 2952 H 269.915 0.510902 -0.536712 0
M  V30 2953 H 272.562 0.722328 -1.77355 0
M  V30 2954 H 270.867 3.30903 -2.09786 0
M  V30 2955 H 272.564 3.16533 -2.46186 0
M  V30 2956 H 269.154 2.30841 -3.61124 0
M  V30 2957 H 273.338 1.99997 -4.54219 0
M  V30 2958 H 268.594 1.60583 -5.89935 0
M  V30 2959 H 272.768 1.30677 -6.8403 0
M  V30 2960 H 270.395 1.10419 -7.52138 0
M  V30 2961 N 271.97 1.30982 0.876444 0
M  V30 2962 C 273.381 1.18277 1.44456 0
M  V30 2963 C 273.732 -0.213265 1.95037 0
M  V30 2964 O 272.857 -1.11057 1.85729 0
M  V30 2965 C 273.452 2.1411 2.62569 0
M  V30 2966 C 272.011 2.05358 3.15444 0
M  V30 2967 C 271.158 2.03706 1.88146 0
M  V30 2968 H 274.109 1.43127 0.685584 0
M  V30 2969 H 274.13 1.72692 3.39054 0
M  V30 2970 H 273.642 3.15706 2.25724 0
M  V30 2971 H 271.743 1.06934 3.56926 0
M  V30 2972 H 271.856 2.94156 3.78166 0
M  V30 2973 H 270.22 1.48629 2.06837 0
M  V30 2974 H 271.003 3.07047 1.53547 0
M  V30 2975 N 273.449 -1.08991 1.13837 0
M  V30 2976 C 274.689 -1.82867 0.913183 0
M  V30 2977 C 275.053 -1.83936 -0.550604 0
M  V30 2978 O 276.254 -2.53515 -0.893515 0
M  V30 2979 C 274.525 -3.24843 1.49036 0
M  V30 2980 S 276.084 -4.15669 1.40588 0
M  V30 2981 H 272.902 -0.630278 0.329046 0
M  V30 2982 H 275.504 -1.31049 1.45073 0
M  V30 2983 H 274.208 -3.21644 2.54899 0
M  V30 2984 H 273.739 -3.81734 0.950947 0
M  V30 2985 H 275.754 -4.94686 0.387353 0
M  V30 2986 N 274.927 -0.932562 -1.27047 0
M  V30 2987 C 276.155 -0.592031 -1.98249 0
M  V30 2988 C 276.57 0.831062 -1.69525 0
M  V30 2989 O 275.927 1.55299 -0.958561 0
M  V30 2990 C 275.978 -0.814279 -3.5221 0
M  V30 2991 O 275.699 -2.18139 -3.7993 0
M  V30 2992 C 277.2 -0.483121 -4.4066 0
M  V30 2993 H 274.42 -0.223896 -0.632544 0
M  V30 2994 H 276.964 -1.25091 -1.61779 0
M  V30 2995 H 275.119 -0.20213 -3.86872 0
M  V30 2996 H 275.533 -2.235 -4.74498 0
M  V30 2997 H 277.007 -0.689298 -5.47679 0
M  V30 2998 H 277.484 0.581546 -4.35333 0
M  V30 2999 H 278.09 -1.07362 -4.11526 0
M  V30 3000 N 276.405 1.4127 -0.698611 0
M  V30 3001 C 277.63 2.06024 -0.238512 0
M  V30 3002 C 278.055 1.5224 1.10475 0
M  V30 3003 O 277.413 0.650623 1.69223 0
M  V30 3004 C 277.461 3.59988 -0.209952 0
M  V30 3005 O 276.565 4.04282 0.814235 0
M  V30 3006 H 275.906 0.653829 -0.115775 0
M  V30 3007 H 278.436 1.8098 -0.954326 0
M  V30 3008 H 278.446 4.07979 -0.0418436 0
M  V30 3009 H 277.121 3.98503 -1.1903 0
M  V30 3010 H 275.698 3.6779 0.615234 0
M  V30 3011 N 277.883 0.443576 1.51229 0
M  V30 3012 C 279.294 -0.0180867 1.86691 0
M  V30 3013 C 279.645 -1.41384 1.36033 0
M  V30 3014 O 278.77 -2.04291 0.713722 0
M  V30 3015 C 279.365 -0.039597 3.38777 0
M  V30 3016 C 277.924 -0.445692 3.73752 0
M  V30 3017 C 277.071 0.357584 2.74985 0
M  V30 3018 H 280.022 0.659138 1.44364 0
M  V30 3019 H 280.043 -0.847761 3.70936 0
M  V30 3020 H 279.555 0.976382 3.75617 0
M  V30 3021 H 277.656 -1.46704 3.42503 0
M  V30 3022 H 277.769 -0.166155 4.78812 0
M  V30 3023 H 276.133 -0.184973 2.54027 0
M  V30 3024 H 276.916 1.37256 3.14668 0
M  V30 3025 N 279.361 -1.56624 0.175154 0
M  V30 3026 C 280.586 -2.01813 -0.478137 0
M  V30 3027 C 281.011 -1.05457 -1.55757 0
M  V30 3028 O 280.369 -0.0347439 -1.81267 0
M  V30 3029 C 280.417 -3.45581 -1.02987 0
M  V30 3030 O 279.521 -3.52305 -2.14371 0
M  V30 3031 H 278.862 -0.65413 -0.114059 0
M  V30 3032 H 281.392 -2.02673 0.280173 0
M  V30 3033 H 281.402 -3.84965 -1.35151 0
M  V30 3034 H 280.077 -4.1521 -0.239556 0
M  V30 3035 H 278.654 -3.24783 -1.83222 0
M  V30 3036 N 280.839 0.0985539 -1.57292 0
M  V30 3037 C 282.088 0.801358 -1.85098 0
M  V30 3038 C 282.401 1.80066 -0.763902 0
M  V30 3039 O 283.607 2.55112 -0.928981 0
M  V30 3040 C 282.063 1.47599 -3.28242 0
M  V30 3041 C 281.671 0.516624 -4.45011 0
M  V30 3042 C 283.415 2.16272 -3.65276 0
M  V30 3043 C 281.322 1.19564 -5.79188 0
M  V30 3044 H 280.252 0.303022 -0.69043 0
M  V30 3045 H 282.903 0.0542623 -1.8342 0
M  V30 3046 H 281.285 2.27042 -3.2445 0
M  V30 3047 H 282.459 -0.246065 -4.60143 0
M  V30 3048 H 280.774 -0.064227 -4.1635 0
M  V30 3049 H 283.371 2.67802 -4.62803 0
M  V30 3050 H 283.714 2.95009 -2.93727 0
M  V30 3051 H 284.247 1.43693 -3.70941 0
M  V30 3052 H 280.986 0.449157 -6.53959 0
M  V30 3053 H 280.506 1.92984 -5.67906 0
M  V30 3054 H 282.185 1.7231 -6.23633 0
M  V30 3055 N 282.317 1.53212 0.369288 0
M  V30 3056 C 283.265 1.80054 1.47253 0
M  V30 3057 C 284.259 0.669456 1.55611 0
M  V30 3058 O 285.465 0.852328 1.58541 0
M  V30 3059 H 281.84 0.570034 0.490475 0
M  V30 3060 H 283.811 2.72403 1.21817 0
M  V30 3061 C 282.56 2.00403 2.84137 0
M  V30 3062 H 281.883 2.86876 2.78464 0
M  V30 3063 H 283.323 2.23164 3.60519 0
M  V30 3064 C 281.782 0.782081 3.27697 0
M  V30 3065 O 282.312 -0.0310205 4.01688 0
M  V30 3066 N 280.518 0.606573 2.84199 0
M  V30 3067 H 280.065 1.26939 2.24152 0
M  V30 3068 H 280.023 -0.20962 3.137 0
M  V30 3069 N 283.795 -0.628877 1.44509 0
M  V30 3070 C 285.035 -1.39993 1.48934 0
M  V30 3071 C 285.399 -1.91627 0.119604 0
M  V30 3072 O 286.6 -2.68772 0.0385283 0
M  V30 3073 C 284.871 -2.53241 2.52198 0
M  V30 3074 S 286.43 -3.41383 2.75687 0
M  V30 3075 H 283.248 -0.477558 0.526744 0
M  V30 3076 H 285.85 -0.727804 1.81448 0
M  V30 3077 H 284.554 -2.13622 3.50419 0
M  V30 3078 H 284.085 -3.25278 2.21264 0
M  V30 3079 H 286.1 -4.50752 2.07453 0
M  V30 3080 N 285.273 -1.31445 -0.869486 0
M  V30 3081 C 286.498 -1.24256 -1.66058 0
M  V30 3082 C 286.923 0.188928 -1.87149 0
M  V30 3083 O 286.281 1.13522 -1.4136 0
M  V30 3084 C 286.329 -1.9924 -3.00559 0
M  V30 3085 O 285.433 -1.33007 -3.90362 0
M  V30 3086 H 284.774 -0.428973 -0.506831 0
M  V30 3087 H 287.304 -1.73521 -1.08404 0
M  V30 3088 H 287.314 -2.08854 -3.50491 0
M  V30 3089 H 285.989 -3.03342 -2.84528 0
M  V30 3090 H 284.566 -1.31848 -3.48813 0
M  V30 3091 N 286.751 1.08385 -1.14413 0
M  V30 3092 C 288 1.80153 -0.907076 0
M  V30 3093 C 288.313 1.87176 0.567851 0
M  V30 3094 O 289.519 2.55359 0.922172 0
M  V30 3095 C 287.975 3.23687 -1.57336 0
M  V30 3096 C 287.583 3.24897 -3.08457 0
M  V30 3097 C 289.327 4.00136 -1.41744 0
M  V30 3098 C 287.234 4.6302 -3.67921 0
M  V30 3099 H 286.164 0.675139 -0.335714 0
M  V30 3100 H 288.815 1.21733 -1.37307 0
M  V30 3101 H 287.197 3.82234 -1.03505 0
M  V30 3102 H 288.371 2.76055 -3.68958 0
M  V30 3103 H 286.686 2.61943 -3.2369 0
M  V30 3104 H 289.283 5.02201 -1.83572 0
M  V30 3105 H 289.626 4.14709 -0.363576 0
M  V30 3106 H 290.159 3.48058 -1.92614 0
M  V30 3107 H 286.898 4.5365 -4.73161 0
M  V30 3108 H 286.418 5.12143 -3.12201 0
M  V30 3109 H 288.097 5.31994 -3.68227 0
M  V30 3110 N 288.23 0.939286 1.26551 0
M  V30 3111 C 289.16 0.465044 2.28822 0
M  V30 3112 C 290.141 -0.480692 1.63167 0
M  V30 3113 O 291.326 -0.382955 1.90387 0
M  V30 3114 C 288.456 -0.27234 3.46231 0
M  V30 3115 C 287.41 0.58666 4.2396 0
M  V30 3116 C 286.736 -0.280573 5.33963 0
M  V30 3117 C 288.036 1.85704 4.88171 0
M  V30 3118 H 289.73 1.31979 2.68741 0
M  V30 3119 H 287.276 0.636061 1.29191 0
M  V30 3120 H 289.229 -0.615133 4.16886 0
M  V30 3121 H 287.953 -1.16121 3.0526 0
M  V30 3122 H 286.612 0.91232 3.55067 0
M  V30 3123 H 286.26 -1.16874 4.89234 0
M  V30 3124 H 285.96 0.29076 5.8688 0
M  V30 3125 H 287.484 -0.618678 6.07458 0
M  V30 3126 H 288.898 1.58161 5.51052 0
M  V30 3127 H 287.295 2.37279 5.51197 0
M  V30 3128 H 288.365 2.56957 4.11219 0
M  V30 3129 N 289.708 -1.40897 0.706093 0
M  V30 3130 C 290.957 -2.00284 0.238574 0
M  V30 3131 C 291.27 -1.56604 -1.17194 0
M  V30 3132 O 292.476 -2.08624 -1.73748 0
M  V30 3133 C 290.932 -3.57934 0.375623 0
M  V30 3134 C 290.54 -4.10591 1.79217 0
M  V30 3135 C 292.284 -4.24488 -0.0315857 0
M  V30 3136 C 290.191 -5.60712 1.88032 0
M  V30 3137 H 289.121 -0.749144 0.0854398 0
M  V30 3138 H 291.772 -1.61251 0.875813 0
M  V30 3139 H 290.154 -3.94622 -0.330042 0
M  V30 3140 H 291.328 -3.85301 2.52745 0
M  V30 3141 H 289.643 -3.56601 2.15 0
M  V30 3142 H 292.24 -5.34698 0.0136842 0
M  V30 3143 H 292.583 -4.02261 -1.072 0
M  V30 3144 H 293.116 -3.92873 0.624181 0
M  V30 3145 H 289.855 -5.87781 2.90161 0
M  V30 3146 H 289.375 -5.87896 1.18903 0
M  V30 3147 H 291.054 -6.25658 1.64805 0
M  V30 3148 N 291.186 -0.45159 -1.50991 0
M  V30 3149 C 292.463 0.170707 -1.94854 0
M  V30 3150 C 292.843 1.58788 -1.39103 0
M  V30 3151 O 292.191 2.20913 -0.583921 0
M  V30 3152 C 292.401 0.133929 -3.48743 0
M  V30 3153 C 293.749 0.33248 -4.23296 0
M  V30 3154 O 294.773 0.211403 -3.55572 0
M  V30 3155 O 293.632 0.57486 -5.43468 0
M  V30 3156 H 290.726 0.122264 -0.817912 0
M  V30 3157 H 293.272 -0.510594 -1.61836 0
M  V30 3158 H 292.044 -0.856283 -3.81816 0
M  V30 3159 H 291.667 0.857529 -3.88242 0
M  V30 3160 N 292.664 1.56529 -0.183458 0
M  V30 3161 C 293.91 1.98304 0.452466 0
M  V30 3162 C 294.265 1.06799 1.60037 0
M  V30 3163 O 293.558 0.110049 1.91284 0
M  V30 3164 C 293.752 3.43939 0.971637 0
M  V30 3165 C 293.581 4.49528 -0.124425 0
M  V30 3166 C 292.351 5.01981 -0.578168 0
M  V30 3167 C 294.549 5.05836 -0.929207 0
M  V30 3168 N 292.531 5.91219 -1.65327 0
M  V30 3169 C 293.902 5.91632 -1.85396 0
M  V30 3170 C 295.957 4.88302 -0.972929 0
M  V30 3171 C 294.66 6.61768 -2.81878 0
M  V30 3172 C 296.686 5.59168 -1.92574 0
M  V30 3173 C 296.048 6.44701 -2.83795 0
M  V30 3174 H 292.147 0.770551 0.133324 0
M  V30 3175 H 294.731 1.92581 -0.286473 0
M  V30 3176 H 292.902 3.50184 1.68006 0
M  V30 3177 H 294.634 3.72702 1.5772 0
M  V30 3178 H 291.389 4.73282 -0.173639 0
M  V30 3179 H 291.813 6.40543 -2.19167 0
M  V30 3180 H 296.455 4.21861 -0.28168 0
M  V30 3181 H 294.173 7.27415 -3.51984 0
M  V30 3182 H 297.759 5.47582 -1.96583 0
M  V30 3183 H 296.639 6.98573 -3.56322 0
M  V30 3184 N 294.142 -0.090211 1.57342 0
M  V30 3185 C 295.37 -0.806224 1.90546 0
M  V30 3186 C 295.785 -1.72041 0.777644 0
M  V30 3187 O 295.142 -1.80778 -0.250103 0
M  V30 3188 C 295.193 -1.61546 3.23396 0
M  V30 3189 O 294.914 -0.738043 4.31839 0
M  V30 3190 C 296.415 -2.4341 3.70495 0
M  V30 3191 H 293.635 -0.230256 0.630257 0
M  V30 3192 H 296.179 -0.0659843 2.04394 0
M  V30 3193 H 294.334 -2.30816 3.11131 0
M  V30 3194 H 294.748 -1.29901 5.08159 0
M  V30 3195 H 296.222 -2.95676 4.66133 0
M  V30 3196 H 296.699 -3.22098 2.98579 0
M  V30 3197 H 297.305 -1.79331 3.85643 0
M  V30 3198 N 295.62 -1.53406 -0.361157 0
M  V30 3199 C 296.567 -1.80156 -1.44265 0
M  V30 3200 C 297.537 -0.646183 -1.53015 0
M  V30 3201 O 298.722 -0.888818 -1.68833 0
M  V30 3202 C 295.862 -2.00116 -2.81154 0
M  V30 3203 C 294.975 -3.27833 -2.81335 0
M  V30 3204 C 294.11 -3.37957 -4.09828 0
M  V30 3205 C 293.149 -4.59689 -4.04168 0
M  V30 3206 N 292.286 -4.66942 -5.24318 0
M  V30 3207 H 297.126 -2.72438 -1.20754 0
M  V30 3208 H 294.663 -1.34954 -0.585296 0
M  V30 3209 H 296.621 -2.09677 -3.60682 0
M  V30 3210 H 295.251 -1.11167 -3.03054 0
M  V30 3211 H 294.303 -3.27204 -1.94014 0
M  V30 3212 H 295.615 -4.17442 -2.73027 0
M  V30 3213 H 294.769 -3.46853 -4.97773 0
M  V30 3214 H 293.508 -2.46372 -4.20894 0
M  V30 3215 H 292.513 -4.50889 -3.14609 0
M  V30 3216 H 293.738 -5.5262 -3.947 0
M  V30 3217 H 291.684 -3.7826 -5.35962 0
M  V30 3218 H 291.601 -5.50462 -5.18197 0
M  V30 3219 H 292.869 -4.80127 -6.14084 0
M  V30 3220 N 297.098 0.621204 -1.44841 0
M  V30 3221 C 298.346 1.37783 -1.47852 0
M  V30 3222 C 298.667 1.94653 -0.116224 0
M  V30 3223 O 297.937 1.76367 0.852737 0
M  V30 3224 H 296.517 0.511453 -0.544449 0
M  V30 3225 H 299.179 0.730446 -1.80694 0
M  V30 3226 H 298.275 2.20414 -2.20961 0
M  V30 3227 N 298.576 1.31904 0.862503 0
M  V30 3228 C 299.823 1.22017 1.61611 0
M  V30 3229 C 300.151 -0.21991 1.93253 0
M  V30 3230 O 299.406 -1.17076 1.56817 0
M  V30 3231 C 299.705 2.01713 2.95037 0
M  V30 3232 C 299.371 3.51145 2.82857 0
M  V30 3233 C 298.033 3.91889 2.79243 0
M  V30 3234 C 300.385 4.46204 2.69353 0
M  V30 3235 C 297.713 5.25947 2.59993 0
M  V30 3236 C 300.065 5.80397 2.5164 0
M  V30 3237 C 298.729 6.20352 2.46413 0
M  V30 3238 H 297.999 0.44649 0.591378 0
M  V30 3239 H 300.646 1.63248 1.00111 0
M  V30 3240 H 298.951 1.53185 3.60613 0
M  V30 3241 H 300.648 1.91437 3.52353 0
M  V30 3242 H 297.238 3.1878 2.86491 0
M  V30 3243 H 301.422 4.15652 2.71196 0
M  V30 3244 H 296.678 5.5597 2.54376 0
M  V30 3245 H 300.852 6.53676 2.40169 0
M  V30 3246 H 298.479 7.24172 2.31256 0
M  V30 3247 N 300.054 -1.07777 1.14986 0
M  V30 3248 C 300.964 -2.18404 0.856546 0
M  V30 3249 C 301.98 -1.73211 -0.165485 0
M  V30 3250 O 303.156 -2.01399 0.00755219 0
M  V30 3251 C 300.221 -3.44977 0.34526 0
M  V30 3252 C 299.282 -4.0476 1.43065 0
M  V30 3253 C 298.515 -5.25291 0.943663 0
M  V30 3254 O 298.738 -5.70004 -0.212426 0
M  V30 3255 O 297.672 -5.76638 1.72547 0
M  V30 3256 H 301.498 -2.45978 1.78125 0
M  V30 3257 H 299.083 -1.17033 0.928631 0
M  V30 3258 H 300.965 -4.21348 0.0663671 0
M  V30 3259 H 299.64 -3.18965 -0.551631 0
M  V30 3260 H 298.547 -3.29949 1.76309 0
M  V30 3261 H 299.88 -4.35035 2.30229 0
M  V30 3262 N 301.532 -0.945985 -1.26051 0
M  V30 3263 C 302.76 -0.613025 -1.9761 0
M  V30 3264 C 303.175 0.813035 -1.70397 0
M  V30 3265 O 302.532 1.54274 -0.974979 0
M  V30 3266 C 302.583 -0.85159 -3.51326 0
M  V30 3267 O 302.304 -2.22157 -3.77595 0
M  V30 3268 C 303.805 -0.529831 -4.40122 0
M  V30 3269 H 301.025 -0.230593 -0.630133 0
M  V30 3270 H 303.569 -1.268 -1.60443 0
M  V30 3271 H 301.724 -0.243151 -3.86636 0
M  V30 3272 H 302.138 -2.2852 -4.721 0
M  V30 3273 H 303.612 -0.747348 -5.46917 0
M  V30 3274 H 304.089 0.535341 -4.35925 0
M  V30 3275 H 304.695 -1.11721 -4.10364 0
M  V30 3276 N 303.011 1.40521 -0.713556 0
M  V30 3277 C 304.259 2.00527 -0.251692 0
M  V30 3278 C 304.58 1.56857 1.15848 0
M  V30 3279 O 303.85 0.807127 1.785 0
M  V30 3280 H 302.43 0.741551 -0.0900646 0
M  V30 3281 H 305.092 1.71887 -0.918733 0
M  V30 3282 H 304.188 3.10813 -0.283192 0
M  V30 3283 N 304.489 0.459591 1.5075 0
M  V30 3284 C 305.905 0.113092 1.59199 0
M  V30 3285 C 306.105 -1.37951 1.46874 0
M  V30 3286 O 305.161 -2.15168 1.32132 0
M  V30 3287 C 306.474 0.653043 2.93523 0
M  V30 3288 C 308.022 0.615449 3.0689 0
M  V30 3289 C 308.497 1.13275 4.43771 0
M  V30 3290 N 309.988 1.09167 4.50152 0
M  V30 3291 C 310.723 1.46256 5.54434 0
M  V30 3292 N 310.219 1.90739 6.66026 0
M  V30 3293 N 312.012 1.37932 5.44914 0
M  V30 3294 H 304.163 1.43049 1.57005 0
M  V30 3295 H 306.426 0.590861 0.741341 0
M  V30 3296 H 306.132 1.69822 3.07983 0
M  V30 3297 H 306.006 0.0902132 3.77092 0
M  V30 3298 H 308.393 -0.420793 2.92084 0
M  V30 3299 H 308.474 1.21495 2.25106 0
M  V30 3300 H 308.118 2.16757 4.59324 0
M  V30 3301 H 308.048 0.509576 5.24129 0
M  V30 3302 H 310.539 0.76528 3.7007 0
M  V30 3303 H 310.852 2.17218 7.41644 0
M  V30 3304 H 309.197 1.94683 6.67176 0
M  V30 3305 H 312.388 1.0303 4.56621 0
M  V30 3306 H 312.561 1.67164 6.26067 0
M  V30 3307 N 305.967 -1.56429 0.191757 0
M  V30 3308 C 306.93 -2.17707 -0.716688 0
M  V30 3309 C 307.93 -1.13061 -1.14341 0
M  V30 3310 O 309.12 -1.38464 -1.05704 0
M  V30 3311 C 306.252 -2.77644 -1.97804 0
M  V30 3312 H 307.445 -2.99342 -0.1829 0
M  V30 3313 H 304.998 -1.56193 -0.0578566 0
M  V30 3314 H 305.733 -1.99799 -2.55443 0
M  V30 3315 H 305.518 -3.54246 -1.68083 0
M  V30 3316 H 307.008 -3.24708 -2.62592 0
M  V30 3317 N 307.445 0.0818655 -1.57387 0
M  V30 3318 C 308.673 0.796108 -1.9097 0
M  V30 3319 C 309.088 1.71626 -0.786757 0
M  V30 3320 O 308.445 1.80908 0.240513 0
M  V30 3321 C 308.496 1.59829 -3.24248 0
M  V30 3322 O 308.217 0.715131 -4.32224 0
M  V30 3323 C 309.718 2.41442 -3.7178 0
M  V30 3324 H 306.938 0.22691 -0.631469 0
M  V30 3325 H 309.482 0.0551439 -2.04426 0
M  V30 3326 H 307.637 2.29163 -3.12351 0
M  V30 3327 H 308.051 1.27205 -5.08841 0
M  V30 3328 H 309.525 2.932 -4.67694 0
M  V30 3329 H 310.002 3.2051 -3.00283 0
M  V30 3330 H 310.608 1.77283 -3.86589 0
M  V30 3331 N 308.923 1.53595 0.353017 0
M  V30 3332 C 309.871 1.81605 1.45335 0
M  V30 3333 C 310.865 0.685923 1.54892 0
M  V30 3334 O 312.071 0.869095 1.57628 0
M  V30 3335 H 308.446 0.575204 0.484401 0
M  V30 3336 H 310.417 2.73679 1.18921 0
M  V30 3337 C 309.166 2.03406 2.81995 0
M  V30 3338 H 308.489 2.89814 2.75405 0
M  V30 3339 H 309.929 2.26975 3.58132 0
M  V30 3340 C 308.388 0.816794 3.26849 0
M  V30 3341 O 308.918 0.0115856 4.01698 0
M  V30 3342 N 307.124 0.636682 2.8354 0
M  V30 3343 H 306.671 1.2931 2.22793 0
M  V30 3344 H 306.629 -0.176336 3.13905 0
M  V30 3345 N 310.401 -0.613514 1.45168 0
M  V30 3346 C 311.678 -1.37263 1.39349 0
M  V30 3347 C 312.058 -2.11012 0.0610848 0
M  V30 3348 O 311.406 -2.07502 -0.956825 0
M  V30 3349 C 311.616 -2.3244 2.60332 0
M  V30 3350 C 312.964 -2.9523 3.05163 0
M  V30 3351 O 313.988 -2.42762 2.60663 0
M  V30 3352 O 312.847 -3.90454 3.82372 0
M  V30 3353 H 309.941 -0.615188 0.552696 0
M  V30 3354 H 312.487 -0.637097 1.57287 0
M  V30 3355 H 311.259 -1.77164 3.48896 0
M  V30 3356 H 310.882 -3.13383 2.44698 0
M  V30 3357 N 311.879 -1.3236 -0.855495 0
M  V30 3358 C 313.29 -1.2056 -1.42556 0
M  V30 3359 C 313.641 0.182209 -1.95352 0
M  V30 3360 O 312.766 1.08088 -1.87472 0
M  V30 3361 C 313.361 -2.1826 -2.59129 0
M  V30 3362 C 311.92 -2.10351 -3.12137 0
M  V30 3363 C 311.067 -2.06674 -1.84882 0
M  V30 3364 H 314.018 -1.442 -0.662727 0
M  V30 3365 H 314.039 -1.78064 -3.36264 0
M  V30 3366 H 313.551 -3.19257 -2.20673 0
M  V30 3367 H 311.652 -1.12599 -3.55179 0
M  V30 3368 H 311.765 -3.00135 -3.73438 0
M  V30 3369 H 310.129 -1.51901 -2.04446 0
M  V30 3370 H 310.912 -3.09451 -1.48643 0
M  V30 3371 N 313.357 1.07166 -1.15556 0
M  V30 3372 C 314.603 1.80065 -0.932984 0
M  V30 3373 C 314.936 1.86586 0.53845 0
M  V30 3374 O 314.211 1.35098 1.39924 0
M  V30 3375 C 314.494 3.25022 -1.55025 0
M  V30 3376 C 314.347 3.26634 -3.09242 0
M  V30 3377 C 315.666 4.22341 -1.2376 0
M  V30 3378 H 312.785 0.653697 -0.340366 0
M  V30 3379 H 315.427 1.25389 -1.4275 0
M  V30 3380 H 313.577 3.71712 -1.12972 0
M  V30 3381 H 315.249 2.88173 -3.60214 0
M  V30 3382 H 313.492 2.65539 -3.43033 0
M  V30 3383 H 314.163 4.28854 -3.47546 0
M  V30 3384 H 316.639 3.8405 -1.60139 0
M  V30 3385 H 315.515 5.22053 -1.69564 0
M  V30 3386 H 315.776 4.41828 -0.154938 0
M  V30 3387 N 314.835 0.952656 1.25548 0
M  V30 3388 C 315.745 0.47782 2.29682 0
M  V30 3389 C 316.761 -0.453859 1.67977 0
M  V30 3390 O 317.937 -0.330587 1.98668 0
M  V30 3391 C 315.002 -0.238655 3.45878 0
M  V30 3392 C 314.063 0.730994 4.23031 0
M  V30 3393 C 313.296 0.0486165 5.33678 0
M  V30 3394 O 313.519 -1.16612 5.58353 0
M  V30 3395 O 312.453 0.733152 5.97418 0
M  V30 3396 H 316.279 1.34312 2.72386 0
M  V30 3397 H 313.864 0.719026 1.30959 0
M  V30 3398 H 315.746 -0.641774 4.16484 0
M  V30 3399 H 314.421 -1.07916 3.05181 0
M  V30 3400 H 313.328 1.18428 3.5486 0
M  V30 3401 H 314.661 1.53946 4.67506 0
M  V30 3402 N 316.313 -1.40141 0.720998 0
M  V30 3403 C 317.561 -2.0039 0.262323 0
M  V30 3404 C 317.882 -1.57469 -1.15015 0
M  V30 3405 O 317.152 -0.816582 -1.78069 0
M  V30 3406 H 315.732 -0.741063 0.093996 0
M  V30 3407 H 318.394 -1.71398 0.927835 0
M  V30 3408 H 317.49 -3.10658 0.299671 0
M  V30 3409 N 317.792 -0.46758 -1.50504 0
M  V30 3410 C 319.208 -0.121533 -1.59137 0
M  V30 3411 C 319.408 1.3717 -1.47603 0
M  V30 3412 O 318.464 2.14464 -1.33272 0
M  V30 3413 C 319.777 -0.6686 -2.93173 0
M  V30 3414 C 321.325 -0.631716 -3.06559 0
M  V30 3415 C 321.8 -1.15627 -4.43164 0
M  V30 3416 N 323.291 -1.11553 -4.49567 0
M  V30 3417 C 324.026 -1.49195 -5.5365 0
M  V30 3418 N 323.522 -1.94269 -6.65005 0
M  V30 3419 N 325.315 -1.4082 -5.44175 0
M  V30 3420 H 317.466 -1.4388 -1.56245 0
M  V30 3421 H 319.729 -0.594784 -0.738198 0
M  V30 3422 H 319.435 -1.71453 -3.07078 0
M  V30 3423 H 319.309 -0.11021 -3.77039 0
M  V30 3424 H 321.696 0.405297 -2.92304 0
M  V30 3425 H 321.777 -1.22687 -2.24458 0
M  V30 3426 H 321.421 -2.1919 -4.58168 0
M  V30 3427 H 321.351 -0.537365 -5.23851 0
M  V30 3428 H 323.842 -0.784895 -3.69659 0
M  V30 3429 H 324.155 -2.21148 -7.40482 0
M  V30 3430 H 322.5 -1.98219 -6.66134 0
M  V30 3431 H 325.691 -1.0545 -4.56068 0
M  V30 3432 H 325.864 -1.70481 -6.25172 0
M  V30 3433 N 319.27 1.56325 -0.20005 0
M  V30 3434 C 320.547 1.89484 0.48529 0
M  V30 3435 C 320.927 1.1143 1.79294 0
M  V30 3436 O 320.275 0.216919 2.27468 0
M  V30 3437 C 320.485 3.41923 0.699243 0
M  V30 3438 C 321.833 4.12256 1.01638 0
M  V30 3439 O 322.857 3.47402 0.786792 0
M  V30 3440 O 321.716 5.26887 1.45095 0
M  V30 3441 H 318.81 0.787144 0.253639 0
M  V30 3442 H 321.356 1.67985 -0.240633 0
M  V30 3443 H 320.128 3.90658 -0.224008 0
M  V30 3444 H 319.751 3.69131 1.47744 0
M  V30 3445 N 320.748 -0.0735177 1.57428 0
M  V30 3446 C 321.994 -0.774145 1.87443 0
M  V30 3447 C 322.327 -1.77311 0.792103 0
M  V30 3448 O 321.602 -1.93492 -0.197793 0
M  V30 3449 C 321.885 -1.48367 3.28115 0
M  V30 3450 C 321.738 -0.501227 4.46999 0
M  V30 3451 C 323.057 -2.429 3.66998 0
M  V30 3452 H 320.176 -0.279971 0.681752 0
M  V30 3453 H 322.818 -0.0373616 1.89963 0
M  V30 3454 H 320.968 -2.11171 3.26097 0
M  V30 3455 H 322.64 0.121468 4.6114 0
M  V30 3456 H 320.883 0.183593 4.33411 0
M  V30 3457 H 321.554 -1.03526 5.42205 0
M  V30 3458 H 324.03 -1.90175 3.70098 0
M  V30 3459 H 322.906 -2.89549 4.66318 0
M  V30 3460 H 323.167 -3.27628 2.96837 0
M  V30 3461 N 322.226 -1.5378 -0.344866 0
M  V30 3462 C 323.466 -1.72677 -1.09371 0
M  V30 3463 C 323.83 -0.479084 -1.85927 0
M  V30 3464 O 325.031 -0.54505 -2.63216 0
M  V30 3465 C 323.302 -2.95457 -2.01097 0
M  V30 3466 S 324.861 -3.35158 -2.83222 0
M  V30 3467 H 321.679 -0.607402 -0.369573 0
M  V30 3468 H 324.281 -1.91922 -0.372307 0
M  V30 3469 H 322.985 -3.84437 -1.43655 0
M  V30 3470 H 322.516 -2.78673 -2.77678 0
M  V30 3471 H 324.531 -2.88789 -4.03504 0
M  V30 3472 N 323.704 0.605807 -1.45491 0
M  V30 3473 C 324.651 1.7164 -1.54299 0
M  V30 3474 C 325.621 1.61486 -0.388761 0
M  V30 3475 O 326.806 1.81039 -0.602445 0
M  V30 3476 C 323.946 3.09953 -1.51734 0
M  V30 3477 C 323.059 3.309 -2.77721 0
M  V30 3478 C 322.194 4.59329 -2.66816 0
M  V30 3479 C 321.233 4.7354 -3.87848 0
M  V30 3480 N 320.37 5.9327 -3.75467 0
M  V30 3481 H 325.21 1.63449 -2.49176 0
M  V30 3482 H 322.747 0.796957 -1.23641 0
M  V30 3483 H 324.705 3.89977 -1.48235 0
M  V30 3484 H 323.335 3.17098 -0.604068 0
M  V30 3485 H 322.387 2.44639 -2.913 0
M  V30 3486 H 323.699 3.37274 -3.67488 0
M  V30 3487 H 322.853 5.4755 -2.61292 0
M  V30 3488 H 321.592 4.55355 -1.74651 0
M  V30 3489 H 320.597 3.83741 -3.93729 0
M  V30 3490 H 321.822 4.79309 -4.81082 0
M  V30 3491 H 319.768 5.90338 -2.86072 0
M  V30 3492 H 319.685 6.00811 -4.5887 0
M  V30 3493 H 320.953 6.83984 -3.73879 0
M  V30 3494 N 325.182 1.32811 0.848464 0
M  V30 3495 C 326.112 1.24882 1.97299 0
M  V30 3496 C 327.093 0.131357 1.69592 0
M  V30 3497 O 328.278 0.319553 1.91553 0
M  V30 3498 C 325.408 0.97746 3.33261 0
M  V30 3499 C 324.362 2.05682 3.75338 0
M  V30 3500 C 323.688 1.63777 5.09 0
M  V30 3501 C 324.988 3.47254 3.90144 0
M  V30 3502 H 326.682 2.18966 2.04191 0
M  V30 3503 H 324.228 1.05413 0.981029 0
M  V30 3504 H 326.181 0.908513 4.1149 0
M  V30 3505 H 324.905 0.000980011 3.266 0
M  V30 3506 H 323.564 2.11603 2.99366 0
M  V30 3507 H 323.212 0.648569 4.98801 0
M  V30 3508 H 322.912 2.36 5.38124 0
M  V30 3509 H 324.436 1.5833 5.89715 0
M  V30 3510 H 325.85 3.43888 4.58709 0
M  V30 3511 H 324.247 4.1788 4.30693 0
M  V30 3512 H 325.317 3.86462 2.92874 0
M  V30 3513 N 326.66 -1.06551 1.16123 0
M  V30 3514 C 327.593 -2.13382 0.80892 0
M  V30 3515 C 328.571 -1.61128 -0.21827 0
M  V30 3516 O 329.755 -1.88219 -0.102952 0
M  V30 3517 C 326.882 -3.38083 0.204303 0
M  V30 3518 C 325.928 -4.09133 1.20469 0
M  V30 3519 S 326.761 -4.5948 2.75024 0
M  V30 3520 C 327.917 -5.87446 2.16005 0
M  V30 3521 H 328.15 -2.42937 1.71373 0
M  V30 3522 H 325.683 -1.18947 0.984428 0
M  V30 3523 H 327.641 -4.10268 -0.138081 0
M  V30 3524 H 326.302 -3.0669 -0.678234 0
M  V30 3525 H 325.495 -4.98685 0.730019 0
M  V30 3526 H 325.097 -3.4295 1.49202 0
M  V30 3527 H 327.389 -6.60065 1.5271 0
M  V30 3528 H 328.332 -6.39639 3.03756 0
M  V30 3529 H 328.74 -5.41354 1.59989 0
M  V30 3530 N 328.138 -0.959301 -1.25041 0
M  V30 3531 C 329.086 -0.474437 -2.2771 0
M  V30 3532 C 330.08 0.457697 -1.631 0
M  V30 3533 O 331.286 0.333912 -1.76876 0
M  V30 3534 H 327.661 -0.134936 -0.739795 0
M  V30 3535 H 329.632 -1.35251 -2.65988 0
M  V30 3536 C 328.381 0.227884 -3.46952 0
M  V30 3537 H 327.704 -0.480248 -3.96905 0
M  V30 3538 H 329.144 0.531091 -4.20661 0
M  V30 3539 C 327.603 1.452 -3.04004 0
M  V30 3540 O 328.133 2.54949 -3.10426 0
M  V30 3541 N 326.339 1.31502 -2.59144 0
M  V30 3542 H 325.886 0.422065 -2.54119 0
M  V30 3543 H 325.844 2.13521 -2.30773 0
M  V30 3544 N 329.616 1.39756 -0.72842 0
M  V30 3545 C 330.893 1.94574 -0.200079 0
M  V30 3546 C 331.273 1.66569 1.29684 0
M  V30 3547 O 330.621 0.990326 2.05924 0
M  V30 3548 C 330.831 3.45004 -0.526608 0
M  V30 3549 C 332.179 4.21965 -0.472318 0
M  V30 3550 O 333.203 3.53173 -0.463413 0
M  V30 3551 O 332.062 5.44552 -0.461075 0
M  V30 3552 H 329.156 0.826289 -0.0342851 0
M  V30 3553 H 331.702 1.49293 -0.806829 0
M  V30 3554 H 330.474 3.58796 -1.56144 0
M  V30 3555 H 330.097 3.97449 0.109449 0
M  V30 3556 N 331.094 0.475555 1.50254 0
M  V30 3557 C 332.057 -0.305016 2.27161 0
M  V30 3558 C 333.057 -0.916519 1.32123 0
M  V30 3559 O 334.247 -0.785003 1.5551 0
M  V30 3560 C 331.379 -1.43496 3.09227 0
M  V30 3561 H 332.572 0.369511 2.97615 0
M  V30 3562 H 330.125 0.229747 1.54602 0
M  V30 3563 H 330.86 -2.14441 2.43281 0
M  V30 3564 H 330.645 -1.00223 3.79075 0
M  V30 3565 H 332.135 -1.98548 3.67381 0
M  V30 3566 N 332.573 -1.56217 0.208337 0
M  V30 3567 C 333.82 -1.97949 -0.42692 0
M  V30 3568 C 334.148 -1.09562 -1.60706 0
M  V30 3569 O 333.403 -0.137616 -1.95216 0
M  V30 3570 C 333.702 -3.45441 -0.916797 0
M  V30 3571 C 333.368 -4.50646 0.151391 0
M  V30 3572 C 332.03 -4.79139 0.444867 0
M  V30 3573 C 334.382 -5.13811 0.874492 0
M  V30 3574 C 331.71 -5.68084 1.46619 0
M  V30 3575 C 334.062 -6.03861 1.88506 0
M  V30 3576 C 332.726 -6.30704 2.18559 0
M  V30 3577 H 331.996 -0.724345 -0.156221 0
M  V30 3578 H 334.643 -1.89006 0.308084 0
M  V30 3579 H 332.948 -3.51521 -1.73032 0
M  V30 3580 H 334.645 -3.75094 -1.41794 0
M  V30 3581 H 331.235 -4.28511 -0.0875068 0
M  V30 3582 H 335.419 -4.91879 0.660996 0
M  V30 3583 H 330.675 -5.87151 1.7048 0
M  V30 3584 H 334.849 -6.51861 2.45051 0
M  V30 3585 H 332.476 -6.99424 2.97843 0
M  V30 3586 N 334.051 0.0651679 -1.57465 0
M  V30 3587 C 335.297 0.764193 -1.87851 0
M  V30 3588 C 335.63 1.76889 -0.801495 0
M  V30 3589 O 334.905 1.93594 0.187528 0
M  V30 3590 C 335.188 1.46625 -3.28897 0
M  V30 3591 C 335.041 0.477515 -4.47258 0
M  V30 3592 C 336.36 2.4095 -3.68281 0
M  V30 3593 H 333.479 0.276351 -0.683227 0
M  V30 3594 H 336.121 0.0272868 -1.8998 0
M  V30 3595 H 334.271 2.09438 -3.27212 0
M  V30 3596 H 335.943 -0.145922 -4.61069 0
M  V30 3597 H 334.186 -0.206576 -4.33308 0
M  V30 3598 H 334.857 1.0065 -5.42746 0
M  V30 3599 H 337.333 1.88209 -3.71102 0
M  V30 3600 H 336.209 2.87072 -4.67847 0
M  V30 3601 H 336.47 3.26049 -2.98571 0
M  V30 3602 N 335.529 1.53961 0.336706 0
M  V30 3603 C 336.945 1.44378 0.680241 0
M  V30 3604 C 337.145 0.606034 1.9217 0
M  V30 3605 O 336.201 0.099688 2.52303 0
M  V30 3606 C 337.514 2.87945 0.8665 0
M  V30 3607 C 339.062 2.97763 0.964682 0
M  V30 3608 C 339.537 4.42453 1.18321 0
M  V30 3609 N 341.028 4.46008 1.25025 0
M  V30 3610 C 341.763 5.55102 1.43697 0
M  V30 3611 N 341.259 6.7419 1.59498 0
M  V30 3612 N 343.052 5.42727 1.463 0
M  V30 3613 H 335.203 2.06918 -0.479455 0
M  V30 3614 H 337.466 0.935634 -0.152619 0
M  V30 3615 H 337.172 3.51691 0.0256937 0
M  V30 3616 H 337.046 3.33293 1.76623 0
M  V30 3617 H 339.433 2.34153 1.796 0
M  V30 3618 H 339.514 2.55766 0.041708 0
M  V30 3619 H 339.158 5.06645 0.356788 0
M  V30 3620 H 339.088 4.82048 2.11985 0
M  V30 3621 H 341.579 3.60196 1.14312 0
M  V30 3622 H 341.892 7.53095 1.734 0
M  V30 3623 H 340.237 6.77123 1.56621 0
M  V30 3624 H 343.428 4.48647 1.33543 0
M  V30 3625 H 343.601 6.27806 1.6051 0
M  V30 3626 N 337.007 -0.598083 1.45811 0
M  V30 3627 C 337.97 -1.69018 1.54808 0
M  V30 3628 C 338.97 -1.55037 0.426652 0
M  V30 3629 O 340.16 -1.59932 0.690456 0
M  V30 3630 C 337.292 -3.0835 1.45371 0
M  V30 3631 H 338.485 -1.62403 2.52121 0
M  V30 3632 H 336.038 -0.814626 1.33392 0
M  V30 3633 H 336.773 -3.20534 0.492793 0
M  V30 3634 H 336.558 -3.19907 2.26721 0
M  V30 3635 H 338.048 -3.8788 1.54721 0
M  V30 3636 N 338.485 -1.33259 -0.841409 0
M  V30 3637 C 339.448 -1.23221 -1.9326 0
M  V30 3638 C 340.448 -0.151895 -1.60081 0
M  V30 3639 O 341.638 -0.403246 -1.69468 0
M  V30 3640 C 338.77 -0.898123 -3.28856 0
M  V30 3641 H 339.963 -2.2021 -2.03587 0
M  V30 3642 H 337.516 -1.17281 -1.03319 0
M  V30 3643 H 338.251 0.0693841 -3.24226 0
M  V30 3644 H 338.036 -1.67934 -3.54317 0
M  V30 3645 H 339.526 -0.852563 -4.08805 0
M  V30 3646 N 339.963 1.05934 -1.16686 0
M  V30 3647 C 341.212 1.78188 -0.945085 0
M  V30 3648 C 341.525 1.88338 0.528021 0
M  V30 3649 O 342.731 2.57258 0.867799 0
M  V30 3650 C 341.187 3.20277 -1.64167 0
M  V30 3651 C 340.795 3.18281 -3.15279 0
M  V30 3652 C 342.539 3.97039 -1.502 0
M  V30 3653 C 340.446 4.55112 -3.7766 0
M  V30 3654 H 339.376 0.667866 -0.349959 0
M  V30 3655 H 342.027 1.18794 -1.39858 0
M  V30 3656 H 340.409 3.79952 -1.11589 0
M  V30 3657 H 341.583 2.68167 -3.74731 0
M  V30 3658 H 339.898 2.55018 -3.29173 0
M  V30 3659 H 342.495 4.98194 -1.94183 0
M  V30 3660 H 342.838 4.13845 -0.451461 0
M  V30 3661 H 343.371 3.43894 -1.99954 0
M  V30 3662 H 340.11 4.43512 -4.82677 0
M  V30 3663 H 339.63 5.05406 -3.22994 0
M  V30 3664 H 341.309 5.24064 -3.79428 0
M  V30 3665 N 341.441 0.965919 1.2453 0
M  V30 3666 C 342.852 0.665929 1.7442 0
M  V30 3667 C 343.203 -0.818407 1.78316 0
M  V30 3668 O 342.328 -1.64037 1.41141 0
M  V30 3669 C 342.923 1.20211 3.16757 0
M  V30 3670 C 341.482 0.952059 3.6416 0
M  V30 3671 C 340.629 1.33848 2.42858 0
M  V30 3672 H 343.58 1.14144 1.10258 0
M  V30 3673 H 343.601 0.567544 3.76244 0
M  V30 3674 H 343.113 2.28244 3.13889 0
M  V30 3675 H 341.214 -0.112821 3.72429 0
M  V30 3676 H 341.327 1.59645 4.51719 0
M  V30 3677 H 339.691 0.756864 2.43195 0
M  V30 3678 H 340.474 2.42827 2.42673 0
M  V30 3679 N 342.919 -1.39368 0.735821 0
M  V30 3680 C 343.882 -2.2896 0.104874 0
M  V30 3681 C 344.882 -1.46347 -0.666274 0
M  V30 3682 O 346.072 -1.67014 -0.49517 0
M  V30 3683 C 343.204 -3.29857 -0.860656 0
M  V30 3684 H 344.397 -2.86259 0.894205 0
M  V30 3685 H 341.95 -1.48029 0.501704 0
M  V30 3686 H 342.685 -2.77615 -1.67631 0
M  V30 3687 H 342.47 -3.9087 -0.310327 0
M  V30 3688 H 343.96 -3.96893 -1.29867 0
M  V30 3689 N 344.397 -0.483516 -1.5 0
M  V30 3690 C 345.344 0.304164 -2.28787 0
M  V30 3691 C 346.314 0.976114 -1.34392 0
M  V30 3692 O 347.499 0.986156 -1.63339 0
M  V30 3693 C 344.639 1.37298 -3.16612 0
M  V30 3694 C 343.752 0.714561 -4.26049 0
M  V30 3695 C 342.887 1.76232 -5.01114 0
M  V30 3696 C 341.926 1.08483 -6.0241 0
M  V30 3697 N 341.063 2.076 -6.70706 0
M  V30 3698 H 345.903 -0.373981 -2.95644 0
M  V30 3699 H 343.44 -0.196275 -1.45785 0
M  V30 3700 H 345.398 2.00445 -3.65893 0
M  V30 3701 H 344.028 2.02012 -2.51776 0
M  V30 3702 H 343.08 -0.0297798 -3.80388 0
M  V30 3703 H 344.392 0.180383 -4.98474 0
M  V30 3704 H 343.546 2.46929 -5.54176 0
M  V30 3705 H 342.285 2.33033 -4.28424 0
M  V30 3706 H 341.29 0.363545 -5.48597 0
M  V30 3707 H 342.515 0.523551 -6.77079 0
M  V30 3708 H 340.461 2.63394 -6.00799 0
M  V30 3709 H 340.378 1.59201 -7.39047 0
M  V30 3710 H 341.646 2.77639 -7.2838 0
M  V30 3711 N 345.875 1.56104 -0.216619 0
M  V30 3712 C 347.121 1.98466 0.417033 0
M  V30 3713 C 347.454 1.10403 1.59765 0
M  V30 3714 O 346.729 0.160632 1.93836 0
M  V30 3715 C 347.012 3.49769 0.85637 0
M  V30 3716 C 346.865 4.48606 -0.327546 0
M  V30 3717 C 348.184 4.05339 1.7143 0
M  V30 3718 H 345.303 0.721551 0.150112 0
M  V30 3719 H 347.945 1.87423 -0.311864 0
M  V30 3720 H 346.095 3.5931 1.47745 0
M  V30 3721 H 347.767 4.5108 -0.965618 0
M  V30 3722 H 346.01 4.22682 -0.975805 0
M  V30 3723 H 346.681 5.51995 0.0227149 0
M  V30 3724 H 349.157 3.98712 1.19031 0
M  V30 3725 H 348.033 5.11533 1.99061 0
M  V30 3726 H 348.294 3.51918 2.67593 0
M  V30 3727 N 347.353 -0.0568162 1.57498 0
M  V30 3728 C 348.593 -0.758273 1.89815 0
M  V30 3729 C 348.957 -1.73978 0.812132 0
M  V30 3730 O 350.158 -2.48744 1.01881 0
M  V30 3731 C 348.429 -1.43465 3.27342 0
M  V30 3732 S 349.988 -2.1691 3.81439 0
M  V30 3733 H 346.806 -0.251836 0.664906 0
M  V30 3734 H 349.408 -0.0137997 1.95495 0
M  V30 3735 H 348.112 -0.706693 4.0427 0
M  V30 3736 H 347.643 -2.21825 3.24896 0
M  V30 3737 H 349.658 -3.43658 3.5793 0
M  V30 3738 N 348.832 -1.54138 -0.328536 0
M  V30 3739 C 350.072 -1.73827 -1.07534 0
M  V30 3740 C 350.436 -0.498777 -1.85408 0
M  V30 3741 O 351.637 -0.572937 -2.62623 0
M  V30 3742 C 349.908 -2.97573 -1.97952 0
M  V30 3743 S 351.467 -3.38143 -2.79652 0
M  V30 3744 H 348.285 -0.611287 -0.36311 0
M  V30 3745 H 350.887 -1.92306 -0.351931 0
M  V30 3746 H 349.591 -3.85939 -1.39569 0
M  V30 3747 H 349.122 -2.81603 -2.74706 0
M  V30 3748 H 351.137 -2.93052 -4.00418 0
M  V30 3749 N 350.31 0.590341 -1.46126 0
M  V30 3750 C 351.556 1.35082 -1.51264 0
M  V30 3751 C 351.889 1.93534 -0.160711 0
M  V30 3752 O 351.164 1.76045 0.826956 0
M  V30 3753 C 351.447 2.48588 -2.6053 0
M  V30 3754 C 351.3 1.95221 -4.05227 0
M  V30 3755 C 352.619 3.50662 -2.6594 0
M  V30 3756 H 349.738 0.489803 -0.550692 0
M  V30 3757 H 352.38 0.663887 -1.78024 0
M  V30 3758 H 350.53 3.07186 -2.37843 0
M  V30 3759 H 352.202 1.41139 -4.39178 0
M  V30 3760 H 350.445 1.26101 -4.15068 0
M  V30 3761 H 351.116 2.77121 -4.77397 0
M  V30 3762 H 353.592 3.01934 -2.86313 0
M  V30 3763 H 352.468 4.27551 -3.44226 0
M  V30 3764 H 352.729 4.07399 -1.71694 0
M  V30 3765 N 351.788 1.33704 0.83433 0
M  V30 3766 C 352.718 1.26967 1.95963 0
M  V30 3767 C 353.699 0.149337 1.69443 0
M  V30 3768 O 354.884 0.339852 1.91203 0
M  V30 3769 C 352.014 1.01275 3.32206 0
M  V30 3770 C 350.968 2.09652 3.73136 0
M  V30 3771 C 350.294 1.69166 5.07235 0
M  V30 3772 C 351.594 3.51372 3.86439 0
M  V30 3773 H 353.288 2.2112 2.01857 0
M  V30 3774 H 350.834 1.06447 0.969793 0
M  V30 3775 H 352.787 0.952106 4.10503 0
M  V30 3776 H 351.511 0.0356203 3.26581 0
M  V30 3777 H 350.17 2.14766 2.97104 0
M  V30 3778 H 349.818 0.701437 4.98085 0
M  V30 3779 H 349.518 2.41694 5.35591 0
M  V30 3780 H 351.042 1.64576 5.88003 0
M  V30 3781 H 352.456 3.48734 4.55036 0
M  V30 3782 H 350.853 4.22425 4.26236 0
M  V30 3783 H 351.923 3.89546 2.88759 0
M  V30 3784 N 353.266 -1.05314 1.17247 0
M  V30 3785 C 354.214 -2.15137 0.884238 0
M  V30 3786 C 355.208 -1.68729 -0.15063 0
M  V30 3787 O 356.414 -1.8 -0.00366673 0
M  V30 3788 H 352.789 -0.702471 0.2684 0
M  V30 3789 H 354.76 -2.36652 1.81764 0
M  V30 3790 C 353.509 -3.45243 0.412659 0
M  V30 3791 H 352.832 -3.81352 1.20043 0
M  V30 3792 H 354.272 -4.23263 0.249858 0
M  V30 3793 C 352.731 -3.25487 -0.86948 0
M  V30 3794 O 353.261 -3.51938 -1.93655 0
M  V30 3795 N 351.467 -2.78875 -0.817147 0
M  V30 3796 H 351.014 -2.57549 0.0514211 0
M  V30 3797 H 350.972 -2.66036 -1.67547 0
M  V30 3798 N 354.744 -0.972509 -1.24016 0
M  V30 3799 C 356.021 -0.553733 -1.87598 0
M  V30 3800 C 356.401 0.969158 -1.87538 0
M  V30 3801 O 355.749 1.84255 -1.35139 0
M  V30 3802 C 355.959 -1.15076 -3.29482 0
M  V30 3803 C 357.307 -1.23862 -4.06132 0
M  V30 3804 O 358.331 -1.10363 -3.38672 0
M  V30 3805 O 357.19 -1.45252 -5.26844 0
M  V30 3806 H 354.284 -0.185331 -0.805966 0
M  V30 3807 H 356.83 -1.06709 -1.31952 0
M  V30 3808 H 355.602 -2.19333 -3.2405 0
M  V30 3809 H 355.225 -0.621746 -3.92709 0
M  V30 3810 N 356.222 1.38976 -0.743202 0
M  V30 3811 C 357.185 2.28901 -0.117014 0
M  V30 3812 C 358.185 1.46698 0.658503 0
M  V30 3813 O 359.375 1.67274 0.486305 0
M  V30 3814 C 356.507 3.30309 0.84315 0
M  V30 3815 H 357.7 2.8578 -0.909373 0
M  V30 3816 H 355.253 1.47761 -0.509547 0
M  V30 3817 H 355.988 2.785 1.66157 0
M  V30 3818 H 355.773 3.91029 0.289594 0
M  V30 3819 H 357.263 3.97577 1.2776 0
M  V30 3820 N 357.7 0.491464 1.49741 0
M  V30 3821 C 358.946 -0.0565092 2.02721 0
M  V30 3822 C 359.279 -1.37522 1.37118 0
M  V30 3823 O 358.554 -1.87866 0.503645 0
M  V30 3824 C 358.837 -0.219051 3.59433 0
M  V30 3825 C 358.69 1.12211 4.35579 0
M  V30 3826 C 360.009 -0.964157 4.29409 0
M  V30 3827 H 357.128 -0.0190627 0.736753 0
M  V30 3828 H 359.77 0.641021 1.7886 0
M  V30 3829 H 357.92 -0.813165 3.79895 0
M  V30 3830 H 359.592 1.75437 4.26637 0
M  V30 3831 H 357.835 1.71377 3.98513 0
M  V30 3832 H 358.506 0.961794 5.43556 0
M  V30 3833 H 360.982 -0.460378 4.13545 0
M  V30 3834 H 359.858 -1.04671 5.38828 0
M  V30 3835 H 360.119 -2.00563 3.93988 0
M  V30 3836 N 359.178 -1.55987 0.224894 0
M  V30 3837 C 360.426 -1.97998 -0.405099 0
M  V30 3838 C 360.747 -1.11387 -1.60056 0
M  V30 3839 O 360.017 -0.191645 -1.9496 0
M  V30 3840 H 358.597 -0.731235 -0.152658 0
M  V30 3841 H 361.259 -1.92279 0.318567 0
M  V30 3842 H 360.355 -3.03463 -0.729167 0
M  V30 3843 N 360.656 0.0484629 -1.57525 0
M  V30 3844 C 361.884 0.755421 -1.92616 0
M  V30 3845 C 362.299 1.69919 -0.822984 0
M  V30 3846 O 361.656 1.81378 0.202085 0
M  V30 3847 C 361.707 1.52915 -3.27566 0
M  V30 3848 O 361.428 0.62329 -4.33644 0
M  V30 3849 C 362.929 2.33502 -3.76818 0
M  V30 3850 H 360.149 0.213465 -0.63614 0
M  V30 3851 H 362.693 0.0117698 -2.04497 0
M  V30 3852 H 360.848 2.22486 -3.17142 0
M  V30 3853 H 361.262 1.16383 -5.11425 0
M  V30 3854 H 362.736 2.83214 -4.73808 0
M  V30 3855 H 363.213 3.14068 -3.07014 0
M  V30 3856 H 363.819 1.69043 -3.90262 0
M  V30 3857 N 362.134 1.5431 0.320358 0
M  V30 3858 C 363.064 1.86912 1.3995 0
M  V30 3859 C 364.045 0.726211 1.53819 0
M  V30 3860 O 365.23 0.980233 1.67646 0
M  V30 3861 C 362.36 2.09932 2.7667 0
M  V30 3862 C 361.314 3.25776 2.77586 0
M  V30 3863 C 360.64 3.34173 4.17412 0
M  V30 3864 C 361.94 4.6335 2.41048 0
M  V30 3865 H 363.634 2.77292 1.12914 0
M  V30 3866 H 361.18 1.33421 0.541738 0
M  V30 3867 H 363.133 2.31324 3.52232 0
M  V30 3868 H 361.857 1.16304 3.0519 0
M  V30 3869 H 360.516 3.04276 2.04479 0
M  V30 3870 H 360.164 2.38098 4.43078 0
M  V30 3871 H 359.864 4.12033 4.18931 0
M  V30 3872 H 361.388 3.57803 4.94782 0
M  V30 3873 H 362.802 4.84602 3.06324 0
M  V30 3874 H 361.199 5.43782 2.53813 0
M  V30 3875 H 362.269 4.65381 1.36193 0
M  V30 3876 N 363.613 -0.582584 1.46437 0
M  V30 3877 C 364.546 -1.70633 1.51524 0
M  V30 3878 C 365.524 -1.58349 0.369351 0
M  V30 3879 O 366.708 -1.79563 0.573516 0
M  V30 3880 C 363.835 -3.08687 1.39392 0
M  V30 3881 C 362.881 -3.3949 2.58164 0
M  V30 3882 S 363.714 -3.31548 4.20519 0
M  V30 3883 C 364.87 -4.72139 4.10896 0
M  V30 3884 H 365.103 -1.66058 2.46601 0
M  V30 3885 H 362.636 -0.761337 1.34324 0
M  V30 3886 H 364.594 -3.8833 1.33079 0
M  V30 3887 H 363.255 -3.10751 0.457436 0
M  V30 3888 H 362.448 -4.40071 2.45669 0
M  V30 3889 H 362.05 -2.67415 2.61468 0
M  V30 3890 H 364.342 -5.62527 3.77584 0
M  V30 3891 H 365.285 -4.89692 5.11476 0
M  V30 3892 H 365.693 -4.48995 3.42146 0
M  V30 3893 N 365.091 -1.34144 -0.827227 0
M  V30 3894 C 366.316 -1.29476 -1.62021 0
M  V30 3895 C 366.741 0.129292 -1.87655 0
M  V30 3896 O 366.099 1.08967 -1.449 0
M  V30 3897 C 366.147 -2.08702 -2.94068 0
M  V30 3898 O 365.251 -1.45359 -3.85933 0
M  V30 3899 H 364.592 -0.444881 -0.492927 0
M  V30 3900 H 367.122 -1.76882 -1.02829 0
M  V30 3901 H 367.132 -2.19898 -3.43669 0
M  V30 3902 H 365.807 -3.12241 -2.74734 0
M  V30 3903 H 364.384 -1.42879 -3.44442 0
M  V30 3904 N 366.569 1.04691 -1.17803 0
M  V30 3905 C 367.809 1.79352 -0.980423 0
M  V30 3906 C 368.173 1.85853 0.481958 0
M  V30 3907 O 369.374 2.56656 0.798809 0
M  V30 3908 C 367.645 3.19088 -1.6099 0
M  V30 3909 S 369.204 4.10164 -1.55918 0
M  V30 3910 H 366.022 0.617631 -0.352211 0
M  V30 3911 H 368.624 1.25575 -1.49837 0
M  V30 3912 H 367.328 3.11962 -2.66661 0
M  V30 3913 H 366.859 3.77941 -1.09197 0
M  V30 3914 H 368.874 4.92907 -0.570685 0
M  V30 3915 N 368.047 0.979072 1.23499 0
M  V30 3916 C 369.01 0.523244 2.23147 0
M  V30 3917 C 370.01 -0.386406 1.56088 0
M  V30 3918 O 371.2 -0.180283 1.73265 0
M  V30 3919 C 368.332 -0.240739 3.40049 0
M  V30 3920 H 369.525 1.40432 2.64989 0
M  V30 3921 H 367.078 0.764824 1.36309 0
M  V30 3922 H 367.813 -1.13841 3.03662 0
M  V30 3923 H 367.598 0.412207 3.89927 0
M  V30 3924 H 369.088 -0.548297 4.13985 0
M  V30 3925 N 369.525 -1.3858 0.750561 0
M  V30 3926 C 370.755 -2.04175 0.31564 0
M  V30 3927 C 371.163 -1.56726 -1.05989 0
M  V30 3928 O 370.506 -0.734225 -1.68389 0
M  V30 3929 C 370.568 -3.58585 0.256389 0
M  V30 3930 C 370.232 -4.29077 1.57296 0
M  V30 3931 C 371.229 -4.54656 2.52159 0
M  V30 3932 C 368.914 -4.67324 1.84156 0
M  V30 3933 C 370.908 -5.17512 3.72103 0
M  V30 3934 C 368.595 -5.29905 3.04374 0
M  V30 3935 C 369.593 -5.54933 3.98168 0
M  V30 3936 O 369.281 -6.16212 5.16273 0
M  V30 3937 H 369.013 -0.662742 0.133226 0
M  V30 3938 H 371.567 -1.78313 1.01948 0
M  V30 3939 H 369.797 -3.83406 -0.503677 0
M  V30 3940 H 371.486 -4.05628 -0.148612 0
M  V30 3941 H 372.252 -4.25539 2.32683 0
M  V30 3942 H 368.131 -4.47191 1.11988 0
M  V30 3943 H 371.675 -5.36963 4.45327 0
M  V30 3944 H 367.572 -5.58444 3.23745 0
M  V30 3945 H 368.34 -6.34701 5.16815 0
M  V30 3946 N 371.003 -0.499398 -1.49478 0
M  V30 3947 C 371.935 0.316575 -2.27003 0
M  V30 3948 C 372.948 0.932047 -1.33479 0
M  V30 3949 O 374.137 0.815658 -1.58774 0
M  V30 3950 C 371.237 1.46055 -3.05812 0
M  V30 3951 C 370.41 0.952679 -4.26899 0
M  V30 3952 C 369.469 1.97407 -4.87767 0
M  V30 3953 O 368.495 1.54326 -5.4788 0
M  V30 3954 N 369.697 3.30436 -4.77276 0
M  V30 3955 H 372.462 -0.348168 -2.97671 0
M  V30 3956 H 370.023 -0.33185 -1.58463 0
M  V30 3957 H 372.015 2.14135 -3.43407 0
M  V30 3958 H 370.585 2.02948 -2.37762 0
M  V30 3959 H 369.805 0.0968248 -3.94081 0
M  V30 3960 H 371.093 0.59174 -5.05347 0
M  V30 3961 H 370.491 3.68126 -4.29534 0
M  V30 3962 H 369.048 3.94235 -5.19059 0
M  V30 3963 N 372.481 1.55866 -0.233164 0
M  V30 3964 C 373.428 2.20796 0.67215 0
M  V30 3965 C 374.398 1.16731 1.18166 0
M  V30 3966 O 375.583 1.45129 1.23864 0
M  V30 3967 C 372.723 2.90072 1.86955 0
M  V30 3968 C 371.836 4.08759 1.39786 0
M  V30 3969 C 370.971 4.65787 2.55374 0
M  V30 3970 C 370.01 5.76752 2.04998 0
M  V30 3971 N 369.147 6.28021 3.13901 0
M  V30 3972 H 373.987 2.9779 0.111749 0
M  V30 3973 H 371.524 1.47036 0.0434007 0
M  V30 3974 H 373.482 3.28428 2.57276 0
M  V30 3975 H 372.112 2.15575 2.40265 0
M  V30 3976 H 371.164 3.7581 0.589173 0
M  V30 3977 H 372.476 4.88906 0.98856 0
M  V30 3978 H 371.63 5.06646 3.33758 0
M  V30 3979 H 370.369 3.84828 2.99598 0
M  V30 3980 H 369.374 5.35383 1.25079 0
M  V30 3981 H 370.599 6.59553 1.61759 0
M  V30 3982 H 368.545 5.49971 3.57586 0
M  V30 3983 H 368.462 7.03323 2.7726 0
M  V30 3984 H 369.73 6.73538 3.92386 0
M  V30 3985 N 373.959 -0.0401083 1.57549 0
M  V30 3986 C 375.207 -0.731677 1.8839 0
M  V30 3987 C 375.528 -1.76481 0.829425 0
M  V30 3988 O 374.798 -1.95411 -0.1383 0
M  V30 3989 H 373.378 -0.273225 0.695239 0
M  V30 3990 H 376.04 -0.00867725 1.94898 0
M  V30 3991 H 375.136 -1.22816 2.86919 0
M  V30 3992 N 375.437 -1.54477 -0.31217 0
M  V30 3993 C 376.853 -1.45442 -0.657185 0
M  V30 3994 C 377.053 -0.63653 -1.91182 0
M  V30 3995 O 376.109 -0.139815 -2.52113 0
M  V30 3996 C 377.422 -2.89287 -0.82058 0
M  V30 3997 C 378.97 -2.9926 -0.917188 0
M  V30 3998 C 379.445 -4.44279 -1.11267 0
M  V30 3999 N 380.936 -4.4794 -1.17914 0
M  V30 4000 C 381.671 -5.57318 -1.34848 0
M  V30 4001 N 381.167 -6.76642 -1.48752 0
M  V30 4002 N 382.96 -5.44986 -1.37647 0
M  V30 4003 H 375.111 -2.06129 0.512313 0
M  V30 4004 H 377.374 -0.933088 0.167485 0
M  V30 4005 H 377.08 -3.51687 0.0302604 0
M  V30 4006 H 376.954 -3.36061 -1.71298 0
M  V30 4007 H 379.341 -2.36981 -1.75852 0
M  V30 4008 H 379.422 -2.558 -0.00101257 0
M  V30 4009 H 379.066 -5.07149 -0.27614 0
M  V30 4010 H 378.996 -4.85359 -2.04289 0
M  V30 4011 H 381.487 -3.61969 -1.08567 0
M  V30 4012 H 381.8 -7.55758 -1.61397 0
M  V30 4013 H 380.145 -6.79529 -1.45828 0
M  V30 4014 H 383.336 -4.50715 -1.26388 0
M  V30 4015 H 383.509 -6.3028 -1.50501 0
M  V30 4016 N 376.915 0.57481 -1.46744 0
M  V30 4017 C 378.163 1.33009 -1.52161 0
M  V30 4018 C 378.484 1.94185 -0.178092 0
M  V30 4019 O 377.754 1.7899 0.796196 0
M  V30 4020 H 376.334 0.493873 -0.560445 0
M  V30 4021 H 378.996 0.672589 -1.82927 0
M  V30 4022 H 378.092 2.13273 -2.27862 0
M  V30 4023 N 378.394 1.34581 0.820102 0
M  V30 4024 C 379.622 1.3018 1.60813 0
M  V30 4025 C 380.037 -0.123551 1.88395 0
M  V30 4026 O 379.394 -1.07148 1.47735 0
M  V30 4027 C 379.445 2.09312 2.94739 0
M  V30 4028 O 379.166 3.46288 2.68358 0
M  V30 4029 C 380.667 2.1234 3.89136 0
M  V30 4030 H 377.887 0.447726 0.499782 0
M  V30 4031 H 380.431 1.77237 1.02017 0
M  V30 4032 H 378.586 1.65889 3.50085 0
M  V30 4033 H 379 3.87227 3.53774 0
M  V30 4034 H 380.474 2.72126 4.80262 0
M  V30 4035 H 380.951 1.11854 4.24718 0
M  V30 4036 H 381.557 2.55864 3.39726 0
M  V30 4037 N 379.872 -1.04064 1.18357 0
M  V30 4038 C 381.283 -1.58719 0.98312 0
M  V30 4039 C 381.634 -1.90556 -0.467193 0
M  V30 4040 O 380.759 -1.69561 -1.34454 0
M  V30 4041 C 381.354 -2.88379 1.77828 0
M  V30 4042 C 379.913 -3.3965 1.62218 0
M  V30 4043 C 379.06 -2.13235 1.77274 0
M  V30 4044 H 382.011 -0.867359 1.32901 0
M  V30 4045 H 382.032 -3.58773 1.26737 0
M  V30 4046 H 381.544 -2.65176 2.83379 0
M  V30 4047 H 379.645 -3.67866 0.592036 0
M  V30 4048 H 379.758 -4.13475 2.42023 0
M  V30 4049 H 378.122 -2.24542 1.20221 0
M  V30 4050 H 378.905 -1.92487 2.8426 0
M  V30 4051 N 381.35 -0.985608 -1.22978 0
M  V30 4052 C 382.761 -0.693593 -1.73338 0
M  V30 4053 C 383.112 0.789935 -1.79595 0
M  V30 4054 O 382.237 1.61771 -1.43733 0
M  V30 4055 C 382.832 -1.25235 -3.14804 0
M  V30 4056 C 381.391 -1.00987 -3.626 0
M  V30 4057 C 380.538 -1.37695 -2.40698 0
M  V30 4058 H 383.489 -1.15884 -1.08428 0
M  V30 4059 H 383.51 -0.627329 -3.75293 0
M  V30 4060 H 383.022 -2.33209 -3.10218 0
M  V30 4061 H 381.123 0.0535565 -3.72562 0
M  V30 4062 H 381.236 -1.66812 -4.49122 0
M  V30 4063 H 379.6 -0.795459 -2.4196 0
M  V30 4064 H 380.383 -2.46657 -2.38779 0
M  V30 4065 N 382.828 1.3818 -0.7579 0
M  V30 4066 C 384.068 2.01864 -0.320968 0
M  V30 4067 C 384.432 1.58863 1.07827 0
M  V30 4068 O 385.633 2.14908 1.61456 0
M  V30 4069 C 383.904 3.54626 -0.44446 0
M  V30 4070 S 385.463 4.38706 -0.0907467 0
M  V30 4071 H 382.281 0.700056 -0.124268 0
M  V30 4072 H 384.883 1.68611 -0.989468 0
M  V30 4073 H 383.587 3.83411 -1.4637 0
M  V30 4074 H 383.118 3.92661 0.241073 0
M  V30 4075 H 385.133 4.83435 1.11826 0
M  V30 4076 N 384.306 0.507319 1.49211 0
M  V30 4077 C 385.536 -0.0315292 2.06576 0
M  V30 4078 C 385.944 -1.30791 1.36713 0
M  V30 4079 O 385.287 -1.78324 0.441181 0
M  V30 4080 C 385.349 -0.349104 3.57801 0
M  V30 4081 C 385.013 0.830475 4.49391 0
M  V30 4082 C 386.01 1.72271 4.90529 0
M  V30 4083 C 383.695 1.03107 4.91604 0
M  V30 4084 C 385.689 2.79964 5.72625 0
M  V30 4085 C 383.376 2.11116 5.73475 0
M  V30 4086 C 384.374 2.99379 6.1389 0
M  V30 4087 O 384.062 4.05523 6.94123 0
M  V30 4088 H 383.794 0.0201002 0.675701 0
M  V30 4089 H 386.348 0.705737 1.92895 0
M  V30 4090 H 384.578 -1.14005 3.69513 0
M  V30 4091 H 386.267 -0.827319 3.97379 0
M  V30 4092 H 387.033 1.57958 4.58557 0
M  V30 4093 H 382.912 0.353417 4.59643 0
M  V30 4094 H 386.456 3.48884 6.04091 0
M  V30 4095 H 382.353 2.25421 6.0486 0
M  V30 4096 H 383.121 4.02953 7.1244 0
M  V30 4097 N 385.784 -1.5574 0.241426 0
M  V30 4098 C 387.033 -1.97986 -0.385295 0
M  V30 4099 C 387.346 -1.13267 -1.59468 0
M  V30 4100 O 388.552 -1.45501 -2.2922 0
M  V30 4101 C 387.008 -3.52275 -0.736884 0
M  V30 4102 C 386.616 -4.45726 0.450796 0
M  V30 4103 C 388.36 -4.03189 -1.3281 0
M  V30 4104 C 386.267 -5.91352 0.0756662 0
M  V30 4105 H 385.197 -0.739386 -0.147731 0
M  V30 4106 H 387.848 -1.80308 0.340779 0
M  V30 4107 H 386.23 -3.65628 -1.52094 0
M  V30 4108 H 387.404 -4.44131 1.22819 0
M  V30 4109 H 385.719 -4.05264 0.956573 0
M  V30 4110 H 388.316 -5.09505 -1.62201 0
M  V30 4111 H 388.659 -3.50212 -2.25071 0
M  V30 4112 H 389.192 -3.93141 -0.607069 0
M  V30 4113 H 385.931 -6.48354 0.965272 0
M  V30 4114 H 385.451 -5.96095 -0.665635 0
M  V30 4115 H 387.13 -6.46084 -0.344075 0
M  V30 4116 N 387.262 0.0317525 -1.57568 0
M  V30 4117 C 388.51 0.721676 -1.88776 0
M  V30 4118 C 388.831 1.76039 -0.838772 0
M  V30 4119 O 388.101 1.95482 0.127935 0
M  V30 4120 H 386.681 0.269534 -0.696678 0
M  V30 4121 H 389.343 -0.00165879 -1.949 0
M  V30 4122 H 388.439 1.21293 -2.87566 0
M  V30 4123 N 388.74 1.54641 0.303973 0
M  V30 4124 C 389.989 1.7299 1.03717 0
M  V30 4125 C 390.302 0.521168 1.88529 0
M  V30 4126 O 391.508 0.586408 2.65092 0
M  V30 4127 C 389.964 3.06051 1.89369 0
M  V30 4128 C 389.572 4.34393 1.09574 0
M  V30 4129 C 391.316 3.3376 2.62306 0
M  V30 4130 C 389.223 5.58506 1.94486 0
M  V30 4131 H 388.153 0.64473 0.390947 0
M  V30 4132 H 390.804 1.81124 0.294328 0
M  V30 4133 H 389.186 2.91874 2.67629 0
M  V30 4134 H 390.36 4.59396 0.359485 0
M  V30 4135 H 388.675 4.13597 0.482324 0
M  V30 4136 H 391.272 4.23687 3.26181 0
M  V30 4137 H 391.615 2.52503 3.3098 0
M  V30 4138 H 392.148 3.48894 1.91097 0
M  V30 4139 H 388.887 6.42422 1.30287 0
M  V30 4140 H 388.407 5.37694 2.65792 0
M  V30 4141 H 390.086 5.95651 2.52605 0
M  V30 4142 N 390.218 -0.567019 1.47046 0
M  V30 4143 C 391.467 -1.32091 1.5243 0
M  V30 4144 C 391.78 -1.94704 0.187021 0
M  V30 4145 O 392.986 -2.7124 0.118771 0
M  V30 4146 C 391.442 -2.39479 2.68659 0
M  V30 4147 C 391.05 -1.831 4.08874 0
M  V30 4148 C 392.794 -3.16111 2.83327 0
M  V30 4149 C 390.701 -2.8821 5.16419 0
M  V30 4150 H 389.631 -0.496629 0.56734 0
M  V30 4151 H 392.282 -0.603354 1.73297 0
M  V30 4152 H 390.664 -3.14105 2.41152 0
M  V30 4153 H 391.838 -1.14913 4.46242 0
M  V30 4154 H 390.153 -1.19085 3.99008 0
M  V30 4155 H 392.75 -3.94585 3.60842 0
M  V30 4156 H 393.093 -3.69686 1.91411 0
M  V30 4157 H 393.626 -2.48595 3.10556 0
M  V30 4158 H 390.365 -2.39504 6.10179 0
M  V30 4159 H 389.885 -3.54839 4.8358 0
M  V30 4160 H 391.564 -3.51881 5.42945 0
M  V30 4161 N 391.696 -1.35014 -0.812953 0
M  V30 4162 C 392.626 -1.30069 -1.93919 0
M  V30 4163 C 393.607 -0.176275 -1.69184 0
M  V30 4164 O 394.792 -0.370227 -1.90638 0
M  V30 4165 C 391.922 -1.06547 -3.30552 0
M  V30 4166 C 390.876 -2.15561 -3.69753 0
M  V30 4167 C 390.202 -1.77214 -5.04479 0
M  V30 4168 C 391.502 -3.57476 -3.808 0
M  V30 4169 H 393.196 -2.24303 -1.98314 0
M  V30 4170 H 390.742 -1.07977 -0.952736 0
M  V30 4171 H 392.695 -1.01729 -4.08937 0
M  V30 4172 H 391.419 -0.0875719 -3.26483 0
M  V30 4173 H 390.078 -2.19466 -2.9365 0
M  V30 4174 H 389.726 -0.780589 -4.96906 0
M  V30 4175 H 389.426 -2.50184 -5.31678 0
M  V30 4176 H 390.95 -1.7391 -5.8531 0
M  V30 4177 H 392.364 -3.55929 -4.4943 0
M  V30 4178 H 390.761 -4.29152 -4.19462 0
M  V30 4179 H 391.831 -3.94091 -2.82525 0
M  V30 4180 N 393.175 1.03435 -1.18907 0
M  V30 4181 C 394.423 1.76394 -0.986382 0
M  V30 4182 C 394.744 1.88883 0.484567 0
M  V30 4183 O 394.014 1.41843 1.3512 0
M  V30 4184 H 392.594 0.65344 -0.361975 0
M  V30 4185 H 395.256 1.248 -1.49703 0
M  V30 4186 H 394.352 2.77424 -1.42978 0
M  V30 4187 N 394.653 0.992116 1.22453 0
M  V30 4188 C 395.881 0.685944 1.95198 0
M  V30 4189 C 396.296 -0.749233 1.73297 0
M  V30 4190 O 395.653 -1.50549 1.03156 0
M  V30 4191 C 395.704 0.981395 3.47924 0
M  V30 4192 O 395.425 2.36018 3.6909 0
M  V30 4193 C 396.926 0.692815 4.37853 0
M  V30 4194 H 394.146 0.253821 0.621141 0
M  V30 4195 H 396.69 1.32668 1.55626 0
M  V30 4196 H 394.845 0.386481 3.85467 0
M  V30 4197 H 395.259 2.45884 4.63294 0
M  V30 4198 H 396.733 0.949818 5.43767 0
M  V30 4199 H 397.21 -0.373181 4.37612 0
M  V30 4200 H 397.816 1.26874 4.05935 0
M  V30 4201 N 396.131 -1.37776 0.765217 0
M  V30 4202 C 397.379 -1.99454 0.325943 0
M  V30 4203 C 397.7 -1.61049 -1.09947 0
M  V30 4204 O 396.97 -0.872821 -1.75381 0
M  V30 4205 H 395.55 -0.737697 0.117525 0
M  V30 4206 H 398.212 -1.68359 0.981895 0
M  V30 4207 H 397.308 -3.09547 0.398353 0
M  V30 4208 N 397.609 -0.515225 -1.4894 0
M  V30 4209 C 398.834 0.022727 -2.07388 0
M  V30 4210 C 399.259 1.2876 -1.37122 0
M  V30 4211 O 398.617 1.76067 -0.432431 0
M  V30 4212 C 398.665 0.244869 -3.59768 0
M  V30 4213 O 397.769 1.31667 -3.90817 0
M  V30 4214 H 397.11 -0.0325506 -0.663202 0
M  V30 4215 H 399.64 -0.718918 -1.91553 0
M  V30 4216 H 399.65 0.47205 -4.0526 0
M  V30 4217 H 398.325 -0.679194 -4.10317 0
M  V30 4218 H 396.902 1.07331 -3.5712 0
M  V30 4219 N 399.087 1.5561 -0.249682 0
M  V30 4220 C 400.035 2.22894 0.664906 0
M  V30 4221 C 401.029 1.21743 1.17792 0
M  V30 4222 O 402.235 1.39748 1.13449 0
M  V30 4223 H 398.61 0.715022 0.232912 0
M  V30 4224 H 400.581 2.98307 0.0742998 0
M  V30 4225 C 399.33 2.94424 1.84959 0
M  V30 4226 H 398.653 3.72031 1.46399 0
M  V30 4227 H 400.093 3.44862 2.4667 0
M  V30 4228 C 398.552 1.98454 2.72245 0
M  V30 4229 O 399.082 1.51939 3.71857 0
M  V30 4230 N 397.288 1.65496 2.38871 0
M  V30 4231 H 396.835 2.03517 1.57919 0
M  V30 4232 H 396.793 1.0155 2.97548 0
M  V30 4233 N 400.565 -0.0233959 1.57583 0
M  V30 4234 C 401.813 -0.711654 1.89156 0
M  V30 4235 C 402.134 -1.75591 0.848096 0
M  V30 4236 O 401.404 -1.95547 -0.117566 0
M  V30 4237 H 399.984 -0.265835 0.698098 0
M  V30 4238 H 402.646 0.0119948 1.94896 0
M  V30 4239 H 401.742 -1.19766 2.88206 0
M  V30 4240 N 402.043 -1.548 -0.295768 0
M  V30 4241 C 403.283 -1.76069 -1.03823 0
M  V30 4242 C 403.647 -0.537992 -1.84309 0
M  V30 4243 O 404.848 -0.628514 -2.61349 0
M  V30 4244 C 403.119 -3.01705 -1.91596 0
M  V30 4245 S 404.678 -3.43998 -2.72416 0
M  V30 4246 H 401.496 -0.618852 -0.350062 0
M  V30 4247 H 404.098 -1.93009 -0.31106 0
M  V30 4248 H 402.802 -3.88812 -1.31351 0
M  V30 4249 H 402.333 -2.87366 -2.68671 0
M  V30 4250 H 404.348 -3.0148 -3.94112 0
M  V30 4251 N 403.521 0.559213 -1.47345 0
M  V30 4252 C 404.751 1.33999 -1.57251 0
M  V30 4253 C 405.159 1.87905 -0.220978 0
M  V30 4254 O 404.502 1.65577 0.795617 0
M  V30 4255 C 404.564 2.54798 -2.53611 0
M  V30 4256 C 404.228 2.22192 -3.99349 0
M  V30 4257 C 405.225 1.79607 -4.87891 0
M  V30 4258 C 402.91 2.33613 -4.44669 0
M  V30 4259 C 404.904 1.48868 -6.19772 0
M  V30 4260 C 402.591 2.02487 -5.76578 0
M  V30 4261 C 403.589 1.60183 -6.63951 0
M  V30 4262 O 403.277 1.29451 -7.93409 0
M  V30 4263 H 403.009 0.414858 -0.533731 0
M  V30 4264 H 405.563 0.684465 -1.9366 0
M  V30 4265 H 403.793 3.23235 -2.12265 0
M  V30 4266 H 405.482 3.16873 -2.53666 0
M  V30 4267 H 406.248 1.70278 -4.54126 0
M  V30 4268 H 402.127 2.65501 -3.76869 0
M  V30 4269 H 405.671 1.15775 -6.87926 0
M  V30 4270 H 401.568 2.11448 -6.09885 0
M  V30 4271 H 402.336 1.43098 -8.05894 0
M  V30 4272 N 404.999 1.35443 0.805782 0
M  V30 4273 C 406.229 1.31687 1.59192 0
M  V30 4274 C 406.637 -0.10756 1.88894 0
M  V30 4275 O 405.98 -1.07017 1.49309 0
M  V30 4276 C 406.042 2.05686 2.94845 0
M  V30 4277 C 405.706 3.54868 2.87954 0
M  V30 4278 C 406.703 4.49444 2.61335 0
M  V30 4279 C 404.388 3.97528 3.07046 0
M  V30 4280 C 406.382 5.84655 2.53885 0
M  V30 4281 C 404.069 5.32833 2.99219 0
M  V30 4282 C 405.067 6.26209 2.72674 0
M  V30 4283 O 404.755 7.59032 2.64811 0
M  V30 4284 H 404.487 0.453878 0.50097 0
M  V30 4285 H 407.041 1.78892 1.0093 0
M  V30 4286 H 405.271 1.5312 3.55093 0
M  V30 4287 H 406.96 1.94998 3.55993 0
M  V30 4288 H 407.726 4.17804 2.46303 0
M  V30 4289 H 403.605 3.25233 3.26718 0
M  V30 4290 H 407.149 6.57508 2.33086 0
M  V30 4291 H 403.046 5.64087 3.13809 0
M  V30 4292 H 403.814 7.68967 2.80413 0
M  V30 4293 N 406.477 -1.02803 1.19454 0
M  V30 4294 C 407.387 -2.14575 0.948408 0
M  V30 4295 C 408.403 -1.73757 -0.091871 0
M  V30 4296 O 409.579 -2.01185 0.0929654 0
M  V30 4297 C 406.644 -3.43202 0.491265 0
M  V30 4298 C 405.705 -3.98328 1.60103 0
M  V30 4299 C 404.938 -5.20816 1.16561 0
M  V30 4300 O 405.161 -5.70392 0.0295238 0
M  V30 4301 O 404.095 -5.68801 1.96849 0
M  V30 4302 H 407.921 -2.38202 1.88397 0
M  V30 4303 H 405.506 -1.12989 0.977433 0
M  V30 4304 H 407.388 -4.20687 0.245015 0
M  V30 4305 H 406.063 -3.21018 -0.415851 0
M  V30 4306 H 404.97 -3.22174 1.90144 0
M  V30 4307 H 406.303 -4.24879 2.48473 0
M  V30 4308 N 407.956 -0.998596 -1.21925 0
M  V30 4309 C 409.367 -0.711939 -1.72593 0
M  V30 4310 C 409.718 0.770842 -1.80423 0
M  V30 4311 O 408.843 1.60237 -1.4544 0
M  V30 4312 C 409.438 -1.28567 -3.13458 0
M  V30 4313 C 407.997 -1.04828 -3.61508 0
M  V30 4314 C 407.144 -1.4024 -2.39224 0
M  V30 4315 H 410.095 -1.17027 -1.07193 0
M  V30 4316 H 410.116 -0.667098 -3.74607 0
M  V30 4317 H 409.628 -2.36486 -3.07727 0
M  V30 4318 H 407.729 0.0140383 -3.72597 0
M  V30 4319 H 407.842 -1.71566 -4.47328 0
M  V30 4320 H 406.206 -0.821077 -2.41103 0
M  V30 4321 H 406.989 -2.49176 -2.36149 0
M  V30 4322 N 409.434 1.37368 -0.772513 0
M  V30 4323 C 410.344 2.34053 -0.160081 0
M  V30 4324 C 411.36 1.60216 0.678728 0
M  V30 4325 O 412.536 1.92303 0.59847 0
M  V30 4326 C 409.601 3.3939 0.708182 0
M  V30 4327 C 408.662 4.29048 -0.147172 0
M  V30 4328 C 407.895 5.29354 0.679744 0
M  V30 4329 O 408.118 5.3723 1.91678 0
M  V30 4330 O 407.052 6.01835 0.0885444 0
M  V30 4331 H 410.878 2.88159 -0.959053 0
M  V30 4332 H 408.463 1.39543 -0.533685 0
M  V30 4333 H 410.345 4.03839 1.20384 0
M  V30 4334 H 409.02 2.8761 1.48533 0
M  V30 4335 H 407.927 3.67697 -0.689205 0
M  V30 4336 H 409.26 4.84134 -0.887423 0
M  V30 4337 N 410.912 0.523116 1.48665 0
M  V30 4338 C 412.158 -0.00540031 2.03399 0
M  V30 4339 C 412.513 -1.3264 1.39372 0
M  V30 4340 O 411.806 -1.84184 0.527916 0
M  V30 4341 C 412 -0.191671 3.56886 0
M  V30 4342 C 411.829 1.10972 4.35793 0
M  V30 4343 C 410.599 1.66769 4.76987 0
M  V30 4344 C 412.797 2.01861 4.73029 0
M  V30 4345 N 410.779 2.91268 5.40404 0
M  V30 4346 C 412.15 3.10937 5.36394 0
M  V30 4347 C 414.205 2.02271 4.54962 0
M  V30 4348 C 412.908 4.20478 5.83601 0
M  V30 4349 C 414.934 3.10802 5.03146 0
M  V30 4350 C 414.296 4.18597 5.6653 0
M  V30 4351 H 410.395 0.0393531 0.781009 0
M  V30 4352 H 412.979 0.702876 1.8157 0
M  V30 4353 H 411.15 -0.869025 3.78553 0
M  V30 4354 H 412.882 -0.719177 3.98259 0
M  V30 4355 H 409.637 1.20996 4.57883 0
M  V30 4356 H 410.061 3.54635 5.76683 0
M  V30 4357 H 414.703 1.2023 4.05345 0
M  V30 4358 H 412.421 5.03303 6.32228 0
M  V30 4359 H 416.007 3.12166 4.90962 0
M  V30 4360 H 414.887 5.01193 6.03138 0
M  V30 4361 N 412.39 -1.55475 0.257931 0
M  V30 4362 C 413.337 -2.21837 -0.636939 0
M  V30 4363 C 414.307 -1.18596 -1.16294 0
M  V30 4364 O 415.492 -1.47081 -1.21539 0
M  V30 4365 C 412.632 -2.9301 -1.82317 0
M  V30 4366 C 411.745 -4.10931 -1.33265 0
M  V30 4367 C 410.88 -4.69791 -2.47931 0
M  V30 4368 C 409.919 -5.7994 -1.95796 0
M  V30 4369 N 409.056 -6.32935 -3.0387 0
M  V30 4370 H 413.896 -2.9793 -0.0643591 0
M  V30 4371 H 411.433 -1.47086 -0.0200031 0
M  V30 4372 H 413.391 -3.3248 -2.52018 0
M  V30 4373 H 412.021 -2.1937 -2.36805 0
M  V30 4374 H 411.073 -3.76699 -0.52931 0
M  V30 4375 H 412.385 -4.90417 -0.910654 0
M  V30 4376 H 411.539 -5.11892 -3.25656 0
M  V30 4377 H 410.278 -3.89545 -2.93438 0
M  V30 4378 H 409.283 -5.37305 -1.16546 0
M  V30 4379 H 410.508 -6.62043 -1.51246 0
M  V30 4380 H 408.454 -5.55591 -3.48791 0
M  V30 4381 H 408.371 -7.07645 -2.66035 0
M  V30 4382 H 409.639 -6.79695 -3.81621 0
M  V30 4383 N 413.868 0.0150385 -1.57593 0
M  V30 4384 C 414.815 1.01126 -2.07466 0
M  V30 4385 C 415.785 1.35064 -0.966794 0
M  V30 4386 O 416.97 1.4516 -1.23827 0
M  V30 4387 C 414.11 2.30276 -2.57035 0
M  V30 4388 C 413.223 2.02373 -3.81666 0
M  V30 4389 C 412.358 3.25496 -4.19793 0
M  V30 4390 C 411.397 2.93211 -5.37303 0
M  V30 4391 N 410.534 4.08826 -5.70794 0
M  V30 4392 H 415.374 0.57901 -2.92321 0
M  V30 4393 H 412.911 0.27426 -1.44521 0
M  V30 4394 H 414.869 3.05757 -2.83846 0
M  V30 4395 H 413.499 2.71197 -1.75077 0
M  V30 4396 H 412.551 1.17327 -3.61854 0
M  V30 4397 H 413.863 1.74567 -4.67256 0
M  V30 4398 H 413.017 4.09333 -4.47807 0
M  V30 4399 H 411.756 3.56428 -3.32882 0
M  V30 4400 H 410.761 2.07777 -5.09027 0
M  V30 4401 H 411.986 2.63542 -6.25877 0
M  V30 4402 H 409.932 4.39682 -4.86842 0
M  V30 4403 H 409.849 3.84491 -6.50924 0
M  V30 4404 H 411.117 4.93496 -6.03392 0
M  V30 4405 N 415.346 1.54954 0.287554 0
M  V30 4406 C 416.576 1.78622 1.03816 0
M  V30 4407 C 416.984 0.552451 1.80955 0
M  V30 4408 O 416.327 -0.487665 1.77109 0
M  V30 4409 C 416.389 2.94975 2.055 0
M  V30 4410 C 416.053 4.32565 1.47433 0
M  V30 4411 C 417.05 5.12096 0.897436 0
M  V30 4412 C 414.735 4.79195 1.50591 0
M  V30 4413 C 416.729 6.36383 0.359851 0
M  V30 4414 C 414.416 6.03441 0.964459 0
M  V30 4415 C 415.414 6.81872 0.392413 0
M  V30 4416 O 415.102 8.03777 -0.140788 0
M  V30 4417 H 414.834 0.599144 0.313053 0
M  V30 4418 H 417.388 2.02761 0.328225 0
M  V30 4419 H 415.618 2.66493 2.80211 0
M  V30 4420 H 417.307 3.06097 2.6657 0
M  V30 4421 H 418.073 4.77209 0.865841 0
M  V30 4422 H 413.952 4.18167 1.94055 0
M  V30 4423 H 417.496 6.97545 -0.0872951 0
M  V30 4424 H 413.393 6.37813 0.993246 0
M  V30 4425 H 414.161 8.18495 -0.0287617 0
M  V30 4426 N 416.824 -0.551391 1.4764 0
M  V30 4427 C 417.771 -1.65796 1.60563 0
M  V30 4428 C 418.741 -1.59932 0.448428 0
M  V30 4429 O 419.926 -1.78679 0.669222 0
M  V30 4430 C 417.066 -3.04108 1.63133 0
M  V30 4431 C 416.179 -3.20365 2.89811 0
M  V30 4432 C 415.314 -4.49109 2.8368 0
M  V30 4433 C 414.353 -4.58819 4.05156 0
M  V30 4434 N 413.49 -5.78926 3.97227 0
M  V30 4435 H 418.33 -1.54088 2.5507 0
M  V30 4436 H 415.867 -0.75052 1.26513 0
M  V30 4437 H 417.825 -3.84207 1.62606 0
M  V30 4438 H 416.455 -3.14637 0.721341 0
M  V30 4439 H 415.507 -2.33659 3.00179 0
M  V30 4440 H 416.819 -3.23402 3.79753 0
M  V30 4441 H 415.973 -5.37475 2.81434 0
M  V30 4442 H 414.712 -4.4856 1.91431 0
M  V30 4443 H 413.717 -3.68864 4.077 0
M  V30 4444 H 414.942 -4.61124 4.98539 0
M  V30 4445 H 412.888 -5.79314 3.07785 0
M  V30 4446 H 412.805 -5.83367 4.80853 0
M  V30 4447 H 414.073 -6.69637 3.99007 0
M  V30 4448 N 418.302 -1.35869 -0.798587 0
M  V30 4449 C 419.532 -1.32529 -1.58491 0
M  V30 4450 C 419.94 0.0975405 -1.88948 0
M  V30 4451 O 419.283 1.06224 -1.49874 0
M  V30 4452 C 419.345 -2.07247 -2.9375 0
M  V30 4453 C 419.009 -3.56391 -2.86068 0
M  V30 4454 C 420.006 -4.50824 -2.58947 0
M  V30 4455 C 417.691 -3.9915 -3.04933 0
M  V30 4456 C 419.685 -5.85993 -2.5078 0
M  V30 4457 C 417.372 -5.34413 -2.96389 0
M  V30 4458 C 418.37 -6.27646 -2.69349 0
M  V30 4459 O 418.058 -7.60426 -2.60782 0
M  V30 4460 H 417.79 -0.456529 -0.498556 0
M  V30 4461 H 420.344 -1.79425 -0.999799 0
M  V30 4462 H 418.574 -1.55001 -3.54276 0
M  V30 4463 H 420.263 -1.96883 -3.54954 0
M  V30 4464 H 421.029 -4.19104 -2.44084 0
M  V30 4465 H 416.908 -3.26961 -3.24989 0
M  V30 4466 H 420.452 -6.58735 -2.29595 0
M  V30 4467 H 416.349 -5.65743 -3.10813 0
M  V30 4468 H 417.117 -7.70444 -2.76331 0
M  V30 4469 N 419.78 1.02168 -1.19998 0
M  V30 4470 C 420.743 2.08765 -0.94604 0
M  V30 4471 C 421.743 1.60618 0.0763846 0
M  V30 4472 O 422.933 1.73472 -0.159135 0
M  V30 4473 C 420.065 3.38262 -0.423255 0
M  V30 4474 H 421.258 2.32726 -1.89153 0
M  V30 4475 H 418.811 1.1889 -1.01464 0
M  V30 4476 H 419.546 3.19974 0.527938 0
M  V30 4477 H 419.331 3.74532 -1.16053 0
M  V30 4478 H 420.821 4.16759 -0.264911 0
M  V30 4479 N 421.258 1.00505 1.21394 0
M  V30 4480 C 422.506 0.686415 1.90086 0
M  V30 4481 C 422.827 -0.785264 1.7849 0
M  V30 4482 O 422.097 -1.56387 1.17983 0
M  V30 4483 H 420.677 0.2509 0.703604 0
M  V30 4484 H 423.339 1.27417 1.47482 0
M  V30 4485 H 422.435 0.959621 2.96981 0
M  V30 4486 N 422.737 -1.36956 0.779787 0
M  V30 4487 C 423.684 -2.30175 0.169697 0
M  V30 4488 C 424.654 -1.51501 -0.68094 0
M  V30 4489 O 425.839 -1.80042 -0.631629 0
M  V30 4490 C 422.979 -3.37985 -0.697131 0
M  V30 4491 C 422.092 -4.31661 0.170992 0
M  V30 4492 C 421.227 -5.2655 -0.701298 0
M  V30 4493 C 420.266 -6.11867 0.168869 0
M  V30 4494 N 419.403 -6.98973 -0.661855 0
M  V30 4495 H 424.243 -2.81767 0.970135 0
M  V30 4496 H 421.78 -1.38699 0.489994 0
M  V30 4497 H 423.738 -3.99128 -1.2146 0
M  V30 4498 H 422.368 -2.87739 -1.46309 0
M  V30 4499 H 421.42 -3.71756 0.80634 0
M  V30 4500 H 422.732 -4.91644 0.841875 0
M  V30 4501 H 421.886 -5.92937 -1.28494 0
M  V30 4502 H 420.625 -4.66998 -1.40584 0
M  V30 4503 H 419.63 -5.44452 0.764986 0
M  V30 4504 H 420.855 -6.73493 0.870863 0
M  V30 4505 H 418.801 -6.41941 -1.35086 0
M  V30 4506 H 418.718 -7.55984 -0.0484447 0
M  V30 4507 H 419.986 -7.6974 -1.22963 0
M  V30 4508 N 424.215 -0.530993 -1.48385 0
M  V30 4509 C 425.464 0.00474348 -2.01699 0
M  V30 4510 C 425.777 1.35227 -1.41325 0
M  V30 4511 O 426.983 1.97643 -1.86144 0
M  V30 4512 C 425.439 0.0588473 -3.59852 0
M  V30 4513 C 425.047 -1.28385 -4.2921 0
M  V30 4514 C 426.791 0.543358 -4.21008 0
M  V30 4515 C 424.698 -1.19028 -5.79298 0
M  V30 4516 H 423.628 0.00554317 -0.75398 0
M  V30 4517 H 426.279 -0.674924 -1.70637 0
M  V30 4518 H 424.661 0.803612 -3.8776 0
M  V30 4519 H 425.835 -2.04426 -4.12973 0
M  V30 4520 H 424.15 -1.70418 -3.7993 0
M  V30 4521 H 426.747 0.631351 -5.3096 0
M  V30 4522 H 427.09 1.54937 -3.86394 0
M  V30 4523 H 427.623 -0.145754 -3.97533 0
M  V30 4524 H 424.362 -2.17147 -6.18488 0
M  V30 4525 H 423.882 -0.471246 -5.97946 0
M  V30 4526 H 425.561 -0.881365 -6.40969 0
M  V30 4527 N 425.693 1.55336 -0.266172 0
M  V30 4528 C 426.942 1.98574 0.353749 0
M  V30 4529 C 427.255 1.15789 1.57646 0
M  V30 4530 O 428.461 1.49129 2.26876 0
M  V30 4531 C 426.917 3.53403 0.680747 0
M  V30 4532 C 426.525 4.44953 -0.52165 0
M  V30 4533 C 428.269 4.05251 1.26379 0
M  V30 4534 C 426.176 5.91156 -0.169736 0
M  V30 4535 H 425.106 0.741643 0.135949 0
M  V30 4536 H 427.757 1.79743 -0.369421 0
M  V30 4537 H 426.139 3.68001 1.46257 0
M  V30 4538 H 427.313 4.42121 -1.29869 0
M  V30 4539 H 425.628 4.03691 -1.02093 0
M  V30 4540 H 428.225 5.12021 1.54074 0
M  V30 4541 H 428.568 3.53749 2.19471 0
M  V30 4542 H 429.101 3.94057 0.544447 0
M  V30 4543 H 425.84 6.46736 -1.0683 0
M  V30 4544 H 425.36 5.97079 0.570717 0
M  V30 4545 H 427.039 6.4655 0.241245 0
M  V30 4546 N 427.171 -0.0066808 1.57599 0
M  V30 4547 C 428.119 -1.01851 2.09115 0
M  V30 4548 C 429.113 -1.36021 1.00969 0
M  V30 4549 O 430.319 -1.34663 1.19439 0
M  V30 4550 H 426.694 -0.346083 0.667631 0
M  V30 4551 H 428.665 -0.558394 2.93129 0
M  V30 4552 C 427.414 -2.30374 2.60429 0
M  V30 4553 H 426.737 -2.04947 3.43273 0
M  V30 4554 H 428.177 -2.99466 3.00161 0
M  V30 4555 C 426.636 -3.00893 1.51542 0
M  V30 4556 O 427.166 -3.91614 0.894484 0
M  V30 4557 N 425.372 -2.62603 1.2445 0
M  V30 4558 H 424.919 -1.88911 1.75129 0
M  V30 4559 H 424.877 -3.10101 0.518137 0
M  V30 4560 N 428.649 -1.55105 -0.279332 0
M  V30 4561 C 429.898 -1.74618 -1.00952 0
M  V30 4562 C 430.211 -0.551096 -1.87676 0
M  V30 4563 O 431.417 -0.628507 -2.64125 0
M  V30 4564 C 429.873 -3.09025 -1.84476 0
M  V30 4565 C 429.481 -4.36081 -1.0265 0
M  V30 4566 C 431.225 -3.37891 -2.56963 0
M  V30 4567 C 429.132 -5.6153 -1.85576 0
M  V30 4568 H 428.062 -0.650868 -0.38064 0
M  V30 4569 H 430.713 -1.81569 -0.265475 0
M  V30 4570 H 429.095 -2.96095 -2.62952 0
M  V30 4571 H 430.269 -4.59909 -0.286354 0
M  V30 4572 H 428.584 -4.14312 -0.416464 0
M  V30 4573 H 431.181 -4.28822 -3.19399 0
M  V30 4574 H 431.524 -2.57737 -3.26921 0
M  V30 4575 H 432.057 -3.5189 -1.85522 0
M  V30 4576 H 428.796 -6.44413 -1.2005 0
M  V30 4577 H 428.316 -5.41854 -2.57204 0
M  V30 4578 H 429.995 -5.99594 -2.43096 0
M  V30 4579 N 430.127 0.543554 -1.4793 0
M  V30 4580 C 431.037 1.67657 -1.64098 0
M  V30 4581 C 432.053 1.65934 -0.523622 0
M  V30 4582 O 433.229 1.85133 -0.792943 0
M  V30 4583 C 430.294 3.04146 -1.66421 0
M  V30 4584 C 429.355 3.16831 -2.89684 0
M  V30 4585 C 428.588 4.46809 -2.91886 0
M  V30 4586 O 428.811 5.33095 -2.02895 0
M  V30 4587 O 427.745 4.63573 -3.83906 0
M  V30 4588 H 431.571 1.56957 -2.59997 0
M  V30 4589 H 429.156 0.715116 -1.31173 0
M  V30 4590 H 431.038 3.85346 -1.70548 0
M  V30 4591 H 429.713 3.152 -0.736923 0
M  V30 4592 H 428.62 2.34977 -2.91095 0
M  V30 4593 H 429.953 3.10687 -3.81752 0
M  V30 4594 N 431.605 1.3629 0.791371 0
M  V30 4595 C 432.852 1.30412 1.54916 0
M  V30 4596 C 433.18 -0.117162 1.94147 0
M  V30 4597 O 432.435 -1.08599 1.62803 0
M  V30 4598 C 432.734 2.17068 2.8393 0
M  V30 4599 C 432.4 3.65645 2.63846 0
M  V30 4600 C 431.062 4.0614 2.58077 0
M  V30 4601 C 433.414 4.59855 2.45322 0
M  V30 4602 C 430.742 5.3899 2.31748 0
M  V30 4603 C 433.094 5.9292 2.2052 0
M  V30 4604 C 431.758 6.32542 2.13183 0
M  V30 4605 H 431.028 0.47721 0.566879 0
M  V30 4606 H 433.675 1.68325 0.913172 0
M  V30 4607 H 431.98 1.72085 3.51986 0
M  V30 4608 H 433.677 2.09846 3.4171 0
M  V30 4609 H 430.267 3.33518 2.69191 0
M  V30 4610 H 434.451 4.29443 2.48782 0
M  V30 4611 H 429.707 5.68672 2.24548 0
M  V30 4612 H 433.881 6.65487 2.05182 0
M  V30 4613 H 431.508 7.35412 1.92544 0
M  V30 4614 N 433.083 -1.0153 1.20538 0
M  V30 4615 C 434.331 -1.74803 1.01432 0
M  V30 4616 C 434.652 -1.8963 -0.454456 0
M  V30 4617 O 433.922 -1.43975 -1.32846 0
M  V30 4618 H 432.502 -0.647598 0.372324 0
M  V30 4619 H 435.164 -1.22402 1.5167 0
M  V30 4620 H 434.26 -2.75114 1.47373 0
M  V30 4621 N 434.561 -1.01147 -1.20859 0
M  V30 4622 C 435.509 -0.57059 -2.25493 0
M  V30 4623 C 436.503 0.388109 -1.64894 0
M  V30 4624 O 437.709 0.258592 -1.78133 0
M  V30 4625 H 434.084 -0.166191 -0.733406 0
M  V30 4626 H 436.055 -1.46411 -2.60012 0
M  V30 4627 C 434.804 0.0805241 -3.47607 0
M  V30 4628 H 434.127 -0.648156 -3.94511 0
M  V30 4629 H 435.567 0.352197 -4.22535 0
M  V30 4630 C 434.026 1.32175 -3.09889 0
M  V30 4631 O 434.556 2.41553 -3.20959 0
M  V30 4632 N 432.762 1.20392 -2.64488 0
M  V30 4633 H 432.309 0.313905 -2.5568 0
M  V30 4634 H 432.267 2.03541 -2.39621 0
M  V30 4635 N 436.039 1.36541 -0.78704 0
M  V30 4636 C 437.286 1.99304 -0.358341 0
M  V30 4637 C 437.614 1.62467 1.06933 0
M  V30 4638 O 436.869 0.870019 1.75297 0
M  V30 4639 C 437.168 3.54343 -0.466485 0
M  V30 4640 C 436.834 4.10993 -1.85461 0
M  V30 4641 C 435.496 4.26177 -2.23443 0
M  V30 4642 C 437.848 4.41895 -2.76366 0
M  V30 4643 C 435.176 4.69573 -3.51736 0
M  V30 4644 C 437.528 4.86722 -4.04084 0
M  V30 4645 C 436.192 5.00112 -4.42091 0
M  V30 4646 H 435.462 0.729306 -0.131126 0
M  V30 4647 H 438.109 1.63068 -1.00404 0
M  V30 4648 H 436.414 3.90918 0.262719 0
M  V30 4649 H 438.111 4.00833 -0.115854 0
M  V30 4650 H 434.701 3.99612 -1.54946 0
M  V30 4651 H 438.885 4.29735 -2.48277 0
M  V30 4652 H 434.141 4.78127 -3.81057 0
M  V30 4653 H 438.315 5.09598 -4.7464 0
M  V30 4654 H 435.942 5.33498 -5.41557 0
M  V30 4655 N 437.518 0.538854 1.48102 0
M  V30 4656 C 438.795 -0.0568108 1.95517 0
M  V30 4657 C 439.175 -1.50408 1.48124 0
M  V30 4658 O 438.523 -2.17133 0.711727 0
M  V30 4659 C 438.733 0.0696262 3.48931 0
M  V30 4660 C 440.081 -0.0851202 4.24515 0
M  V30 4661 O 441.105 -0.0037347 3.562 0
M  V30 4662 O 439.964 -0.257025 5.45895 0
M  V30 4663 H 437.058 -0.0743695 0.823649 0
M  V30 4664 H 439.604 0.604081 1.58584 0
M  V30 4665 H 438.376 1.07744 3.76174 0
M  V30 4666 H 437.999 -0.629714 3.92582 0
M  V30 4667 N 438.996 -1.55193 0.274407 0
M  V30 4668 C 439.943 -2.225 -0.613374 0
M  V30 4669 C 440.913 -1.19823 -1.15029 0
M  V30 4670 O 442.098 -1.48362 -1.19973 0
M  V30 4671 C 439.238 -2.94927 -1.79199 0
M  V30 4672 C 438.351 -4.12322 -1.28899 0
M  V30 4673 C 437.486 -4.72394 -2.42934 0
M  V30 4674 C 436.525 -5.81984 -1.89634 0
M  V30 4675 N 435.662 -6.36123 -2.9714 0
M  V30 4676 H 440.502 -2.97982 -0.032756 0
M  V30 4677 H 438.039 -1.47099 -0.00440146 0
M  V30 4678 H 439.997 -3.35134 -2.48478 0
M  V30 4679 H 438.627 -2.2187 -2.34465 0
M  V30 4680 H 437.679 -3.7724 -0.489327 0
M  V30 4681 H 438.991 -4.91355 -0.858587 0
M  V30 4682 H 438.145 -5.15317 -3.20208 0
M  V30 4683 H 436.884 -3.92636 -2.8929 0
M  V30 4684 H 435.889 -5.38511 -1.1084 0
M  V30 4685 H 437.114 -6.6361 -1.44215 0
M  V30 4686 H 435.06 -5.59259 -3.42878 0
M  V30 4687 H 434.977 -7.10427 -2.58515 0
M  V30 4688 H 436.245 -6.83704 -3.74391 0
M  V30 4689 N 440.474 -0.00167713 -1.576 0
M  V30 4690 C 441.751 0.719951 -1.81868 0
M  V30 4691 C 442.131 1.91895 -0.879747 0
M  V30 4692 O 441.479 2.28389 0.0711423 0
M  V30 4693 C 441.689 1.12409 -3.30402 0
M  V30 4694 C 443.037 1.52724 -3.96182 0
M  V30 4695 O 444.061 1.21784 -3.34734 0
M  V30 4696 O 442.92 2.10265 -5.04431 0
M  V30 4697 H 440.014 0.350707 -0.748955 0
M  V30 4698 H 442.56 -0.0272597 -1.69678 0
M  V30 4699 H 441.332 0.269532 -3.90371 0
M  V30 4700 H 440.955 1.93035 -3.47596 0
M  V30 4701 N 441.952 1.55251 0.271103 0
M  V30 4702 C 442.882 1.9127 1.33933 0
M  V30 4703 C 443.863 0.77478 1.5143 0
M  V30 4704 O 445.048 1.03307 1.64442 0
M  V30 4705 C 442.178 2.18627 2.69851 0
M  V30 4706 C 441.132 3.34442 2.67081 0
M  V30 4707 C 440.458 3.47284 4.06569 0
M  V30 4708 C 441.758 4.70784 2.26185 0
M  V30 4709 H 443.452 2.80744 1.04035 0
M  V30 4710 H 440.998 1.35077 0.499017 0
M  V30 4711 H 442.951 2.42413 3.44694 0
M  V30 4712 H 441.675 1.25955 3.01335 0
M  V30 4713 H 440.334 3.10627 1.94695 0
M  V30 4714 H 439.982 2.52074 4.35279 0
M  V30 4715 H 439.682 4.25152 4.0561 0
M  V30 4716 H 441.206 3.73363 4.83148 0
M  V30 4717 H 442.62 4.94102 2.90751 0
M  V30 4718 H 441.017 5.51582 2.36384 0
M  V30 4719 H 442.087 4.69478 1.21319 0
M  V30 4720 N 443.43 -0.535701 1.48216 0
M  V30 4721 C 444.841 -1.11769 1.49548 0
M  V30 4722 C 445.192 -1.94442 0.26207 0
M  V30 4723 O 444.317 -2.06987 -0.631287 0
M  V30 4724 C 444.912 -2.03367 2.70975 0
M  V30 4725 C 443.471 -2.56795 2.75196 0
M  V30 4726 C 442.618 -1.33631 2.42977 0
M  V30 4727 H 445.569 -0.321232 1.55415 0
M  V30 4728 H 445.59 -2.87569 2.49167 0
M  V30 4729 H 445.102 -1.43169 3.60727 0
M  V30 4730 H 443.203 -3.20731 1.89638 0
M  V30 4731 H 443.316 -2.9632 3.76472 0
M  V30 4732 H 441.68 -1.6502 1.94012 0
M  V30 4733 H 442.463 -0.75194 3.34964 0
M  V30 4734 N 444.908 -1.36708 -0.784132 0
M  V30 4735 C 446.136 -1.34398 -1.57305 0
M  V30 4736 C 446.551 0.0735577 -1.88657 0
M  V30 4737 O 445.908 1.03193 -1.50524 0
M  V30 4738 C 445.959 -2.17053 -2.89085 0
M  V30 4739 O 445.68 -3.53281 -2.59083 0
M  V30 4740 C 447.181 -2.22583 -3.83369 0
M  V30 4741 H 444.401 -0.460819 -0.487736 0
M  V30 4742 H 446.945 -1.79879 -0.972819 0
M  V30 4743 H 445.1 -1.75113 -3.45564 0
M  V30 4744 H 445.514 -3.9647 -3.43383 0
M  V30 4745 H 446.988 -2.84763 -4.72878 0
M  V30 4746 H 447.465 -1.23075 -4.21603 0
M  V30 4747 H 448.071 -2.64781 -3.32823 0
M  V30 4748 N 446.386 1.0089 -1.21074 0
M  V30 4749 C 447.611 1.78727 -1.05221 0
M  V30 4750 C 448.036 1.83932 0.393795 0
M  V30 4751 O 447.394 1.28004 1.28393 0
M  V30 4752 C 447.442 3.20665 -1.64944 0
M  V30 4753 O 446.546 4.02632 -0.892273 0
M  V30 4754 H 445.887 0.550973 -0.370574 0
M  V30 4755 H 448.417 1.26847 -1.60534 0
M  V30 4756 H 448.427 3.71352 -1.69002 0
M  V30 4757 H 447.102 3.16191 -2.70177 0
M  V30 4758 H 445.679 3.61207 -0.926492 0
M  V30 4759 N 447.864 1.01787 1.20321 0
M  V30 4760 C 449.275 0.739307 1.71438 0
M  V30 4761 C 449.626 -0.742041 1.81627 0
M  V30 4762 O 448.751 -1.57903 1.47971 0
M  V30 4763 C 449.346 1.33538 3.11373 0
M  V30 4764 C 447.905 1.10566 3.59795 0
M  V30 4765 C 447.052 1.44028 2.36962 0
M  V30 4766 H 450.003 1.18718 1.05317 0
M  V30 4767 H 450.024 0.726611 3.73498 0
M  V30 4768 H 449.536 2.41352 3.03926 0
M  V30 4769 H 447.637 0.0452405 3.72573 0
M  V30 4770 H 447.75 1.78661 4.44542 0
M  V30 4771 H 446.114 0.85933 2.39766 0
M  V30 4772 H 446.897 2.52901 2.32155 0
M  V30 4773 N 449.342 -1.36122 0.79427 0
M  V30 4774 C 450.591 -1.98361 0.365464 0
M  V30 4775 C 450.904 -1.6374 -1.06997 0
M  V30 4776 O 452.11 -2.19251 -1.60129 0
M  V30 4777 C 450.566 -3.54821 0.602496 0
M  V30 4778 C 450.174 -3.98362 2.04967 0
M  V30 4779 C 451.918 -4.2383 0.238437 0
M  V30 4780 C 449.825 -5.47619 2.2331 0
M  V30 4781 H 448.755 -0.742193 0.13291 0
M  V30 4782 H 451.406 -1.55354 0.976589 0
M  V30 4783 H 449.788 -3.95922 -0.078409 0
M  V30 4784 H 450.962 -3.68447 2.76737 0
M  V30 4785 H 449.277 -3.42206 2.37243 0
M  V30 4786 H 451.874 -5.33529 0.353705 0
M  V30 4787 H 452.217 -4.08264 -0.814006 0
M  V30 4788 H 452.75 -3.88108 0.872769 0
M  V30 4789 H 449.489 -5.68138 3.26955 0
M  V30 4790 H 449.009 -5.79145 1.5605 0
M  V30 4791 H 450.688 -6.13911 2.0426 0
M  V30 4792 N 450.82 -0.546701 -1.47814 0
M  V30 4793 C 452.097 0.0464413 -1.95545 0
M  V30 4794 C 452.477 1.4962 -1.48919 0
M  V30 4795 O 451.825 2.16752 -0.723232 0
M  V30 4796 C 452.035 -0.0881298 -3.48889 0
M  V30 4797 C 453.383 0.0626059 -4.24554 0
M  V30 4798 O 454.407 -0.0151555 -3.56197 0
M  V30 4799 O 453.266 0.228071 -5.46024 0
M  V30 4800 H 450.36 0.0700004 -0.824032 0
M  V30 4801 H 452.906 -0.612482 -1.58262 0
M  V30 4802 H 451.678 -1.09737 -3.75597 0
M  V30 4803 H 451.301 0.608886 -3.9291 0
M  V30 4804 N 452.299 1.55045 -0.282633 0
M  V30 4805 C 453.229 2.2579 0.595066 0
M  V30 4806 C 454.21 1.25074 1.15284 0
M  V30 4807 O 455.395 1.5381 1.18559 0
M  V30 4808 C 452.525 2.98472 1.77572 0
M  V30 4809 C 451.479 4.0618 1.34914 0
M  V30 4810 C 450.805 4.66477 2.6135 0
M  V30 4811 C 452.105 5.1996 0.493821 0
M  V30 4812 H 453.799 2.994 0.00505653 0
M  V30 4813 H 451.345 1.44 0.000992001 0
M  V30 4814 H 453.298 3.46677 2.39568 0
M  V30 4815 H 452.022 2.2241 2.39168 0
M  V30 4816 H 450.681 3.58797 0.752338 0
M  V30 4817 H 450.329 3.87074 3.2122 0
M  V30 4818 H 450.029 5.39207 2.33516 0
M  V30 4819 H 451.553 5.17435 3.24181 0
M  V30 4820 H 452.967 5.64172 1.01898 0
M  V30 4821 H 451.364 5.99299 0.310047 0
M  V30 4822 H 452.434 4.82462 -0.485593 0
M  V30 4823 N 453.777 0.010035 1.57597 0
M  V30 4824 C 455.023 -0.673697 1.91283 0
M  V30 4825 C 455.356 -1.72863 0.884979 0
M  V30 4826 O 454.631 -1.94268 -0.0949487 0
M  V30 4827 C 454.914 -1.30766 3.35518 0
M  V30 4828 C 454.767 -0.263578 4.49027 0
M  V30 4829 C 456.086 -2.23105 3.79358 0
M  V30 4830 H 453.205 -0.243439 0.695634 0
M  V30 4831 H 455.847 0.0633864 1.89894 0
M  V30 4832 H 453.997 -1.93588 3.36832 0
M  V30 4833 H 455.669 0.365738 4.59848 0
M  V30 4834 H 453.912 0.413077 4.31829 0
M  V30 4835 H 454.583 -0.746398 5.4693 0
M  V30 4836 H 457.059 -1.70289 3.79659 0
M  V30 4837 H 455.935 -2.64424 4.81011 0
M  V30 4838 H 456.196 -3.11433 3.13787 0
M  V30 4839 N 455.255 -1.55392 -0.262866 0
M  V30 4840 C 456.188 -1.8391 -1.35101 0
M  V30 4841 C 457.166 -0.692901 -1.47097 0
M  V30 4842 O 458.35 -0.936979 -1.63563 0
M  V30 4843 C 455.477 -2.00969 -2.72634 0
M  V30 4844 C 454.523 -3.23559 -2.7787 0
M  V30 4845 S 455.356 -4.80647 -2.3609 0
M  V30 4846 C 456.512 -5.00692 -3.75578 0
M  V30 4847 H 456.745 -2.75918 -1.1071 0
M  V30 4848 H 454.278 -1.47294 -0.463029 0
M  V30 4849 H 456.236 -2.11482 -3.51832 0
M  V30 4850 H 454.897 -1.09832 -2.94272 0
M  V30 4851 H 454.09 -3.32413 -3.78837 0
M  V30 4852 H 453.692 -3.11689 -2.06702 0
M  V30 4853 H 455.984 -4.87055 -4.70939 0
M  V30 4854 H 456.927 -6.02717 -3.71669 0
M  V30 4855 H 457.335 -4.28619 -3.6735 0
M  V30 4856 N 456.733 0.527833 -1.48498 0
M  V30 4857 C 458.01 1.28905 -1.47115 0
M  V30 4858 C 458.39 2.10297 -0.184007 0
M  V30 4859 O 457.738 2.12728 0.834218 0
M  V30 4860 C 457.948 2.16866 -2.73441 0
M  V30 4861 C 459.296 2.76936 -3.21857 0
M  V30 4862 O 460.32 2.27152 -2.74373 0
M  V30 4863 O 459.179 3.67496 -4.04486 0
M  V30 4864 H 456.273 0.581918 -0.587623 0
M  V30 4865 H 458.819 0.544311 -1.60734 0
M  V30 4866 H 457.591 1.56521 -3.58632 0
M  V30 4867 H 457.214 2.98583 -2.62553 0
M  V30 4868 N 458.211 1.37122 0.776871 0
M  V30 4869 C 459.457 1.3325 1.53675 0
M  V30 4870 C 459.812 -0.0839891 1.92217 0
M  V30 4871 O 459.105 -1.04145 1.60824 0
M  V30 4872 C 459.299 2.20068 2.81611 0
M  V30 4873 C 459.128 3.70016 2.55574 0
M  V30 4874 C 457.898 4.39144 2.4996 0
M  V30 4875 C 460.096 4.62996 2.23917 0
M  V30 4876 N 458.078 5.74663 2.15953 0
M  V30 4877 C 459.449 5.86854 2.00005 0
M  V30 4878 C 461.504 4.51433 2.1003 0
M  V30 4879 C 460.207 7.00446 1.63609 0
M  V30 4880 C 462.233 5.64905 1.75033 0
M  V30 4881 C 461.595 6.8781 1.51977 0
M  V30 4882 H 457.694 0.542878 0.562856 0
M  V30 4883 H 460.278 1.72295 0.906784 0
M  V30 4884 H 458.449 1.83248 3.42454 0
M  V30 4885 H 460.181 2.07492 3.47461 0
M  V30 4886 H 456.936 3.92088 2.65639 0
M  V30 4887 H 457.36 6.46268 2.0166 0
M  V30 4888 H 462.002 3.56987 2.26539 0
M  V30 4889 H 459.72 7.94831 1.45837 0
M  V30 4890 H 463.306 5.57926 1.64952 0
M  V30 4891 H 462.186 7.74126 1.25296 0
M  V30 4892 N 459.689 -1.00246 1.21608 0
M  V30 4893 C 460.919 -1.77373 1.05935 0
M  V30 4894 C 461.327 -1.85059 -0.393686 0
M  V30 4895 O 460.67 -1.31289 -1.28487 0
M  V30 4896 C 460.732 -3.22705 1.58435 0
M  V30 4897 C 460.396 -3.38591 3.06929 0
M  V30 4898 C 461.393 -3.2667 4.04454 0
M  V30 4899 C 459.078 -3.6395 3.46187 0
M  V30 4900 C 461.072 -3.39877 5.39224 0
M  V30 4901 C 458.759 -3.768 4.81108 0
M  V30 4902 C 459.757 -3.6477 5.77436 0
M  V30 4903 O 459.445 -3.77206 7.09909 0
M  V30 4904 H 459.177 -0.56419 0.372378 0
M  V30 4905 H 461.731 -1.26971 1.61454 0
M  V30 4906 H 459.961 -3.74255 0.973147 0
M  V30 4907 H 461.65 -3.81515 1.38568 0
M  V30 4908 H 462.416 -3.06999 3.75468 0
M  V30 4909 H 458.295 -3.72395 2.71741 0
M  V30 4910 H 461.839 -3.30404 6.14393 0
M  V30 4911 H 457.736 -3.95975 5.09779 0
M  V30 4912 H 458.504 -3.94138 7.17355 0
M  V30 4913 N 461.167 -1.02423 -1.1978 0
M  V30 4914 C 462.392 -0.7373 -1.93852 0
M  V30 4915 C 462.817 0.696923 -1.74713 0
M  V30 4916 O 462.175 1.48056 -1.04638 0
M  V30 4917 C 462.223 -1.08783 -3.438 0
M  V30 4918 O 461.327 -0.20383 -4.11896 0
M  V30 4919 H 460.668 -0.27284 -0.605355 0
M  V30 4920 H 463.198 -1.36966 -1.51992 0
M  V30 4921 H 463.208 -1.04276 -3.9445 0
M  V30 4922 H 461.883 -2.13274 -3.57053 0
M  V30 4923 H 460.46 -0.307091 -3.71633 0
M  V30 4924 N 462.645 1.35699 -0.801477 0
M  V30 4925 C 463.608 2.28199 -0.213994 0
M  V30 4926 C 464.608 1.49359 0.595691 0
M  V30 4927 O 465.798 1.69186 0.414921 0
M  V30 4928 C 462.93 3.33587 0.702297 0
M  V30 4929 H 464.123 2.81666 -1.02976 0
M  V30 4930 H 461.676 1.45467 -0.571759 0
M  V30 4931 H 462.411 2.85297 1.54195 0
M  V30 4932 H 462.196 3.91906 0.123484 0
M  V30 4933 H 463.686 4.02638 1.10783 0
M  V30 4934 N 464.123 0.554532 1.47522 0
M  V30 4935 C 465.071 -0.207765 2.3167 0
M  V30 4936 C 466.065 -0.911914 1.4276 0
M  V30 4937 O 467.271 -0.833504 1.59539 0
M  V30 4938 H 463.646 -0.0858726 0.747081 0
M  V30 4939 H 465.617 0.521178 2.93813 0
M  V30 4940 C 464.366 -1.2263 3.25357 0
M  V30 4941 H 463.689 -0.693887 3.93732 0
M  V30 4942 H 465.129 -1.73062 3.87073 0
M  V30 4943 C 463.588 -2.27278 2.4869 0
M  V30 4944 O 464.118 -3.34156 2.22941 0
M  V30 4945 N 462.324 -2.01134 2.09746 0
M  V30 4946 H 461.871 -1.14232 2.30887 0
M  V30 4947 H 461.829 -2.71369 1.58765 0
M  V30 4948 N 465.601 -1.54893 0.290851 0
M  V30 4949 C 467.017 -1.59476 -0.0628432 0
M  V30 4950 C 467.217 -1.30795 -1.5328 0
M  V30 4951 O 466.273 -1.07644 -2.28406 0
M  V30 4952 C 467.586 -2.98928 0.325962 0
M  V30 4953 C 469.134 -3.11799 0.273882 0
M  V30 4954 C 469.609 -4.53544 0.637359 0
M  V30 4955 N 471.1 -4.59433 0.589507 0
M  V30 4956 C 471.835 -5.67164 0.84335 0
M  V30 4957 N 471.331 -6.82975 1.16263 0
M  V30 4958 N 473.124 -5.56786 0.771091 0
M  V30 4959 H 465.275 -1.71798 1.24896 0
M  V30 4960 H 467.538 -0.801879 0.505663 0
M  V30 4961 H 467.244 -3.24805 1.34887 0
M  V30 4962 H 467.118 -3.75793 -0.325441 0
M  V30 4963 H 469.505 -2.85677 -0.739765 0
M  V30 4964 H 469.586 -2.37112 0.959766 0
M  V30 4965 H 469.23 -4.80394 1.64877 0
M  V30 4966 H 469.16 -5.26553 -0.0704866 0
M  V30 4967 H 471.651 -3.76245 0.353252 0
M  V30 4968 H 471.964 -7.61048 1.34257 0
M  V30 4969 H 470.309 -6.84552 1.20057 0
M  V30 4970 H 473.5 -4.65187 0.521383 0
M  V30 4971 H 473.673 -6.40664 0.972295 0
M  V30 4972 N 467.08 -0.0183926 -1.57589 0
M  V30 4973 C 468.305 0.676634 -1.96052 0
M  V30 4974 C 468.73 1.6548 -0.894307 0
M  V30 4975 O 468.088 1.80712 0.145849 0
M  V30 4976 C 468.136 1.36872 -3.33614 0
M  V30 4977 O 467.24 2.48372 -3.29219 0
M  V30 4978 H 466.581 0.1786 -0.63953 0
M  V30 4979 H 469.111 -0.077056 -2.04455 0
M  V30 4980 H 469.121 1.72797 -3.69601 0
M  V30 4981 H 467.796 0.651636 -4.10763 0
M  V30 4982 H 466.373 2.14639 -3.04934 0
M  V30 4983 N 468.558 1.5553 0.254621 0
M  V30 4984 C 469.974 1.4778 0.602753 0
M  V30 4985 C 470.174 0.707047 1.88688 0
M  V30 4986 O 469.23 0.233288 2.5142 0
M  V30 4987 C 470.543 2.92133 0.712648 0
M  V30 4988 C 472.091 3.02458 0.805488 0
M  V30 4989 C 472.566 4.48102 0.947009 0
M  V30 4990 N 474.057 4.52008 1.01207 0
M  V30 4991 C 474.792 5.61939 1.1407 0
M  V30 4992 N 474.288 6.81697 1.23536 0
M  V30 4993 N 476.081 5.49719 1.17325 0
M  V30 4994 H 468.232 2.04085 -0.588463 0
M  V30 4995 H 470.495 0.926229 -0.202001 0
M  V30 4996 H 470.201 3.51332 -0.160766 0
M  V30 4997 H 470.075 3.42187 1.58707 0
M  V30 4998 H 472.462 2.43344 1.66936 0
M  V30 4999 H 472.543 2.55627 -0.0939266 0
M  V30 5000 H 472.187 5.07824 0.087725 0
M  V30 5001 H 472.117 4.92607 1.86135 0
M  V30 5002 H 474.608 3.65749 0.950577 0
M  V30 5003 H 474.921 7.61228 1.33236 0
M  V30 5004 H 473.266 6.84473 1.20508 0
M  V30 5005 H 476.457 4.55095 1.09573 0
M  V30 5006 H 476.63 6.35432 1.27005 0
M  V30 5007 N 470.036 -0.519951 1.48776 0
M  V30 5008 C 470.968 -1.63973 1.60142 0
M  V30 5009 C 471.981 -1.55404 0.485117 0
M  V30 5010 O 473.17 -1.61682 0.756391 0
M  V30 5011 C 470.27 -3.02676 1.52449 0
M  V30 5012 C 469.443 -3.36624 2.79291 0
M  V30 5013 C 468.502 -4.54652 2.64912 0
M  V30 5014 O 467.528 -4.57374 3.38818 0
M  V30 5015 N 468.73 -5.53432 1.75195 0
M  V30 5016 H 471.495 -1.54656 2.56713 0
M  V30 5017 H 469.056 -0.707439 1.45626 0
M  V30 5018 H 471.048 -3.79525 1.4051 0
M  V30 5019 H 469.618 -3.06018 0.638125 0
M  V30 5020 H 468.838 -2.48855 3.0572 0
M  V30 5021 H 470.126 -3.56094 3.6342 0
M  V30 5022 H 469.524 -5.54018 1.14371 0
M  V30 5023 H 468.081 -6.29459 1.69189 0
M  V30 5024 N 471.514 -1.37532 -0.769588 0
M  V30 5025 C 472.444 -1.36172 -1.89682 0
M  V30 5026 C 473.425 -0.23001 -1.68538 0
M  V30 5027 O 474.61 -0.43069 -1.89364 0
M  V30 5028 C 471.74 -1.1701 -3.26995 0
M  V30 5029 C 470.694 -2.27216 -3.62708 0
M  V30 5030 C 470.02 -1.93174 -4.98586 0
M  V30 5031 C 471.32 -3.6941 -3.69234 0
M  V30 5032 H 473.014 -2.30499 -1.91078 0
M  V30 5033 H 470.56 -1.10953 -0.917902 0
M  V30 5034 H 472.513 -1.14688 -4.05493 0
M  V30 5035 H 471.237 -0.191395 -3.26039 0
M  V30 5036 H 469.896 -2.28697 -2.86519 0
M  V30 5037 H 469.544 -0.938281 -4.94171 0
M  V30 5038 H 469.244 -2.66973 -5.23449 0
M  V30 5039 H 470.768 -1.92443 -5.79481 0
M  V30 5040 H 472.182 -3.70047 -4.37879 0
M  V30 5041 H 470.579 -4.4228 -4.05597 0
M  V30 5042 H 471.649 -4.0288 -2.69844 0
M  V30 5043 N 472.992 0.995999 -1.22138 0
M  V30 5044 C 474.239 1.7351 -1.04406 0
M  V30 5045 C 474.567 1.89884 0.421244 0
M  V30 5046 O 473.822 1.43683 1.32867 0
M  V30 5047 C 474.121 3.14553 -1.6968 0
M  V30 5048 C 473.787 3.18102 -3.19565 0
M  V30 5049 C 472.449 3.18778 -3.60464 0
M  V30 5050 C 474.801 3.14636 -4.15516 0
M  V30 5051 C 472.129 3.13684 -4.95801 0
M  V30 5052 C 474.481 3.11084 -5.50826 0
M  V30 5053 C 473.145 3.10074 -5.91109 0
M  V30 5054 H 472.415 0.634916 -0.38205 0
M  V30 5055 H 475.062 1.1667 -1.51857 0
M  V30 5056 H 473.367 3.74682 -1.14546 0
M  V30 5057 H 475.064 3.70477 -1.53454 0
M  V30 5058 H 471.654 3.18324 -2.86998 0
M  V30 5059 H 475.838 3.13266 -3.84939 0
M  V30 5060 H 471.094 3.11245 -5.26247 0
M  V30 5061 H 475.268 3.07357 -6.24904 0
M  V30 5062 H 472.895 3.05882 -6.95946 0
M  V30 5063 N 474.47 1.03057 1.19235 0
M  V30 5064 C 475.38 0.622922 2.26179 0
M  V30 5065 C 476.396 -0.346113 1.70523 0
M  V30 5066 O 477.572 -0.203572 2.00369 0
M  V30 5067 C 474.637 -0.0182063 3.46695 0
M  V30 5068 C 473.698 0.998546 4.17526 0
M  V30 5069 C 472.931 0.387917 5.32288 0
M  V30 5070 O 473.154 -0.808668 5.64639 0
M  V30 5071 O 472.088 1.1116 5.91546 0
M  V30 5072 H 475.914 1.51363 2.63292 0
M  V30 5073 H 473.499 0.800856 1.26122 0
M  V30 5074 H 475.381 -0.375606 4.19723 0
M  V30 5075 H 474.056 -0.882895 3.11427 0
M  V30 5076 H 472.963 1.40756 3.4661 0
M  V30 5077 H 474.296 1.83366 4.56769 0
M  V30 5078 N 475.948 -1.35272 0.808662 0
M  V30 5079 C 476.895 -2.29764 0.218482 0
M  V30 5080 C 477.865 -1.52911 -0.648652 0
M  V30 5081 O 479.05 -1.81341 -0.593297 0
M  V30 5082 C 476.19 -3.39388 -0.625282 0
M  V30 5083 C 475.303 -4.31202 0.262516 0
M  V30 5084 C 474.438 -5.27919 -0.589451 0
M  V30 5085 C 473.477 -6.11371 0.298617 0
M  V30 5086 N 472.614 -7.0022 -0.513443 0
M  V30 5087 H 477.454 -2.79645 1.02968 0
M  V30 5088 H 474.991 -1.37629 0.519303 0
M  V30 5089 H 476.949 -4.01615 -1.12966 0
M  V30 5090 H 475.579 -2.90777 -1.40173 0
M  V30 5091 H 474.631 -3.69962 0.885013 0
M  V30 5092 H 475.943 -4.89748 0.945971 0
M  V30 5093 H 475.097 -5.95529 -1.15888 0
M  V30 5094 H 473.836 -4.69875 -1.30647 0
M  V30 5095 H 472.841 -5.42707 0.880301 0
M  V30 5096 H 474.066 -6.71494 1.01352 0
M  V30 5097 H 472.012 -6.44662 -1.21439 0
M  V30 5098 H 471.929 -7.55917 0.111922 0
M  V30 5099 H 473.197 -7.72175 -1.06608 0
M  V30 5100 N 477.426 -0.562348 -1.47226 0
M  V30 5101 C 478.359 0.230405 -2.27034 0
M  V30 5102 C 479.337 0.915609 -1.3437 0
M  V30 5103 O 480.521 0.933573 -1.63758 0
M  V30 5104 C 477.648 1.32874 -3.11548 0
M  V30 5105 C 476.694 0.751552 -4.19826 0
M  V30 5106 S 477.527 -0.405848 -5.3396 0
M  V30 5107 C 478.683 0.694186 -6.22038 0
M  V30 5108 H 478.916 -0.446811 -2.93923 0
M  V30 5109 H 476.449 -0.348781 -1.50409 0
M  V30 5110 H 478.407 1.95773 -3.60809 0
M  V30 5111 H 477.068 1.97782 -2.44011 0
M  V30 5112 H 476.261 1.57651 -4.78709 0
M  V30 5113 H 475.863 0.198645 -3.73472 0
M  V30 5114 H 478.155 1.58501 -6.58698 0
M  V30 5115 H 479.098 0.142592 -7.07956 0
M  V30 5116 H 479.506 0.989169 -5.55766 0
M  V30 5117 N 478.904 1.54736 -0.299062 0
M  V30 5118 C 480.153 1.99279 0.311549 0
M  V30 5119 C 480.466 1.19107 1.55154 0
M  V30 5120 O 481.672 1.53908 2.23662 0
M  V30 5121 C 480.128 3.54768 0.605632 0
M  V30 5122 C 479.736 4.43746 -0.615914 0
M  V30 5123 C 481.48 4.07841 1.17754 0
M  V30 5124 C 479.387 5.90663 -0.29509 0
M  V30 5125 H 478.317 0.744359 0.120187 0
M  V30 5126 H 480.968 1.78919 -0.407464 0
M  V30 5127 H 479.35 3.71021 1.38419 0
M  V30 5128 H 480.524 4.39267 -1.39218 0
M  V30 5129 H 478.839 4.01434 -1.10633 0
M  V30 5130 H 481.436 5.15174 1.43179 0
M  V30 5131 H 481.779 3.58324 2.11918 0
M  V30 5132 H 482.312 3.95123 0.460739 0
M  V30 5133 H 479.051 6.44325 -1.20524 0
M  V30 5134 H 478.571 5.98155 0.44394 0
M  V30 5135 H 480.25 6.46916 0.104048 0
M  V30 5136 N 480.382 0.0267497 1.57577 0
M  V30 5137 C 481.607 -0.666227 1.96408 0
M  V30 5138 C 482.032 -1.65004 0.903071 0
M  V30 5139 O 481.39 -1.80787 -0.136263 0
M  V30 5140 C 481.438 -1.35101 3.34335 0
M  V30 5141 O 480.542 -2.46623 3.30531 0
M  V30 5142 H 479.883 -0.175206 0.640468 0
M  V30 5143 H 482.413 0.0878977 2.04411 0
M  V30 5144 H 482.423 -1.70834 3.70513 0
M  V30 5145 H 481.098 -0.629844 4.11103 0
M  V30 5146 H 479.675 -2.13019 3.06068 0
M  V30 5147 N 481.861 -1.55662 -0.24637 0
M  V30 5148 C 483.109 -1.77168 -0.972411 0
M  V30 5149 C 483.43 -0.590827 -1.85834 0
M  V30 5150 O 482.7 0.393365 -1.9191 0
M  V30 5151 H 481.28 -0.653405 -0.362038 0
M  V30 5152 H 483.942 -1.93101 -0.264189 0
M  V30 5153 H 483.038 -2.68335 -1.59382 0
M  V30 5154 N 483.339 0.512053 -1.4905 0
M  V30 5155 C 484.302 1.59704 -1.64399 0
M  V30 5156 C 485.302 1.52285 -0.516317 0
M  V30 5157 O 486.492 1.55635 -0.782527 0
M  V30 5158 C 483.624 2.9935 -1.63102 0
M  V30 5159 H 484.817 1.47428 -2.61161 0
M  V30 5160 H 482.37 0.735469 -1.37915 0
M  V30 5161 H 483.105 3.17116 -0.678836 0
M  V30 5162 H 482.89 3.06144 -2.44986 0
M  V30 5163 H 484.38 3.782 -1.77072 0
M  V30 5164 N 484.817 1.37938 0.762283 0
M  V30 5165 C 486.047 1.36685 1.54922 0
M  V30 5166 C 486.455 -0.0474099 1.89141 0
M  V30 5167 O 485.798 -1.02213 1.52638 0
M  V30 5168 C 485.86 2.14963 2.88152 0
M  V30 5169 C 485.524 3.6385 2.76518 0
M  V30 5170 C 486.521 4.57531 2.46904 0
M  V30 5171 C 484.206 4.07095 2.94243 0
M  V30 5172 C 486.2 5.92436 2.35156 0
M  V30 5173 C 483.887 5.42083 2.82116 0
M  V30 5174 C 484.885 6.34567 2.52614 0
M  V30 5175 O 484.573 7.67073 2.40529 0
M  V30 5176 H 484.305 0.469586 0.486276 0
M  V30 5177 H 486.859 1.82012 0.951876 0
M  V30 5178 H 485.089 1.6434 3.50042 0
M  V30 5179 H 486.778 2.06224 3.49609 0
M  V30 5180 H 487.544 4.25428 2.32886 0
M  V30 5181 H 483.423 3.35462 3.16206 0
M  V30 5182 H 486.967 6.64591 2.12049 0
M  V30 5183 H 482.864 5.73785 2.95704 0
M  V30 5184 H 483.632 7.77499 2.55807 0
M  V30 5185 N 486.295 -0.989507 1.22664 0
M  V30 5186 C 487.225 -2.09847 1.02404 0
M  V30 5187 C 488.206 -1.70007 -0.0561303 0
M  V30 5188 O 489.391 -1.93906 0.106748 0
M  V30 5189 C 486.521 -3.41996 0.604663 0
M  V30 5190 C 485.475 -3.95699 1.63115 0
M  V30 5191 C 484.801 -5.23936 1.0675 0
M  V30 5192 C 486.101 -4.25999 3.02196 0
M  V30 5193 H 487.795 -2.27054 1.95158 0
M  V30 5194 H 485.341 -1.09111 0.939727 0
M  V30 5195 H 487.294 -4.1899 0.45002 0
M  V30 5196 H 486.018 -3.24626 -0.35855 0
M  V30 5197 H 484.677 -3.2084 1.77362 0
M  V30 5198 H 484.325 -5.02909 0.0955422 0
M  V30 5199 H 484.025 -5.60833 1.75328 0
M  V30 5200 H 485.549 -6.0356 0.924516 0
M  V30 5201 H 486.963 -4.93777 2.91303 0
M  V30 5202 H 485.36 -4.74076 3.67929 0
M  V30 5203 H 486.43 -3.33636 3.51873 0
M  V30 5204 N 487.773 -1.03688 -1.18687 0
M  V30 5205 C 489.021 -0.736572 -1.88199 0
M  V30 5206 C 489.342 0.737665 -1.80509 0
M  V30 5207 O 488.612 1.53204 -1.22088 0
M  V30 5208 H 487.192 -0.269466 -0.696704 0
M  V30 5209 H 489.854 -1.31282 -1.44052 0
M  V30 5210 H 488.95 -1.03802 -2.94332 0
M  V30 5211 N 489.251 1.34841 -0.815825 0
M  V30 5212 C 490.161 2.33425 -0.234462 0
M  V30 5213 C 491.177 1.62295 0.627413 0
M  V30 5214 O 492.353 1.94109 0.536987 0
M  V30 5215 C 489.418 3.41471 0.599849 0
M  V30 5216 C 488.479 4.28362 -0.283596 0
M  V30 5217 C 487.712 5.31248 0.51099 0
M  V30 5218 O 487.935 5.43056 1.7449 0
M  V30 5219 O 486.869 6.01812 -0.10297 0
M  V30 5220 H 490.695 2.84962 -1.05024 0
M  V30 5221 H 488.28 1.37774 -0.577809 0
M  V30 5222 H 490.162 4.07464 1.07475 0
M  V30 5223 H 488.837 2.9219 1.39308 0
M  V30 5224 H 487.744 3.65318 -0.805836 0
M  V30 5225 H 489.077 4.81066 -1.041 0
M  V30 5226 N 490.729 0.570148 1.46925 0
M  V30 5227 C 491.978 0.0487352 2.01641 0
M  V30 5228 C 492.291 -1.31433 1.44861 0
M  V30 5229 O 493.497 -1.92638 1.91318 0
M  V30 5230 C 491.953 0.0365817 3.59881 0
M  V30 5231 C 491.561 1.39719 4.25655 0
M  V30 5232 C 493.305 -0.431545 4.22301 0
M  V30 5233 C 491.212 1.34345 5.75939 0
M  V30 5234 H 490.142 0.0144492 0.753862 0
M  V30 5235 H 492.793 0.719928 1.68788 0
M  V30 5236 H 491.175 -0.700522 3.89755 0
M  V30 5237 H 492.349 2.15303 4.07408 0
M  V30 5238 H 490.664 1.80431 3.75278 0
M  V30 5239 H 493.261 -0.490354 5.32447 0
M  V30 5240 H 493.604 -1.44638 3.90366 0
M  V30 5241 H 494.137 0.251102 3.97007 0
M  V30 5242 H 490.876 2.33469 6.12513 0
M  V30 5243 H 490.396 0.629615 5.96486 0
M  V30 5244 H 492.075 1.051 6.38407 0
M  V30 5245 N 492.207 -1.54576 0.307264 0
M  V30 5246 C 493.453 -2.0056 -0.300612 0
M  V30 5247 C 493.786 -1.1953 -1.53057 0
M  V30 5248 O 493.061 -0.27337 -1.92569 0
M  V30 5249 C 493.344 -3.54167 -0.650987 0
M  V30 5250 C 493.197 -4.45933 0.588539 0
M  V30 5251 C 494.516 -4.14645 -1.47506 0
M  V30 5252 H 491.635 -0.729075 -0.107788 0
M  V30 5253 H 494.277 -1.85286 0.420606 0
M  V30 5254 H 492.427 -3.67313 -1.26544 0
M  V30 5255 H 494.099 -4.44683 1.22697 0
M  V30 5256 H 492.342 -4.16274 1.22058 0
M  V30 5257 H 493.013 -5.51189 0.299153 0
M  V30 5258 H 495.489 -4.04973 -0.955821 0
M  V30 5259 H 494.365 -5.22269 -1.68899 0
M  V30 5260 H 494.626 -3.66921 -2.4662 0
M  V30 5261 N 493.685 -0.035106 -1.57561 0
M  V30 5262 C 495.101 0.321334 -1.56332 0
M  V30 5263 C 495.301 1.72509 -1.04129 0
M  V30 5264 O 494.357 2.4287 -0.690694 0
M  V30 5265 C 495.67 0.164469 -3.0025 0
M  V30 5266 C 497.218 0.236786 -3.12103 0
M  V30 5267 C 497.693 0.10864 -4.57871 0
M  V30 5268 N 499.184 0.165433 -4.62904 0
M  V30 5269 C 499.919 0.0901506 -5.73329 0
M  V30 5270 N 499.415 -0.0365606 -6.9279 0
M  V30 5271 N 501.208 0.144572 -5.61914 0
M  V30 5272 H 493.359 -0.952976 -1.89821 0
M  V30 5273 H 495.622 -0.368537 -0.873432 0
M  V30 5274 H 495.328 -0.802746 -3.42416 0
M  V30 5275 H 495.202 0.932194 -3.655 0
M  V30 5276 H 497.589 1.19446 -2.69845 0
M  V30 5277 H 497.67 -0.561419 -2.49563 0
M  V30 5278 H 497.314 -0.845644 -5.00811 0
M  V30 5279 H 497.244 0.925786 -5.18398 0
M  V30 5280 H 499.735 0.263269 -3.76982 0
M  V30 5281 H 500.048 -0.0871487 -7.72751 0
M  V30 5282 H 498.393 -0.0714256 -6.94963 0
M  V30 5283 H 501.584 0.242006 -4.67474 0
M  V30 5284 H 501.757 0.0824413 -6.47948 0
M  V30 5285 N 495.163 1.55791 0.238111 0
M  V30 5286 C 496.579 1.48411 0.587045 0
M  V30 5287 C 496.779 0.72702 1.87927 0
M  V30 5288 O 495.835 0.259942 2.51158 0
M  V30 5289 C 497.148 2.92873 0.681623 0
M  V30 5290 C 498.696 3.03295 0.773363 0
M  V30 5291 C 499.171 4.49082 0.899428 0
M  V30 5292 N 500.662 4.53056 0.964075 0
M  V30 5293 C 501.397 5.63117 1.08104 0
M  V30 5294 N 500.893 6.82969 1.16299 0
M  V30 5295 N 502.686 5.50933 1.11488 0
M  V30 5296 H 494.837 2.0345 -0.610076 0
M  V30 5297 H 497.1 0.924034 -0.211813 0
M  V30 5298 H 496.806 3.51142 -0.19802 0
M  V30 5299 H 496.68 3.43851 1.55069 0
M  V30 5300 H 499.067 2.45101 1.64346 0
M  V30 5301 H 499.148 2.55513 -0.121034 0
M  V30 5302 H 498.792 5.07889 0.0338586 0
M  V30 5303 H 498.722 4.94553 1.809 0
M  V30 5304 H 501.213 3.66737 0.91173 0
M  V30 5305 H 501.526 7.62598 1.25155 0
M  V30 5306 H 499.871 6.85712 1.13241 0
M  V30 5307 H 503.062 4.56231 1.0474 0
M  V30 5308 H 503.235 6.36743 1.20259 0
M  V30 5309 N 496.642 -0.504142 1.49319 0
M  V30 5310 C 497.889 -1.25846 1.58647 0
M  V30 5311 C 498.217 -1.92592 0.27177 0
M  V30 5312 O 497.472 -1.81167 -0.74007 0
M  V30 5313 C 497.771 -2.35021 2.69258 0
M  V30 5314 C 497.437 -1.85755 4.1086 0
M  V30 5315 C 496.099 -1.72038 4.49395 0
M  V30 5316 C 498.451 -1.48844 4.99495 0
M  V30 5317 C 495.779 -1.19783 5.74342 0
M  V30 5318 C 498.131 -0.980422 6.24956 0
M  V30 5319 C 496.795 -0.829622 6.62324 0
M  V30 5320 H 496.065 -0.460505 0.580531 0
M  V30 5321 H 498.712 -0.559716 1.83138 0
M  V30 5322 H 497.017 -3.10672 2.38726 0
M  V30 5323 H 498.714 -2.93083 2.73685 0
M  V30 5324 H 495.304 -1.9739 3.80441 0
M  V30 5325 H 499.488 -1.5829 4.70381 0
M  V30 5326 H 494.744 -1.06817 6.01997 0
M  V30 5327 H 498.918 -0.685608 6.93017 0
M  V30 5328 H 496.545 -0.42253 7.59025 0
M  V30 5329 N 498.12 -1.38341 -0.754957 0
M  V30 5330 C 499.053 -1.29837 -1.87663 0
M  V30 5331 C 500.031 -0.175659 -1.61648 0
M  V30 5332 O 501.215 -0.352745 -1.8517 0
M  V30 5333 C 498.342 -1.01141 -3.23246 0
M  V30 5334 C 497.388 -2.15331 -3.6815 0
M  V30 5335 S 498.221 -3.77459 -3.79849 0
M  V30 5336 C 499.377 -3.50948 -5.18253 0
M  V30 5337 H 499.61 -2.24771 -1.9459 0
M  V30 5338 H 497.143 -1.24161 -0.917796 0
M  V30 5339 H 499.101 -0.852687 -4.01546 0
M  V30 5340 H 497.762 -0.0792784 -3.14 0
M  V30 5341 H 496.955 -1.90795 -4.6649 0
M  V30 5342 H 496.557 -2.27304 -2.97 0
M  V30 5343 H 498.849 -3.06977 -6.03963 0
M  V30 5344 H 499.792 -4.48677 -5.47809 0
M  V30 5345 H 500.2 -2.85492 -4.86985 0
M  V30 5346 N 499.598 0.982988 -1.23187 0
M  V30 5347 C 500.844 1.72648 -1.06398 0
M  V30 5348 C 501.177 1.90066 0.398561 0
M  V30 5349 O 500.452 1.45105 1.29518 0
M  V30 5350 C 500.735 3.12627 -1.78707 0
M  V30 5351 C 500.588 3.02795 -3.32618 0
M  V30 5352 C 501.907 4.11997 -1.54747 0
M  V30 5353 H 499.026 0.626649 -0.387918 0
M  V30 5354 H 501.668 1.14455 -1.51658 0
M  V30 5355 H 499.818 3.62308 -1.40234 0
M  V30 5356 H 501.49 2.60659 -3.80598 0
M  V30 5357 H 499.733 2.39362 -3.61785 0
M  V30 5358 H 500.404 4.01893 -3.78399 0
M  V30 5359 H 502.88 3.71114 -1.88186 0
M  V30 5360 H 501.756 5.08037 -2.07821 0
M  V30 5361 H 502.017 4.39462 -0.482249 0
M  V30 5362 N 501.076 1.04316 1.18135 0
M  V30 5363 C 502.024 0.630175 2.23901 0
M  V30 5364 C 503.018 -0.344254 1.65865 0
M  V30 5365 O 504.224 -0.211273 1.78756 0
M  V30 5366 H 500.599 0.185578 0.728742 0
M  V30 5367 H 502.57 1.53253 2.56039 0
M  V30 5368 C 501.319 0.011666 3.47698 0
M  V30 5369 H 500.642 0.752526 3.92654 0
M  V30 5370 H 502.082 -0.240046 4.2332 0
M  V30 5371 C 500.541 -1.23913 3.13285 0
M  V30 5372 O 501.071 -2.32959 3.27251 0
M  V30 5373 N 499.277 -1.13338 2.67587 0
M  V30 5374 H 498.824 -0.246006 2.56423 0
M  V30 5375 H 498.782 -1.97116 2.44934 0
M  V30 5376 N 502.554 -1.34406 0.822964 0
M  V30 5377 C 503.8 -1.98578 0.411666 0
M  V30 5378 C 504.133 -1.65093 -1.02264 0
M  V30 5379 O 503.408 -0.92258 -1.71227 0
M  V30 5380 C 503.691 -3.54823 0.614235 0
M  V30 5381 C 503.544 -3.9805 2.09466 0
M  V30 5382 C 504.863 -4.40071 0.050221 0
M  V30 5383 H 501.982 -0.721355 0.151047 0
M  V30 5384 H 504.624 -1.59301 1.03554 0
M  V30 5385 H 502.774 -3.88411 0.0831774 0
M  V30 5386 H 504.446 -3.74795 2.68936 0
M  V30 5387 H 502.689 -3.4836 2.5851 0
M  V30 5388 H 503.36 -5.06819 2.18721 0
M  V30 5389 H 505.836 -4.13037 0.503953 0
M  V30 5390 H 504.712 -5.48452 0.221759 0
M  V30 5391 H 504.973 -4.29576 -1.04482 0
M  V30 5392 N 504.032 -0.577932 -1.46621 0
M  V30 5393 C 504.962 0.145917 -2.33044 0
M  V30 5394 C 505.943 0.888412 -1.45056 0
M  V30 5395 O 507.128 0.864812 -1.73881 0
M  V30 5396 C 504.258 1.16322 -3.27241 0
M  V30 5397 C 503.212 0.535868 -4.24632 0
M  V30 5398 C 502.538 1.65929 -5.08303 0
M  V30 5399 C 503.838 -0.523861 -5.19666 0
M  V30 5400 H 505.532 -0.575636 -2.93814 0
M  V30 5401 H 503.078 -0.278272 -1.41286 0
M  V30 5402 H 505.031 1.67793 -3.86553 0
M  V30 5403 H 503.755 1.91498 -2.64567 0
M  V30 5404 H 502.414 0.0422759 -3.66576 0
M  V30 5405 H 502.062 2.40061 -4.42018 0
M  V30 5406 H 501.762 1.2452 -5.74255 0
M  V30 5407 H 503.286 2.17686 -5.70478 0
M  V30 5408 H 504.7 -0.0944059 -5.73222 0
M  V30 5409 H 503.097 -0.858 -5.93935 0
M  V30 5410 H 504.167 -1.41197 -4.63887 0
M  V30 5411 N 505.51 1.54411 -0.315457 0
M  V30 5412 C 506.442 2.21527 0.588067 0
M  V30 5413 C 507.455 1.21263 1.08624 0
M  V30 5414 O 508.644 1.47777 1.00121 0
M  V30 5415 C 505.744 2.85963 1.81875 0
M  V30 5416 C 504.917 4.12291 1.46063 0
M  V30 5417 C 503.976 4.60396 2.54799 0
M  V30 5418 O 503.002 5.25265 2.19283 0
M  V30 5419 N 504.204 4.33935 3.85591 0
M  V30 5420 H 506.969 2.99697 0.013414 0
M  V30 5421 H 504.53 1.61308 -0.138295 0
M  V30 5422 H 506.522 3.15071 2.53993 0
M  V30 5423 H 505.092 2.11548 2.30144 0
M  V30 5424 H 504.312 3.90036 0.571445 0
M  V30 5425 H 505.6 4.9452 1.19695 0
M  V30 5426 H 504.998 3.81996 4.17248 0
M  V30 5427 H 503.555 4.67718 4.53964 0
M  V30 5428 N 506.988 0.0434614 1.5754 0
M  V30 5429 C 508.213 -0.645358 1.97104 0
M  V30 5430 C 508.638 -1.64037 0.920521 0
M  V30 5431 O 507.996 -1.80922 -0.11708 0
M  V30 5432 C 508.044 -1.31547 3.35749 0
M  V30 5433 O 507.148 -2.43103 3.33129 0
M  V30 5434 H 506.489 -0.168403 0.64229 0
M  V30 5435 H 509.019 0.109573 2.04306 0
M  V30 5436 H 509.029 -1.66895 3.72304 0
M  V30 5437 H 507.704 -0.586205 4.11748 0
M  V30 5438 H 506.281 -2.0976 3.0831 0
M  V30 5439 N 508.466 -1.55915 -0.229846 0
M  V30 5440 C 509.429 -1.90914 -1.26824 0
M  V30 5441 C 510.429 -0.786999 -1.40225 0
M  V30 5442 O 511.619 -1.05484 -1.38632 0
M  V30 5443 C 508.751 -2.15264 -2.64337 0
M  V30 5444 H 509.944 -2.8378 -0.969998 0
M  V30 5445 H 507.497 -1.49069 -0.4699 0
M  V30 5446 H 508.232 -1.24923 -2.99274 0
M  V30 5447 H 508.017 -2.97005 -2.55989 0
M  V30 5448 H 509.507 -2.43467 -3.39284 0
M  V30 5449 N 509.944 0.496216 -1.49584 0
M  V30 5450 C 511.184 1.26015 -1.60933 0
M  V30 5451 C 511.548 1.89772 -0.291646 0
M  V30 5452 O 512.749 2.67334 -0.280357 0
M  V30 5453 C 511.02 2.29506 -2.73974 0
M  V30 5454 S 512.579 3.15175 -3.05303 0
M  V30 5455 H 509.397 0.428194 -0.567601 0
M  V30 5456 H 511.999 0.561484 -1.87263 0
M  V30 5457 H 510.703 1.81205 -3.68229 0
M  V30 5458 H 510.234 3.04036 -2.49651 0
M  V30 5459 H 512.249 4.30244 -2.47193 0
M  V30 5460 N 511.423 1.38739 0.74761 0
M  V30 5461 C 512.648 1.38702 1.54197 0
M  V30 5462 C 513.073 -0.019664 1.8809 0
M  V30 5463 O 512.431 -1.00333 1.51006 0
M  V30 5464 C 512.479 2.25492 2.814 0
M  V30 5465 O 511.583 1.67613 3.76802 0
M  V30 5466 H 510.924 0.472863 0.466151 0
M  V30 5467 H 513.454 1.82577 0.923413 0
M  V30 5468 H 513.464 2.39561 3.30264 0
M  V30 5469 H 512.139 3.27727 2.56062 0
M  V30 5470 H 510.716 1.62718 3.35526 0
M  V30 5471 N 512.901 -0.976442 1.23707 0
M  V30 5472 C 513.848 -2.06952 1.02174 0
M  V30 5473 C 514.818 -1.65984 -0.0621034 0
M  V30 5474 O 516.003 -1.90584 0.0907906 0
M  V30 5475 C 513.143 -3.39425 0.62327 0
M  V30 5476 C 512.256 -3.9364 1.77966 0
M  V30 5477 C 511.391 -5.14343 1.3276 0
M  V30 5478 C 510.43 -5.60733 2.45449 0
M  V30 5479 N 509.567 -6.72662 2.01172 0
M  V30 5480 H 514.407 -2.24704 1.95734 0
M  V30 5481 H 511.944 -1.10143 0.975034 0
M  V30 5482 H 513.902 -4.15526 0.37332 0
M  V30 5483 H 512.532 -3.21624 -0.275329 0
M  V30 5484 H 511.584 -3.14258 2.14351 0
M  V30 5485 H 512.896 -4.24035 2.62671 0
M  V30 5486 H 512.05 -5.97789 1.03601 0
M  V30 5487 H 510.789 -4.8561 0.450975 0
M  V30 5488 H 509.794 -4.75865 2.75378 0
M  V30 5489 H 511.019 -5.91483 3.33654 0
M  V30 5490 H 508.965 -6.45681 1.15895 0
M  V30 5491 H 508.882 -7.02462 2.79434 0
M  V30 5492 H 510.15 -7.59572 1.75129 0
M  V30 5493 N 514.379 -1.04941 -1.1758 0
M  V30 5494 C 515.326 -0.648155 -2.21512 0
M  V30 5495 C 516.296 0.348431 -1.62404 0
M  V30 5496 O 517.481 0.240419 -1.89279 0
M  V30 5497 C 514.621 -0.0264291 -3.4509 0
M  V30 5498 C 513.734 -1.07154 -4.185 0
M  V30 5499 C 512.869 -0.417403 -5.29558 0
M  V30 5500 C 511.908 -1.447 -5.94751 0
M  V30 5501 N 511.045 -0.817203 -6.97328 0
M  V30 5502 H 515.885 -1.53891 -2.55189 0
M  V30 5503 H 513.422 -0.769699 -1.25356 0
M  V30 5504 H 515.38 0.351456 -4.15717 0
M  V30 5505 H 514.01 0.827802 -3.12005 0
M  V30 5506 H 513.062 -1.56728 -3.46613 0
M  V30 5507 H 514.374 -1.8532 -4.63096 0
M  V30 5508 H 513.528 0.0142061 -6.06698 0
M  V30 5509 H 512.267 0.396265 -4.86087 0
M  V30 5510 H 511.272 -1.88865 -5.16343 0
M  V30 5511 H 512.497 -2.26252 -6.40302 0
M  V30 5512 H 510.443 -0.0239995 -6.55996 0
M  V30 5513 H 510.36 -1.53644 -7.40223 0
M  V30 5514 H 511.628 -0.410283 -7.7842 0
M  V30 5515 N 515.857 1.33968 -0.830081 0
M  V30 5516 C 516.79 2.27303 -0.202182 0
M  V30 5517 C 517.768 1.49235 0.645581 0
M  V30 5518 O 518.952 1.78433 0.607762 0
M  V30 5519 C 516.079 3.31025 0.716932 0
M  V30 5520 C 515.125 4.26466 -0.0542271 0
M  V30 5521 S 515.958 5.16707 -1.40622 0
M  V30 5522 C 517.114 6.23962 -0.492167 0
M  V30 5523 H 517.347 2.8021 -0.99346 0
M  V30 5524 H 514.88 1.41124 -0.626359 0
M  V30 5525 H 516.838 3.91271 1.24165 0
M  V30 5526 H 515.499 2.76951 1.4818 0
M  V30 5527 H 514.692 4.99858 0.644785 0
M  V30 5528 H 514.294 3.7051 -0.509722 0
M  V30 5529 H 516.586 6.76774 0.31347 0
M  V30 5530 H 517.529 6.97927 -1.19599 0
M  V30 5531 H 517.937 5.64447 -0.0774176 0
M  V30 5532 N 517.335 0.585699 1.46312 0
M  V30 5533 C 518.581 0.0808731 2.03239 0
M  V30 5534 C 518.936 -1.26609 1.44872 0
M  V30 5535 O 518.229 -1.81779 0.60556 0
M  V30 5536 C 518.423 -0.0401312 3.57377 0
M  V30 5537 C 518.252 1.29356 4.30694 0
M  V30 5538 C 517.022 1.86849 4.69484 0
M  V30 5539 C 519.22 2.21742 4.64042 0
M  V30 5540 N 517.202 3.13926 5.27564 0
M  V30 5541 C 518.573 3.33408 5.22723 0
M  V30 5542 C 520.628 2.21386 4.45974 0
M  V30 5543 C 519.331 4.44852 5.65242 0
M  V30 5544 C 521.357 3.31862 4.89511 0
M  V30 5545 C 520.719 4.42248 5.48266 0
M  V30 5546 H 516.818 0.072443 0.778637 0
M  V30 5547 H 519.402 0.779254 1.78426 0
M  V30 5548 H 517.573 -0.707686 3.81898 0
M  V30 5549 H 519.305 -0.549615 4.00951 0
M  V30 5550 H 516.06 1.40307 4.52339 0
M  V30 5551 H 516.484 3.78775 5.61122 0
M  V30 5552 H 521.126 1.37314 3.99881 0
M  V30 5553 H 518.844 5.29665 6.10312 0
M  V30 5554 H 522.43 3.32708 4.7728 0
M  V30 5555 H 521.31 5.26323 5.81338 0
M  V30 5556 N 518.813 -1.54241 0.323641 0
M  V30 5557 C 520.062 -1.9975 -0.279806 0
M  V30 5558 C 520.375 -1.2156 -1.5324 0
M  V30 5559 O 521.581 -1.57447 -2.21185 0
M  V30 5560 C 520.037 -3.55686 -0.549115 0
M  V30 5561 C 519.645 -4.4271 0.686432 0
M  V30 5562 C 521.389 -4.09663 -1.11251 0
M  V30 5563 C 519.296 -5.90119 0.389022 0
M  V30 5564 H 518.226 -0.746177 -0.10833 0
M  V30 5565 H 520.877 -1.78248 0.435877 0
M  V30 5566 H 519.259 -3.73176 -1.32499 0
M  V30 5567 H 520.433 -4.36996 1.46188 0
M  V30 5568 H 518.748 -3.99623 1.17005 0
M  V30 5569 H 521.345 -5.17386 -1.34965 0
M  V30 5570 H 521.688 -3.61651 -2.06191 0
M  V30 5571 H 522.221 -3.95806 -0.39782 0
M  V30 5572 H 518.96 -6.42326 1.30759 0
M  V30 5573 H 518.48 -5.98785 -0.348722 0
M  V30 5574 H 520.159 -6.47 -0.0011164 0
M  V30 5575 N 520.291 -0.0518155 -1.57515 0
M  V30 5576 C 521.516 0.634896 -1.97443 0
M  V30 5577 C 521.941 1.63546 -0.929207 0
M  V30 5578 O 521.299 1.80981 0.107484 0
M  V30 5579 C 521.347 1.29765 -3.36442 0
M  V30 5580 O 520.451 2.41333 -3.34413 0
M  V30 5581 H 519.792 0.164994 -0.643174 0
M  V30 5582 H 522.322 -0.120407 -2.04245 0
M  V30 5583 H 522.332 1.64918 -3.73184 0
M  V30 5584 H 521.007 0.564361 -4.12053 0
M  V30 5585 H 519.584 2.08122 -3.09418 0
M  V30 5586 N 521.769 1.56035 0.221574 0
M  V30 5587 C 523.046 1.69837 0.970301 0
M  V30 5588 C 523.426 0.599065 2.02421 0
M  V30 5589 O 522.774 -0.393929 2.25079 0
M  V30 5590 C 522.984 3.11148 1.58076 0
M  V30 5591 C 524.332 3.70555 2.07302 0
M  V30 5592 O 525.356 3.14109 1.6797 0
M  V30 5593 O 524.215 4.69562 2.79596 0
M  V30 5594 H 521.309 0.691727 0.453257 0
M  V30 5595 H 523.855 1.68353 0.213358 0
M  V30 5596 H 522.627 3.82617 0.819759 0
M  V30 5597 H 522.25 3.16749 2.40324 0
M  V30 5598 N 523.247 -0.488276 1.49845 0
M  V30 5599 C 524.472 -1.26997 1.63971 0
M  V30 5600 C 524.897 -1.85427 0.315994 0
M  V30 5601 O 524.255 -1.66475 -0.718032 0
M  V30 5602 C 524.303 -2.36689 2.72049 0
M  V30 5603 O 523.407 -3.40882 2.32107 0
M  V30 5604 H 522.748 -0.374376 0.548396 0
M  V30 5605 H 525.278 -0.583104 1.96115 0
M  V30 5606 H 525.288 -2.82262 2.94605 0
M  V30 5607 H 523.963 -1.93529 3.68129 0
M  V30 5608 H 522.54 -3.01139 2.19931 0
M  V30 5609 N 524.725 -1.39134 -0.740242 0
M  V30 5610 C 525.972 -1.36071 -1.49969 0
M  V30 5611 C 526.3 0.0450245 -1.94448 0
M  V30 5612 O 525.555 1.02482 -1.66721 0
M  V30 5613 C 525.854 -2.27457 -2.75678 0
M  V30 5614 C 525.52 -3.75185 -2.50094 0
M  V30 5615 C 524.182 -4.15439 -2.42825 0
M  V30 5616 C 526.534 -4.68643 -2.28086 0
M  V30 5617 C 523.862 -5.4722 -2.11584 0
M  V30 5618 C 526.214 -6.00695 -1.98363 0
M  V30 5619 C 524.878 -6.40018 -1.8956 0
M  V30 5620 H 524.148 -0.497921 -0.548777 0
M  V30 5621 H 526.795 -1.71599 -0.85007 0
M  V30 5622 H 525.1 -1.8503 -3.45356 0
M  V30 5623 H 526.797 -2.22384 -3.33686 0
M  V30 5624 H 523.387 -3.43279 -2.56627 0
M  V30 5625 H 527.571 -4.3838 -2.32672 0
M  V30 5626 H 522.827 -5.76615 -2.03287 0
M  V30 5627 H 527.001 -6.72644 -1.80341 0
M  V30 5628 H 524.628 -7.42051 -1.65117 0
M  V30 5629 N 526.204 0.969867 -1.24223 0
M  V30 5630 C 527.152 2.08535 -1.03034 0
M  V30 5631 C 528.146 1.69366 0.0340379 0
M  V30 5632 O 529.352 1.79597 -0.12034 0
M  V30 5633 H 525.727 0.682313 -0.316154 0
M  V30 5634 H 527.698 2.23569 -1.97635 0
M  V30 5635 C 526.447 3.4158 -0.649509 0
M  V30 5636 H 525.77 3.72177 -1.46028 0
M  V30 5637 H 527.21 4.20536 -0.540841 0
M  V30 5638 C 525.669 3.30703 0.643194 0
M  V30 5639 O 526.199 3.64443 1.68951 0
M  V30 5640 N 524.405 2.83841 0.623095 0
M  V30 5641 H 523.952 2.56583 -0.228719 0
M  V30 5642 H 523.91 2.76946 1.48823 0
M  V30 5643 N 527.682 1.05563 1.17022 0
M  V30 5644 C 528.907 0.788437 1.91829 0
M  V30 5645 C 529.332 -0.650356 1.76499 0
M  V30 5646 O 528.69 -1.45229 1.08527 0
M  V30 5647 C 528.738 1.1786 3.40795 0
M  V30 5648 O 527.842 0.312965 4.11211 0
M  V30 5649 H 527.183 0.288794 0.597908 0
M  V30 5650 H 529.713 1.40948 1.48307 0
M  V30 5651 H 529.723 1.14697 3.91546 0
M  V30 5652 H 528.398 2.22666 3.51273 0
M  V30 5653 H 526.975 0.405515 3.70689 0
M  V30 5654 N 529.16 -1.33526 0.837174 0
M  V30 5655 C 530.07 -2.33023 0.271568 0
M  V30 5656 C 531.086 -1.63272 -0.601514 0
M  V30 5657 O 532.262 -1.94939 -0.506038 0
M  V30 5658 C 529.327 -3.42382 -0.545448 0
M  V30 5659 C 528.388 -4.27857 0.351709 0
M  V30 5660 C 527.621 -5.31994 -0.426409 0
M  V30 5661 O 527.844 -5.45763 -1.65828 0
M  V30 5662 O 526.778 -6.01572 0.1987 0
M  V30 5663 H 530.604 -2.83256 1.09545 0
M  V30 5664 H 528.189 -1.36837 0.599655 0
M  V30 5665 H 530.071 -4.09122 -1.00979 0
M  V30 5666 H 528.746 -2.94369 -1.34641 0
M  V30 5667 H 527.653 -3.6399 0.863853 0
M  V30 5668 H 528.986 -4.79349 1.1174 0
M  V30 5669 N 530.638 -0.59345 -1.46 0
M  V30 5670 C 531.863 -0.0872365 -2.07216 0
M  V30 5671 C 532.288 1.2131 -1.43755 0
M  V30 5672 O 531.646 1.73528 -0.525152 0
M  V30 5673 C 531.694 0.0538197 -3.6056 0
M  V30 5674 O 530.798 1.10765 -3.97247 0
M  V30 5675 H 530.139 -0.0676598 -0.660544 0
M  V30 5676 H 532.669 -0.819445 -1.87473 0
M  V30 5677 H 532.679 0.256567 -4.07193 0
M  V30 5678 H 531.354 -0.895739 -4.0614 0
M  V30 5679 H 529.931 0.882501 -3.62307 0
M  V30 5680 N 532.116 1.54067 -0.331816 0
M  V30 5681 C 533.364 2.00319 0.267739 0
M  V30 5682 C 533.685 1.22148 1.52003 0
M  V30 5683 O 532.955 0.325494 1.93177 0
M  V30 5684 H 531.535 0.740014 0.101922 0
M  V30 5685 H 534.197 1.89628 -0.450267 0
M  V30 5686 H 533.293 3.07765 0.518385 0
M  V30 5687 N 533.594 0.0601682 1.57485 0
M  V30 5688 C 534.819 -0.624416 1.97777 0
M  V30 5689 C 535.244 -1.63051 0.937867 0
M  V30 5690 O 534.602 -1.81036 -0.0978845 0
M  V30 5691 C 534.65 -1.27979 3.37126 0
M  V30 5692 O 533.754 -2.39556 3.35688 0
M  V30 5693 H 533.095 -0.161581 0.64404 0
M  V30 5694 H 535.625 0.131237 2.04179 0
M  V30 5695 H 535.635 -1.62937 3.74053 0
M  V30 5696 H 534.31 -0.542501 4.12347 0
M  V30 5697 H 532.887 -2.06478 3.10517 0
M  V30 5698 N 535.072 -1.5615 -0.213296 0
M  V30 5699 C 536.318 -1.79812 -0.937849 0
M  V30 5700 C 536.651 -0.631201 -1.83656 0
M  V30 5701 O 535.926 0.369165 -1.90964 0
M  V30 5702 C 536.209 -3.13613 -1.76972 0
M  V30 5703 C 536.062 -4.40766 -0.89695 0
M  V30 5704 C 537.381 -3.43931 -2.7459 0
M  V30 5705 H 534.5 -0.654138 -0.339518 0
M  V30 5706 H 537.142 -1.88877 -0.20623 0
M  V30 5707 H 535.292 -3.06015 -2.39347 0
M  V30 5708 H 536.964 -4.60392 -0.289306 0
M  V30 5709 H 535.207 -4.33326 -0.202756 0
M  V30 5710 H 535.878 -5.30843 -1.51358 0
M  V30 5711 H 538.354 -3.5171 -2.22349 0
M  V30 5712 H 537.23 -4.38706 -3.29891 0
M  V30 5713 H 537.491 -2.6651 -3.52739 0
M  V30 5714 N 536.55 0.480323 -1.50102 0
M  V30 5715 C 537.796 1.23489 -1.60867 0
M  V30 5716 C 538.129 1.91809 -0.303827 0
M  V30 5717 O 537.404 1.81694 0.694092 0
M  V30 5718 C 537.687 2.28578 -2.78252 0
M  V30 5719 C 537.54 1.64624 -4.18592 0
M  V30 5720 C 538.859 3.2997 -2.91218 0
M  V30 5721 H 535.978 0.447605 -0.585507 0
M  V30 5722 H 538.62 0.530005 -1.82458 0
M  V30 5723 H 536.77 2.88697 -2.59974 0
M  V30 5724 H 538.442 1.08173 -4.48438 0
M  V30 5725 H 536.685 0.949645 -4.23278 0
M  V30 5726 H 537.356 2.40946 -4.96638 0
M  V30 5727 H 539.832 2.79864 -3.07921 0
M  V30 5728 H 538.708 4.00839 -3.74993 0
M  V30 5729 H 538.969 3.93541 -2.0144 0
M  V30 5730 N 538.028 1.39524 0.732853 0
M  V30 5731 C 538.958 1.41153 1.86005 0
M  V30 5732 C 539.939 0.274614 1.67869 0
M  V30 5733 O 541.124 0.480745 1.88155 0
M  V30 5734 C 538.254 1.25638 3.23778 0
M  V30 5735 C 537.208 2.36752 3.56556 0
M  V30 5736 C 536.534 2.06326 4.93289 0
M  V30 5737 C 537.834 3.79069 3.5931 0
M  V30 5738 H 539.528 2.35484 1.84899 0
M  V30 5739 H 537.074 1.13348 0.888162 0
M  V30 5740 H 539.027 1.25398 4.0231 0
M  V30 5741 H 537.751 0.277772 3.25417 0
M  V30 5742 H 536.41 2.36213 2.80355 0
M  V30 5743 H 536.058 1.06897 4.9151 0
M  V30 5744 H 535.758 2.80757 5.16187 0
M  V30 5745 H 537.282 2.07739 5.74175 0
M  V30 5746 H 538.696 3.81526 4.27914 0
M  V30 5747 H 537.093 4.52878 3.93728 0
M  V30 5748 H 538.163 4.09893 2.59068 0
M  V30 5749 N 539.506 -0.963266 1.24736 0
M  V30 5750 C 540.454 -2.07985 1.04139 0
M  V30 5751 C 541.448 -1.69381 -0.0250556 0
M  V30 5752 O 542.654 -1.79531 0.129863 0
M  V30 5753 H 539.029 -0.680627 0.319768 0
M  V30 5754 H 541 -2.22517 1.98818 0
M  V30 5755 C 539.749 -3.4123 0.667615 0
M  V30 5756 H 539.072 -3.71397 1.48 0
M  V30 5757 H 540.512 -4.20244 0.563136 0
M  V30 5758 C 538.971 -3.3104 -0.625647 0
M  V30 5759 O 539.501 -3.65334 -1.67016 0
M  V30 5760 N 537.707 -2.84168 -0.608033 0
M  V30 5761 H 537.254 -2.56458 0.242323 0
M  V30 5762 H 537.212 -2.77732 -1.47352 0
M  V30 5763 N 540.985 -1.06182 -1.16461 0
M  V30 5764 C 542.262 -0.691364 -1.82974 0
M  V30 5765 C 542.642 0.827377 -1.9421 0
M  V30 5766 O 541.99 1.73723 -1.48434 0
M  V30 5767 C 542.2 -1.39199 -3.20038 0
M  V30 5768 C 543.548 -1.53647 -3.95825 0
M  V30 5769 O 544.572 -1.35181 -3.29552 0
M  V30 5770 O 543.431 -1.83932 -5.14618 0
M  V30 5771 H 540.525 -0.244605 -0.789998 0
M  V30 5772 H 543.071 -1.16203 -1.23673 0
M  V30 5773 H 541.843 -2.42766 -3.06888 0
M  V30 5774 H 541.466 -0.911335 -3.87015 0
M  V30 5775 N 542.463 1.3308 -0.844243 0
M  V30 5776 C 543.691 2.01808 -0.456203 0
M  V30 5777 C 544.106 1.63498 0.944131 0
M  V30 5778 O 543.463 0.85102 1.61443 0
M  V30 5779 C 543.514 3.56922 -0.573513 0
M  V30 5780 O 543.235 3.93851 -1.91868 0
M  V30 5781 C 544.736 4.42922 -0.183125 0
M  V30 5782 H 541.956 0.646273 -0.180477 0
M  V30 5783 H 544.5 1.69891 -1.1383 0
M  V30 5784 H 542.655 3.87352 0.0607367 0
M  V30 5785 H 543.069 4.88564 -1.90802 0
M  V30 5786 H 544.543 5.51093 -0.316241 0
M  V30 5787 H 545.02 4.30386 0.875477 0
M  V30 5788 H 545.626 4.1786 -0.792027 0
M  V30 5789 N 543.941 0.601185 1.45683 0
M  V30 5790 C 545.166 0.0982245 2.07167 0
M  V30 5791 C 545.591 -1.20546 1.44396 0
M  V30 5792 O 544.949 -1.73247 0.534347 0
M  V30 5793 C 544.997 -0.0346976 3.60583 0
M  V30 5794 O 544.101 -1.08657 3.97828 0
M  V30 5795 H 543.442 0.0711618 0.660176 0
M  V30 5796 H 545.972 0.829376 1.87036 0
M  V30 5797 H 545.982 -0.234969 4.07323 0
M  V30 5798 H 544.657 0.917265 4.05659 0
M  V30 5799 H 543.234 -0.863275 3.6277 0
M  V30 5800 N 545.419 -1.53889 0.339982 0
M  V30 5801 C 546.366 -2.24902 -0.518452 0
M  V30 5802 C 547.336 -1.24593 -1.09844 0
M  V30 5803 O 548.521 -1.53317 -1.13572 0
M  V30 5804 C 545.661 -3.02262 -1.66529 0
M  V30 5805 C 544.774 -4.17418 -1.11295 0
M  V30 5806 C 543.909 -4.82273 -2.2268 0
M  V30 5807 C 542.948 -5.89503 -1.6478 0
M  V30 5808 N 542.085 -6.48153 -2.69893 0
M  V30 5809 H 546.925 -2.97853 0.0936579 0
M  V30 5810 H 544.462 -1.46986 0.0579924 0
M  V30 5811 H 546.42 -3.45371 -2.3404 0
M  V30 5812 H 545.05 -2.31614 -2.24844 0
M  V30 5813 H 544.102 -3.78976 -0.328886 0
M  V30 5814 H 545.414 -4.94554 -0.649414 0
M  V30 5815 H 544.568 -5.28435 -2.98063 0
M  V30 5816 H 543.307 -4.04552 -2.72376 0
M  V30 5817 H 542.312 -5.42728 -0.879004 0
M  V30 5818 H 543.537 -6.6913 -1.1594 0
M  V30 5819 H 541.483 -5.73298 -3.1885 0
M  V30 5820 H 541.4 -7.20752 -2.28151 0
M  V30 5821 H 542.668 -6.98968 -3.45056 0
M  V30 5822 N 546.897 -0.0685191 -1.57451 0
M  V30 5823 C 547.845 0.917577 -2.13736 0
M  V30 5824 C 548.839 1.31049 -1.07344 0
M  V30 5825 O 550.045 1.28811 -1.25728 0
M  V30 5826 H 546.42 0.313835 -0.683382 0
M  V30 5827 H 548.391 0.417903 -2.95459 0
M  V30 5828 C 547.14 2.17686 -2.71123 0
M  V30 5829 H 546.463 1.88336 -3.52661 0
M  V30 5830 H 547.903 2.84803 -3.14107 0
M  V30 5831 C 546.362 2.9332 -1.65726 0
M  V30 5832 O 546.892 3.86901 -1.08031 0
M  V30 5833 N 545.098 2.56367 -1.36837 0
M  V30 5834 H 544.645 1.80341 -1.83943 0
M  V30 5835 H 544.603 3.07276 -0.665501 0
M  V30 5836 N 548.375 1.56261 0.205012 0
M  V30 5837 C 549.622 1.8004 0.926927 0
M  V30 5838 C 549.95 0.640086 1.83666 0
M  V30 5839 O 549.205 -0.374702 1.92079 0
M  V30 5840 C 549.504 3.09722 1.78345 0
M  V30 5841 C 549.17 4.39082 1.02555 0
M  V30 5842 C 547.832 4.74226 0.816256 0
M  V30 5843 C 550.184 5.18877 0.491559 0
M  V30 5844 C 547.512 5.86668 0.0613287 0
M  V30 5845 C 549.864 6.32105 -0.250107 0
M  V30 5846 C 548.528 6.6584 -0.470508 0
M  V30 5847 H 547.798 0.658812 0.339187 0
M  V30 5848 H 550.445 1.90515 0.19395 0
M  V30 5849 H 548.75 2.9444 2.5848 0
M  V30 5850 H 550.447 3.25324 2.34446 0
M  V30 5851 H 547.037 4.11497 1.19868 0
M  V30 5852 H 551.221 4.92147 0.640684 0
M  V30 5853 H 546.477 6.11283 -0.119501 0
M  V30 5854 H 550.651 6.93157 -0.671307 0
M  V30 5855 H 548.278 7.5281 -1.05739 0
M  V30 5856 N 549.853 -0.472356 1.50355 0
M  V30 5857 C 550.763 -1.59637 1.7191 0
M  V30 5858 C 551.779 -1.63247 0.602195 0
M  V30 5859 O 552.955 -1.81139 0.880369 0
M  V30 5860 C 550.02 -2.9586 1.80742 0
M  V30 5861 C 549.081 -3.02649 3.04471 0
M  V30 5862 C 548.314 -4.32374 3.12872 0
M  V30 5863 O 548.537 -5.22807 2.28099 0
M  V30 5864 O 547.471 -4.44728 4.05587 0
M  V30 5865 H 551.297 -1.44373 2.67189 0
M  V30 5866 H 548.882 -0.651717 1.34436 0
M  V30 5867 H 550.764 -3.7677 1.88739 0
M  V30 5868 H 549.439 -3.11325 0.88647 0
M  V30 5869 H 548.346 -2.20821 3.01975 0
M  V30 5870 H 549.679 -2.92119 3.9614 0
M  V30 5871 N 551.331 -1.39911 -0.725443 0
M  V30 5872 C 552.608 -1.28158 -1.47766 0
M  V30 5873 C 552.988 0.104545 -2.10841 0
M  V30 5874 O 552.336 1.11657 -1.99361 0
M  V30 5875 C 552.546 -2.41306 -2.52135 0
M  V30 5876 C 553.894 -2.81076 -3.18247 0
M  V30 5877 O 554.918 -2.40827 -2.62452 0
M  V30 5878 O 553.777 -3.50581 -4.19231 0
M  V30 5879 H 550.871 -0.502761 -0.656628 0
M  V30 5880 H 553.417 -1.51808 -0.758456 0
M  V30 5881 H 552.189 -3.33932 -2.03974 0
M  V30 5882 H 551.812 -2.19374 -3.31603 0
M  V30 5883 N 552.809 0.956637 -1.25245 0
M  V30 5884 C 554.034 1.74104 -1.12706 0
M  V30 5885 C 554.459 1.85436 0.315429 0
M  V30 5886 O 553.817 1.33334 1.22848 0
M  V30 5887 C 553.865 3.1338 -1.78396 0
M  V30 5888 O 552.969 3.98485 -1.06224 0
M  V30 5889 H 552.31 0.53476 -0.393609 0
M  V30 5890 H 554.84 1.19924 -1.65769 0
M  V30 5891 H 554.85 3.6385 -1.846 0
M  V30 5892 H 553.525 3.04448 -2.83345 0
M  V30 5893 H 552.102 3.56952 -1.07886 0
M  V30 5894 N 554.287 1.06798 1.15896 0
M  V30 5895 C 555.703 0.792423 1.38538 0
M  V30 5896 C 555.903 -0.60592 1.92174 0
M  V30 5897 O 554.959 -1.36561 2.12385 0
M  V30 5898 C 556.272 1.86157 2.36149 0
M  V30 5899 C 557.82 1.88567 2.49823 0
M  V30 5900 C 558.295 2.9455 3.5072 0
M  V30 5901 N 559.786 2.93616 3.58251 0
M  V30 5902 C 560.521 3.72267 4.36125 0
M  V30 5903 N 560.017 4.60751 5.17379 0
M  V30 5904 N 561.81 3.60637 4.31158 0
M  V30 5905 H 553.961 1.96993 0.794198 0
M  V30 5906 H 556.224 0.853942 0.411688 0
M  V30 5907 H 555.93 2.86603 2.03843 0
M  V30 5908 H 555.804 1.71692 3.3586 0
M  V30 5909 H 558.191 0.887765 2.8143 0
M  V30 5910 H 558.272 2.0711 1.5013 0
M  V30 5911 H 557.916 3.94537 3.19849 0
M  V30 5912 H 557.846 2.73255 4.50155 0
M  V30 5913 H 560.337 2.29472 3.00252 0
M  V30 5914 H 560.65 5.17408 5.74028 0
M  V30 5915 H 558.995 4.64803 5.16704 0
M  V30 5916 H 562.186 2.90892 3.66742 0
M  V30 5917 H 562.359 4.22176 4.91601 0
M  V30 5918 N 555.766 -1.3263 0.851289 0
M  V30 5919 C 556.713 -2.28952 0.291469 0
M  V30 5920 C 557.683 -1.54897 -0.599676 0
M  V30 5921 O 558.868 -1.83137 -0.535305 0
M  V30 5922 C 556.008 -3.41206 -0.516992 0
M  V30 5923 C 555.121 -4.30148 0.399566 0
M  V30 5924 C 554.256 -5.29527 -0.4212 0
M  V30 5925 C 553.295 -6.10112 0.492969 0
M  V30 5926 N 552.432 -7.01499 -0.290414 0
M  V30 5927 H 557.272 -2.76228 1.11813 0
M  V30 5928 H 554.809 -1.35907 0.562826 0
M  V30 5929 H 556.767 -4.05005 -1.00132 0
M  V30 5930 H 555.397 -2.9509 -1.30851 0
M  V30 5931 H 554.449 -3.66959 1.00227 0
M  V30 5932 H 555.761 -4.8649 1.1013 0
M  V30 5933 H 554.915 -5.98914 -0.968832 0
M  V30 5934 H 553.654 -4.73794 -1.15632 0
M  V30 5935 H 552.659 -5.39632 1.05251 0
M  V30 5936 H 553.884 -6.6793 1.22664 0
M  V30 5937 H 551.83 -6.48199 -1.00868 0
M  V30 5938 H 551.747 -7.55178 0.352354 0
M  V30 5939 H 553.015 -7.75176 -0.819882 0
M  V30 5940 N 557.244 -0.608902 -1.45362 0
M  V30 5941 C 558.49 -0.104762 -2.02529 0
M  V30 5942 C 558.823 1.26191 -1.47613 0
M  V30 5943 O 558.098 1.8327 -0.65134 0
M  V30 5944 C 558.381 -0.0672661 -3.60037 0
M  V30 5945 C 558.234 -1.4647 -4.25284 0
M  V30 5946 C 559.553 0.619877 -4.35713 0
M  V30 5947 H 556.672 -0.0395438 -0.735938 0
M  V30 5948 H 559.314 -0.781126 -1.73201 0
M  V30 5949 H 557.464 0.50871 -3.85155 0
M  V30 5950 H 559.136 -2.08785 -4.11347 0
M  V30 5951 H 557.379 -2.02502 -3.83634 0
M  V30 5952 H 558.05 -1.39069 -5.34195 0
M  V30 5953 H 560.526 0.130297 -4.15896 0
M  V30 5954 H 559.402 0.615224 -5.45441 0
M  V30 5955 H 559.663 1.68621 -4.0868 0
M  V30 5956 N 558.722 1.53707 -0.348139 0
M  V30 5957 C 559.685 2.23812 0.494058 0
M  V30 5958 C 560.685 1.23989 1.02388 0
M  V30 5959 O 561.875 1.48395 0.912396 0
M  V30 5960 C 559.007 2.96133 1.68872 0
M  V30 5961 H 560.2 2.99663 -0.119141 0
M  V30 5962 H 557.753 1.55983 -0.0995539 0
M  V30 5963 H 558.488 2.24481 2.34049 0
M  V30 5964 H 558.273 3.69357 1.31596 0
M  V30 5965 H 559.763 3.49475 2.28597 0
M  V30 5966 N 560.2 0.0768682 1.57412 0
M  V30 5967 C 561.147 -0.888577 2.13009 0
M  V30 5968 C 562.117 -1.29198 1.0439 0
M  V30 5969 O 563.302 -1.37694 1.3208 0
M  V30 5970 C 560.442 -2.14899 2.70023 0
M  V30 5971 C 559.555 -1.79777 3.92816 0
M  V30 5972 C 558.69 -3.00467 4.38056 0
M  V30 5973 C 557.729 -2.61385 5.53484 0
M  V30 5974 N 556.866 -3.74851 5.93659 0
M  V30 5975 H 561.706 -0.407593 2.95199 0
M  V30 5976 H 559.243 -0.189534 1.45874 0
M  V30 5977 H 561.201 -2.88688 3.0119 0
M  V30 5978 H 559.831 -2.60529 1.9059 0
M  V30 5979 H 558.883 -0.960301 3.68079 0
M  V30 5980 H 560.195 -1.47027 4.76639 0
M  V30 5981 H 559.349 -3.82529 4.7091 0
M  V30 5982 H 558.088 -3.36413 3.53097 0
M  V30 5983 H 557.093 -1.77746 5.20275 0
M  V30 5984 H 558.318 -2.26603 6.40178 0
M  V30 5985 H 556.264 -4.1055 5.11649 0
M  V30 5986 H 556.181 -3.45887 6.72234 0
M  V30 5987 H 557.449 -4.57477 6.31138 0
M  V30 5988 N 561.678 -1.56367 -0.196722 0
M  V30 5989 C 562.641 -1.93561 -1.22746 0
M  V30 5990 C 563.641 -0.816566 -1.38524 0
M  V30 5991 O 564.831 -1.084 -1.36363 0
M  V30 5992 C 561.963 -2.20823 -2.59712 0
M  V30 5993 H 563.156 -2.85774 -0.909586 0
M  V30 5994 H 560.709 -1.50032 -0.438174 0
M  V30 5995 H 561.444 -1.31243 -2.96557 0
M  V30 5996 H 561.229 -3.02368 -2.49632 0
M  V30 5997 H 562.719 -2.50608 -3.34044 0
M  V30 5998 N 563.156 0.464375 -1.50603 0
M  V30 5999 C 564.119 1.54393 -1.69397 0
M  V30 6000 C 565.119 1.50566 -0.564504 0
M  V30 6001 O 566.309 1.53066 -0.831645 0
M  V30 6002 C 563.441 2.9401 -1.72543 0
M  V30 6003 H 564.634 1.39044 -2.65719 0
M  V30 6004 H 562.187 0.69122 -1.40185 0
M  V30 6005 H 562.922 3.14795 -0.77938 0
M  V30 6006 H 562.707 2.98195 -2.54602 0
M  V30 6007 H 564.197 3.72375 -1.89015 0
M  V30 6008 N 564.634 1.40294 0.718013 0
M  V30 6009 C 565.88 1.39648 1.47885 0
M  V30 6010 C 566.235 -0.0023879 1.924 0
M  V30 6011 O 565.528 -0.972304 1.65096 0
M  V30 6012 C 565.722 2.31814 2.72024 0
M  V30 6013 C 565.551 3.80523 2.3965 0
M  V30 6014 C 564.321 4.49351 2.3111 0
M  V30 6015 C 566.519 4.72077 2.04079 0
M  V30 6016 N 564.501 5.83305 1.91385 0
M  V30 6017 C 565.872 5.94809 1.74935 0
M  V30 6018 C 567.927 4.59935 1.90694 0
M  V30 6019 C 566.63 7.06755 1.33753 0
M  V30 6020 C 568.656 5.7182 1.50915 0
M  V30 6021 C 568.018 6.93637 1.22668 0
M  V30 6022 H 564.117 0.566263 0.539324 0
M  V30 6023 H 566.701 1.75986 0.832891 0
M  V30 6024 H 564.872 1.97607 3.34374 0
M  V30 6025 H 566.604 2.22042 3.38348 0
M  V30 6026 H 563.359 4.03002 2.4877 0
M  V30 6027 H 563.783 6.54239 1.74068 0
M  V30 6028 H 568.425 3.66274 2.11194 0
M  V30 6029 H 566.143 8.00302 1.11995 0
M  V30 6030 H 569.729 5.64421 1.4114 0
M  V30 6031 H 568.609 7.78743 0.923502 0
M  V30 6032 N 566.112 -0.949982 1.2575 0
M  V30 6033 C 567.389 -1.6718 1.01539 0
M  V30 6034 C 567.769 -2.06095 -0.456942 0
M  V30 6035 O 567.117 -1.77792 -1.43534 0
M  V30 6036 C 567.327 -2.8906 1.95564 0
M  V30 6037 C 568.675 -3.60909 2.23673 0
M  V30 6038 O 569.699 -2.9915 1.9336 0
M  V30 6039 O 568.558 -4.72127 2.75243 0
M  V30 6040 H 565.652 -0.731697 0.385419 0
M  V30 6041 H 568.198 -1.00249 1.36924 0
M  V30 6042 H 566.97 -2.57128 2.94959 0
M  V30 6043 H 566.593 -3.63719 1.60605 0
M  V30 6044 N 567.59 -1.07411 -1.15328 0
M  V30 6045 C 568.523 -0.63913 -2.19067 0
M  V30 6046 C 569.501 0.343929 -1.58921 0
M  V30 6047 O 570.685 0.250207 -1.86832 0
M  V30 6048 C 567.812 0.0613977 -3.38644 0
M  V30 6049 C 566.858 -0.880201 -4.17318 0
M  V30 6050 S 567.691 -2.38152 -4.79629 0
M  V30 6051 C 568.847 -1.69281 -6.02573 0
M  V30 6052 H 569.08 -1.51799 -2.55626 0
M  V30 6053 H 566.613 -0.888138 -1.26299 0
M  V30 6054 H 568.571 0.459323 -4.07922 0
M  V30 6055 H 567.232 0.916605 -3.00428 0
M  V30 6056 H 566.425 -0.336781 -5.02874 0
M  V30 6057 H 566.027 -1.21854 -3.53592 0
M  V30 6058 H 568.319 -1.00488 -6.70006 0
M  V30 6059 H 569.262 -2.52671 -6.61485 0
M  V30 6060 H 569.67 -1.17053 -5.52231 0
M  V30 6061 N 569.068 1.32177 -0.85831 0
M  V30 6062 C 570.345 1.91781 -0.384624 0
M  V30 6063 C 570.725 1.78171 1.13217 0
M  V30 6064 O 570.073 1.18209 1.95548 0
M  V30 6065 C 570.283 3.38414 -0.853047 0
M  V30 6066 C 571.631 4.15542 -0.872359 0
M  V30 6067 O 572.655 3.47148 -0.797926 0
M  V30 6068 O 571.514 5.37678 -0.978009 0
M  V30 6069 H 568.608 0.819259 -0.112886 0
M  V30 6070 H 571.154 1.40923 -0.945453 0
M  V30 6071 H 569.926 3.4228 -1.89632 0
M  V30 6072 H 569.549 3.96683 -0.269874 0
M  V30 6073 N 570.547 0.616602 1.45037 0
M  V30 6074 C 571.794 0.115331 2.02171 0
M  V30 6075 C 572.122 -1.25748 1.48383 0
M  V30 6076 O 571.377 -1.84511 0.652229 0
M  V30 6077 C 571.676 0.0356829 3.57382 0
M  V30 6078 C 571.342 1.34535 4.30362 0
M  V30 6079 C 570.004 1.70408 4.50016 0
M  V30 6080 C 572.356 2.21049 4.72003 0
M  V30 6081 C 569.684 2.92529 5.0857 0
M  V30 6082 C 572.036 3.42427 5.31908 0
M  V30 6083 C 570.7 3.78541 5.49784 0
M  V30 6084 H 569.97 0.0422024 0.739797 0
M  V30 6085 H 572.617 0.80002 1.73988 0
M  V30 6086 H 570.922 -0.732314 3.84895 0
M  V30 6087 H 572.619 -0.368463 3.99304 0
M  V30 6088 H 569.209 1.05615 4.15383 0
M  V30 6089 H 573.393 1.94632 4.56544 0
M  V30 6090 H 568.649 3.20605 5.20598 0
M  V30 6091 H 572.823 4.09709 5.63127 0
M  V30 6092 H 570.45 4.73255 5.94923 0
M  V30 6093 N 572.025 -1.5352 0.356285 0
M  V30 6094 C 573.253 -2.05534 -0.237328 0
M  V30 6095 C 573.668 -1.23043 -1.43199 0
M  V30 6096 O 573.025 -0.268821 -1.80509 0
M  V30 6097 C 573.076 -3.55791 -0.639933 0
M  V30 6098 O 572.797 -4.35154 0.507233 0
M  V30 6099 C 574.298 -4.24027 -1.29292 0
M  V30 6100 H 571.518 -0.669585 -0.0435572 0
M  V30 6101 H 574.062 -1.97988 0.511963 0
M  V30 6102 H 572.217 -3.63518 -1.33915 0
M  V30 6103 H 572.631 -5.24178 0.18375 0
M  V30 6104 H 574.105 -5.30509 -1.52527 0
M  V30 6105 H 574.582 -3.77166 -2.25039 0
M  V30 6106 H 575.188 -4.20527 -0.63539 0
M  V30 6107 N 573.503 -0.0852151 -1.57369 0
M  V30 6108 C 574.78 0.622534 -1.85429 0
M  V30 6109 C 575.16 1.86962 -0.980229 0
M  V30 6110 O 574.508 2.28445 -0.0500219 0
M  V30 6111 C 574.718 0.947374 -3.35896 0
M  V30 6112 C 576.066 1.31509 -4.03721 0
M  V30 6113 O 577.09 1.03869 -3.40719 0
M  V30 6114 O 575.949 1.83231 -5.14868 0
M  V30 6115 H 573.043 0.310513 -0.766492 0
M  V30 6116 H 575.589 -0.117164 -1.69295 0
M  V30 6117 H 574.361 0.0622264 -3.91251 0
M  V30 6118 H 573.984 1.74338 -3.5734 0
M  V30 6119 N 574.981 1.5647 0.188427 0
M  V30 6120 C 575.891 1.98285 1.2538 0
M  V30 6121 C 576.907 0.891535 1.49424 0
M  V30 6122 O 578.083 1.19782 1.61908 0
M  V30 6123 C 575.148 2.31965 2.57669 0
M  V30 6124 C 574.209 3.54838 2.41638 0
M  V30 6125 C 573.442 3.86901 3.67618 0
M  V30 6126 O 573.665 3.20163 4.72072 0
M  V30 6127 O 572.599 4.80309 3.62749 0
M  V30 6128 H 576.425 2.89145 0.928912 0
M  V30 6129 H 574.01 1.44112 0.393955 0
M  V30 6130 H 575.892 2.54673 3.35737 0
M  V30 6131 H 574.567 1.44271 2.89771 0
M  V30 6132 H 573.474 3.37369 1.61658 0
M  V30 6133 H 574.807 4.43019 2.14465 0
M  V30 6134 N 576.459 -0.456382 1.50847 0
M  V30 6135 C 577.391 -1.57033 1.66953 0
M  V30 6136 C 578.404 -1.53207 0.550593 0
M  V30 6137 O 579.593 -1.58328 0.824285 0
M  V30 6138 C 576.693 -2.95937 1.65149 0
M  V30 6139 C 575.866 -3.24475 2.93317 0
M  V30 6140 C 574.925 -4.43007 2.83957 0
M  V30 6141 O 573.951 -4.42592 3.57912 0
M  V30 6142 N 575.153 -5.45503 1.9851 0
M  V30 6143 H 577.918 -1.43629 2.63042 0
M  V30 6144 H 575.479 -0.645037 1.48495 0
M  V30 6145 H 577.471 -3.73224 1.56481 0
M  V30 6146 H 576.041 -3.03036 0.767343 0
M  V30 6147 H 575.261 -2.35664 3.16 0
M  V30 6148 H 576.549 -3.4036 3.78196 0
M  V30 6149 H 575.947 -5.48668 1.37766 0
M  V30 6150 H 574.504 -6.21716 1.95735 0
M  V30 6151 N 577.937 -1.40673 -0.710563 0
M  V30 6152 C 579.186 -1.38525 -1.46607 0
M  V30 6153 C 579.499 0.0077024 -1.95598 0
M  V30 6154 O 580.705 0.151792 -2.71075 0
M  V30 6155 C 579.161 -2.43489 -2.6503 0
M  V30 6156 C 578.769 -3.88619 -2.22888 0
M  V30 6157 C 580.513 -2.50456 -3.42742 0
M  V30 6158 C 578.42 -4.85168 -3.3818 0
M  V30 6159 H 577.35 -0.515092 -0.550632 0
M  V30 6160 H 580.001 -1.66431 -0.772846 0
M  V30 6161 H 578.383 -2.0869 -3.36548 0
M  V30 6162 H 579.557 -4.32588 -1.58758 0
M  V30 6163 H 577.872 -3.85174 -1.58208 0
M  V30 6164 H 580.469 -3.19776 -4.28541 0
M  V30 6165 H 580.812 -1.53665 -3.86902 0
M  V30 6166 H 581.345 -2.84271 -2.78271 0
M  V30 6167 H 578.084 -5.8331 -2.99047 0
M  V30 6168 H 577.604 -4.4586 -4.01209 0
M  V30 6169 H 579.283 -5.05225 -4.04174 0
M  V30 6170 N 579.415 0.9433 -1.26252 0
M  V30 6171 C 580.645 1.72117 -1.14277 0
M  V30 6172 C 581.053 1.86726 0.304944 0
M  V30 6173 O 580.396 1.3727 1.22076 0
M  V30 6174 C 580.458 3.14778 -1.73651 0
M  V30 6175 C 580.122 3.23561 -3.22734 0
M  V30 6176 C 581.119 3.07001 -4.19579 0
M  V30 6177 C 578.804 3.47019 -3.63157 0
M  V30 6178 C 580.798 3.13763 -5.54826 0
M  V30 6179 C 578.485 3.53416 -4.98538 0
M  V30 6180 C 579.483 3.36804 -5.94182 0
M  V30 6181 O 579.171 3.42906 -7.27098 0
M  V30 6182 H 578.903 0.545781 -0.398873 0
M  V30 6183 H 581.457 1.19123 -1.67328 0
M  V30 6184 H 579.687 3.69186 -1.1506 0
M  V30 6185 H 581.376 3.74469 -1.56613 0
M  V30 6186 H 582.142 2.88736 -3.89688 0
M  V30 6187 H 578.021 3.59006 -2.89199 0
M  V30 6188 H 581.565 3.00714 -6.29458 0
M  V30 6189 H 577.462 3.71201 -5.28091 0
M  V30 6190 H 578.23 3.59463 -7.35342 0
M  V30 6191 N 580.893 1.08022 1.14757 0
M  V30 6192 C 582.139 0.808705 1.85978 0
M  V30 6193 C 582.472 -0.663764 1.82504 0
M  V30 6194 O 581.747 -1.48765 1.25296 0
M  V30 6195 C 582.03 1.32623 3.34788 0
M  V30 6196 C 581.883 2.86375 3.46856 0
M  V30 6197 C 583.202 0.948291 4.29762 0
M  V30 6198 H 580.321 0.295244 0.675278 0
M  V30 6199 H 582.963 1.33917 1.34783 0
M  V30 6200 H 581.113 0.875002 3.78518 0
M  V30 6201 H 582.785 3.39839 3.11941 0
M  V30 6202 H 581.028 3.24232 2.88194 0
M  V30 6203 H 581.699 3.17658 4.51439 0
M  V30 6204 H 584.175 1.33722 3.94028 0
M  V30 6205 H 583.051 1.33765 5.32352 0
M  V30 6206 H 583.312 -0.145094 4.41862 0
M  V30 6207 N 582.371 -1.3172 0.865308 0
M  V30 6208 C 583.301 -2.31109 0.333302 0
M  V30 6209 C 584.282 -1.60148 -0.573301 0
M  V30 6210 O 585.467 -1.87882 -0.491305 0
M  V30 6211 C 582.597 -3.44104 -0.470078 0
M  V30 6212 C 581.551 -4.26623 0.343021 0
M  V30 6213 C 580.877 -5.31482 -0.585756 0
M  V30 6214 C 582.177 -4.98001 1.57456 0
M  V30 6215 H 583.871 -2.75855 1.1638 0
M  V30 6216 H 581.417 -1.3262 0.561069 0
M  V30 6217 H 583.37 -4.12682 -0.852752 0
M  V30 6218 H 582.094 -2.98112 -1.33404 0
M  V30 6219 H 580.753 -3.59707 0.707583 0
M  V30 6220 H 580.401 -4.81741 -1.44686 0
M  V30 6221 H 580.101 -5.87582 -0.0456494 0
M  V30 6222 H 581.625 -6.0292 -0.965375 0
M  V30 6223 H 583.039 -5.59201 1.26359 0
M  V30 6224 H 581.436 -5.63876 2.05339 0
M  V30 6225 H 582.506 -4.25253 2.32997 0
M  V30 6226 N 583.85 -0.624285 -1.44708 0
M  V30 6227 C 585.266 -0.289322 -1.56956 0
M  V30 6228 C 585.466 1.20773 -1.61295 0
M  V30 6229 O 584.522 1.9915 -1.55227 0
M  V30 6230 C 585.835 -0.975215 -2.84447 0
M  V30 6231 C 587.383 -0.952709 -2.98148 0
M  V30 6232 C 587.858 -1.61893 -4.28433 0
M  V30 6233 N 589.349 -1.5852 -4.35231 0
M  V30 6234 C 590.084 -2.06969 -5.34744 0
M  V30 6235 N 589.58 -2.63579 -6.40701 0
M  V30 6236 N 591.373 -1.97638 -5.26209 0
M  V30 6237 H 583.524 -1.59612 -1.40135 0
M  V30 6238 H 585.787 -0.669592 -0.671081 0
M  V30 6239 H 585.493 -2.02999 -2.87201 0
M  V30 6240 H 585.367 -0.508749 -3.73753 0
M  V30 6241 H 587.754 0.093568 -2.94952 0
M  V30 6242 H 587.835 -1.4576 -2.10209 0
M  V30 6243 H 587.479 -2.66463 -4.32389 0
M  V30 6244 H 587.409 -1.08893 -5.15218 0
M  V30 6245 H 589.899 -1.17183 -3.59272 0
M  V30 6246 H 590.213 -2.98298 -7.12908 0
M  V30 6247 H 588.558 -2.67626 -6.41406 0
M  V30 6248 H 591.749 -1.5314 -4.42341 0
M  V30 6249 H 591.922 -2.35708 -6.03611 0
M  V30 6250 N 585.328 1.53329 -0.364422 0
M  V30 6251 C 586.275 2.25698 0.482607 0
M  V30 6252 C 587.245 1.26325 1.07848 0
M  V30 6253 O 588.43 1.55104 1.11119 0
M  V30 6254 C 585.57 3.04873 1.61699 0
M  V30 6255 C 584.683 4.19135 1.0464 0
M  V30 6256 C 583.818 4.85754 2.14979 0
M  V30 6257 C 582.857 5.9205 1.5538 0
M  V30 6258 N 581.994 6.52365 2.59547 0
M  V30 6259 H 586.834 2.97666 -0.141032 0
M  V30 6260 H 584.371 1.46875 -0.0813692 0
M  V30 6261 H 586.329 3.49051 2.28516 0
M  V30 6262 H 584.959 2.35162 2.2113 0
M  V30 6263 H 584.011 3.79451 0.268553 0
M  V30 6264 H 585.323 4.95525 0.570653 0
M  V30 6265 H 584.477 5.3311 2.89619 0
M  V30 6266 H 583.216 4.08834 2.65906 0
M  V30 6267 H 582.221 5.44058 0.792549 0
M  V30 6268 H 583.446 6.7089 1.0528 0
M  V30 6269 H 581.392 5.78298 3.09689 0
M  V30 6270 H 581.309 7.2429 2.16655 0
M  V30 6271 H 582.577 7.0437 3.33892 0
M  V30 6272 N 586.806 0.0935595 1.57322 0
M  V30 6273 C 588.055 -0.570191 1.93473 0
M  V30 6274 C 588.368 -1.69434 0.977318 0
M  V30 6275 O 589.574 -2.41914 1.23248 0
M  V30 6276 C 588.03 -1.06564 3.43762 0
M  V30 6277 C 587.638 0.0286723 4.47991 0
M  V30 6278 C 589.382 -1.70221 3.88877 0
M  V30 6279 C 587.289 -0.482046 5.89432 0
M  V30 6280 H 586.219 -0.216764 0.72217 0
M  V30 6281 H 588.87 0.169313 1.82717 0
M  V30 6282 H 587.252 -1.85878 3.49664 0
M  V30 6283 H 588.426 0.804106 4.5373 0
M  V30 6284 H 586.741 0.570336 4.12476 0
M  V30 6285 H 589.338 -2.09502 4.91948 0
M  V30 6286 H 589.681 -2.57078 3.27439 0
M  V30 6287 H 590.214 -0.974919 3.85668 0
M  V30 6288 H 586.953 0.349871 6.54566 0
M  V30 6289 H 586.473 -1.22452 5.87167 0
M  V30 6290 H 588.152 -0.951508 6.39965 0
M  V30 6291 N 588.284 -1.56567 -0.180126 0
M  V30 6292 C 589.524 -1.83285 -0.904761 0
M  V30 6293 C 589.888 -0.673226 -1.7981 0
M  V30 6294 O 591.089 -0.820645 -2.55967 0
M  V30 6295 C 589.36 -3.15086 -1.68688 0
M  V30 6296 S 590.919 -3.63258 -2.46149 0
M  V30 6297 H 587.737 -0.643114 -0.303193 0
M  V30 6298 H 590.339 -1.94785 -0.167034 0
M  V30 6299 H 589.043 -3.97484 -1.02148 0
M  V30 6300 H 588.574 -3.06504 -2.46615 0
M  V30 6301 H 590.589 -3.29884 -3.70663 0
M  V30 6302 N 589.762 0.448376 -1.51087 0
M  V30 6303 C 590.672 1.56882 -1.74428 0
M  V30 6304 C 591.688 1.62268 -0.62809 0
M  V30 6305 O 592.864 1.79716 -0.909075 0
M  V30 6306 C 589.929 2.92947 -1.85426 0
M  V30 6307 C 588.99 2.97766 -3.09247 0
M  V30 6308 C 588.223 4.27341 -3.19711 0
M  V30 6309 O 588.446 5.19112 -2.36387 0
M  V30 6310 O 587.38 4.38219 -4.12611 0
M  V30 6311 H 591.206 1.40104 -2.69452 0
M  V30 6312 H 588.791 0.630247 -1.35456 0
M  V30 6313 H 590.673 3.73719 -1.94709 0
M  V30 6314 H 589.348 3.09876 -0.935887 0
M  V30 6315 H 588.255 2.15989 -3.0545 0
M  V30 6316 H 589.588 2.8578 -4.00738 0
M  V30 6317 N 591.24 1.41047 0.703093 0
M  V30 6318 C 592.203 1.42036 1.79884 0
M  V30 6319 C 593.203 0.312153 1.57741 0
M  V30 6320 O 594.393 0.571672 1.64553 0
M  V30 6321 C 591.525 1.22437 3.18154 0
M  V30 6322 H 592.718 2.39572 1.80403 0
M  V30 6323 H 590.271 1.27079 0.909977 0
M  V30 6324 H 591.006 0.257112 3.23279 0
M  V30 6325 H 590.791 2.02723 3.35627 0
M  V30 6326 H 592.281 1.25946 3.98155 0
M  V30 6327 N 592.718 -0.936591 1.26751 0
M  V30 6328 C 593.964 -1.6858 1.12733 0
M  V30 6329 C 594.297 -1.91414 -0.327745 0
M  V30 6330 O 593.572 -1.49812 -1.24043 0
M  V30 6331 C 593.855 -3.05779 1.90187 0
M  V30 6332 C 593.708 -2.90242 3.43627 0
M  V30 6333 C 595.027 -4.0597 1.69931 0
M  V30 6334 H 592.146 -0.61182 0.410908 0
M  V30 6335 H 594.788 -1.08747 1.55801 0
M  V30 6336 H 592.938 -3.56853 1.53584 0
M  V30 6337 H 594.61 -2.46354 3.9001 0
M  V30 6338 H 592.853 -2.2577 3.70419 0
M  V30 6339 H 593.524 -3.87572 3.93055 0
M  V30 6340 H 596 -3.63874 2.0183 0
M  V30 6341 H 594.876 -4.99974 2.26534 0
M  V30 6342 H 595.137 -4.37369 0.64502 0
M  V30 6343 N 594.196 -1.08629 -1.14182 0
M  V30 6344 C 595.426 -0.837673 -1.88856 0
M  V30 6345 C 595.834 0.614024 -1.78959 0
M  V30 6346 O 595.177 1.43384 -1.14833 0
M  V30 6347 C 595.239 -1.18355 -3.39459 0
M  V30 6348 C 594.903 -2.63848 -3.73139 0
M  V30 6349 C 595.9 -3.62099 -3.73069 0
M  V30 6350 C 593.585 -2.99761 -4.03049 0
M  V30 6351 C 595.579 -4.94292 -4.02435 0
M  V30 6352 C 593.266 -4.32147 -4.32078 0
M  V30 6353 C 594.264 -5.29223 -4.31755 0
M  V30 6354 O 593.952 -6.59229 -4.60079 0
M  V30 6355 H 593.684 -0.301609 -0.604986 0
M  V30 6356 H 596.238 -1.44961 -1.45518 0
M  V30 6357 H 594.468 -0.514628 -3.8326 0
M  V30 6358 H 596.157 -0.915391 -3.95443 0
M  V30 6359 H 596.923 -3.35698 -3.50046 0
M  V30 6360 H 592.802 -2.2484 -4.02453 0
M  V30 6361 H 596.346 -5.70055 -4.02098 0
M  V30 6362 H 592.243 -4.58296 -4.54571 0
M  V30 6363 H 593.011 -6.64578 -4.77785 0
M  V30 6364 N 595.674 1.31259 -0.872281 0
M  V30 6365 C 596.622 2.30404 -0.318897 0
M  V30 6366 C 597.616 1.5962 0.567267 0
M  V30 6367 O 598.822 1.74204 0.453111 0
M  V30 6368 H 595.197 0.747243 -0.0844474 0
M  V30 6369 H 597.168 2.74549 -1.16899 0
M  V30 6370 C 595.917 3.44608 0.462683 0
M  V30 6371 H 595.24 3.99248 -0.209936 0
M  V30 6372 H 596.68 4.1609 0.815187 0
M  V30 6373 C 595.139 2.93456 1.65485 0
M  V30 6374 O 595.669 2.92418 2.75417 0
M  V30 6375 N 593.875 2.49628 1.48776 0
M  V30 6376 H 593.422 2.50671 0.593452 0
M  V30 6377 H 593.38 2.15759 2.28682 0
M  V30 6378 N 597.152 0.631951 1.44375 0
M  V30 6379 C 598.568 0.297642 1.568 0
M  V30 6380 C 598.768 -1.19916 1.61934 0
M  V30 6381 O 597.824 -1.98324 1.56281 0
M  V30 6382 C 599.137 0.990286 2.83926 0
M  V30 6383 C 600.685 0.968507 2.97639 0
M  V30 6384 C 601.16 1.64163 4.27568 0
M  V30 6385 N 602.651 1.60826 4.34384 0
M  V30 6386 C 603.386 2.09802 5.33639 0
M  V30 6387 N 602.882 2.66973 6.39294 0
M  V30 6388 N 604.675 2.00426 5.25153 0
M  V30 6389 H 596.826 1.60353 1.39286 0
M  V30 6390 H 599.089 0.673142 0.667521 0
M  V30 6391 H 598.795 2.04519 2.8612 0
M  V30 6392 H 598.669 0.528563 3.73478 0
M  V30 6393 H 601.056 -0.0779247 2.94997 0
M  V30 6394 H 601.137 1.46873 2.09433 0
M  V30 6395 H 600.781 2.68752 4.3097 0
M  V30 6396 H 600.711 1.11624 5.14634 0
M  V30 6397 H 603.202 1.19087 3.58646 0
M  V30 6398 H 603.515 3.02074 7.11316 0
M  V30 6399 H 601.86 2.71024 6.39977 0
M  V30 6400 H 605.051 1.55483 4.41523 0
M  V30 6401 H 605.224 2.38906 6.02352 0
M  V30 6402 N 598.631 -1.53133 0.372548 0
M  V30 6403 C 599.856 -2.0625 -0.218098 0
M  V30 6404 C 600.281 -1.24375 -1.41111 0
M  V30 6405 O 599.639 -0.264554 -1.79359 0
M  V30 6406 C 599.687 -3.55858 -0.582876 0
M  V30 6407 O 598.791 -3.76667 -1.67917 0
M  V30 6408 H 598.132 -0.663317 -0.030104 0
M  V30 6409 H 600.662 -1.97477 0.535169 0
M  V30 6410 H 600.672 -3.99007 -0.851925 0
M  V30 6411 H 599.347 -4.14892 0.289428 0
M  V30 6412 H 597.924 -3.45413 -1.40513 0
M  V30 6413 N 600.109 -0.101901 -1.5727 0
M  V30 6414 C 601.072 0.840129 -2.13247 0
M  V30 6415 C 602.072 1.20625 -1.06331 0
M  V30 6416 O 603.262 1.13456 -1.32186 0
M  V30 6417 C 600.394 2.13372 -2.65867 0
M  V30 6418 H 601.587 0.353945 -2.97804 0
M  V30 6419 H 599.14 0.147167 -1.55606 0
M  V30 6420 H 599.875 2.66461 -1.84849 0
M  V30 6421 H 599.66 1.88085 -3.44044 0
M  V30 6422 H 601.15 2.80748 -3.09145 0
M  V30 6423 N 601.587 1.56661 0.17182 0
M  V30 6424 C 602.55 1.9549 1.19651 0
M  V30 6425 C 603.55 0.838501 1.37207 0
M  V30 6426 O 604.74 1.10556 1.34622 0
M  V30 6427 C 601.872 2.24927 2.56166 0
M  V30 6428 H 603.065 2.87184 0.864007 0
M  V30 6429 H 600.618 1.50711 0.41425 0
M  V30 6430 H 601.353 1.35944 2.94431 0
M  V30 6431 H 601.138 3.06301 2.4479 0
M  V30 6432 H 602.628 2.55891 3.30014 0
M  V30 6433 N 603.065 -0.440357 1.51323 0
M  V30 6434 C 603.995 -1.54174 1.75364 0
M  V30 6435 C 604.976 -1.59039 0.603375 0
M  V30 6436 O 606.161 -1.74815 0.845774 0
M  V30 6437 C 603.291 -2.92277 1.87593 0
M  V30 6438 C 602.245 -3.02274 3.03009 0
M  V30 6439 C 601.571 -4.42327 3.00418 0
M  V30 6440 C 602.871 -2.76634 4.43024 0
M  V30 6441 H 604.565 -1.34307 2.67585 0
M  V30 6442 H 602.111 -0.644678 1.28763 0
M  V30 6443 H 604.064 -3.69284 2.02995 0
M  V30 6444 H 602.788 -3.13369 0.920179 0
M  V30 6445 H 601.447 -2.27706 2.87307 0
M  V30 6446 H 601.095 -4.60382 2.02626 0
M  V30 6447 H 600.795 -4.49946 3.77918 0
M  V30 6448 H 602.319 -5.21312 3.17909 0
M  V30 6449 H 603.733 -3.43376 4.59093 0
M  V30 6450 H 602.13 -2.95666 5.22208 0
M  V30 6451 H 603.2 -1.72262 4.5327 0
M  V30 6452 N 604.543 -1.41418 -0.695603 0
M  V30 6453 C 605.506 -1.42988 -1.79129 0
M  V30 6454 C 606.506 -0.320514 -1.57573 0
M  V30 6455 O 607.696 -0.58039 -1.64247 0
M  V30 6456 C 604.828 -1.24122 -3.175 0
M  V30 6457 H 606.021 -2.40526 -1.7913 0
M  V30 6458 H 603.574 -1.2756 -0.903225 0
M  V30 6459 H 604.309 -0.274253 -3.23138 0
M  V30 6460 H 604.094 -2.045 -3.34547 0
M  V30 6461 H 605.584 -1.28056 -3.97481 0
M  V30 6462 N 606.021 0.929856 -1.27246 0
M  V30 6463 C 607.437 1.20542 -1.04603 0
M  V30 6464 C 607.637 2.00276 0.221754 0
M  V30 6465 O 606.693 2.34835 0.927833 0
M  V30 6466 C 608.006 1.95566 -2.28417 0
M  V30 6467 C 609.554 2.08513 -2.33433 0
M  V30 6468 C 610.029 2.86943 -3.5697 0
M  V30 6469 N 611.52 2.94512 -3.57515 0
M  V30 6470 C 612.255 3.55656 -4.49774 0
M  V30 6471 N 611.751 4.18209 -5.52334 0
M  V30 6472 N 613.544 3.53038 -4.37402 0
M  V30 6473 H 605.695 0.397113 -2.08655 0
M  V30 6474 H 607.958 0.238277 -0.917566 0
M  V30 6475 H 607.664 1.44395 -3.20691 0
M  V30 6476 H 607.538 2.9619 -2.33563 0
M  V30 6477 H 609.925 2.58872 -1.41666 0
M  V30 6478 H 610.006 1.07117 -2.32292 0
M  V30 6479 H 609.65 2.37268 -4.49072 0
M  V30 6480 H 609.58 3.8862 -3.55362 0
M  V30 6481 H 612.071 2.50053 -2.83341 0
M  V30 6482 H 612.384 4.62796 -6.18902 0
M  V30 6483 H 610.729 4.16761 -5.56179 0
M  V30 6484 H 613.92 3.0337 -3.56489 0
M  V30 6485 H 614.093 4.004 -5.09493 0
M  V30 6486 N 607.499 1.09233 1.13605 0
M  V30 6487 C 608.747 0.825525 1.84471 0
M  V30 6488 C 609.068 -0.650702 1.83823 0
M  V30 6489 O 608.338 -1.47204 1.29259 0
M  V30 6490 H 606.918 0.3024 0.683054 0
M  V30 6491 H 609.58 1.38006 1.37624 0
M  V30 6492 H 608.676 1.17727 2.89045 0
M  V30 6493 N 608.977 -1.30795 0.87923 0
M  V30 6494 C 610.205 -2.00527 0.509548 0
M  V30 6495 C 610.62 -1.65944 -0.90045 0
M  V30 6496 O 609.977 -0.893525 -1.5913 0
M  V30 6497 C 610.028 -3.55276 0.667943 0
M  V30 6498 O 609.749 -3.88625 2.02242 0
M  V30 6499 C 611.25 -4.4228 0.300494 0
M  V30 6500 H 608.47 -0.641261 0.197549 0
M  V30 6501 H 611.014 -1.66813 1.18295 0
M  V30 6502 H 609.169 -3.87377 0.0419843 0
M  V30 6503 H 609.583 -4.83334 2.03688 0
M  V30 6504 H 611.057 -5.50061 0.462242 0
M  V30 6505 H 611.534 -4.32556 -0.76106 0
M  V30 6506 H 612.14 -4.15613 0.902536 0
M  V30 6507 N 610.455 -0.639598 -1.44038 0
M  V30 6508 C 611.704 -0.144885 -2.01179 0
M  V30 6509 C 612.017 1.24372 -1.50967 0
M  V30 6510 O 613.223 1.83291 -2.00292 0
M  V30 6511 C 611.679 -0.208244 -3.59297 0
M  V30 6512 C 611.287 -1.59869 -4.18504 0
M  V30 6513 C 613.031 0.229568 -4.23879 0
M  V30 6514 C 610.938 -1.61671 -5.68873 0
M  V30 6515 H 609.868 -0.0504005 -0.752314 0
M  V30 6516 H 612.519 -0.799639 -1.65161 0
M  V30 6517 H 610.901 0.513767 -3.92653 0
M  V30 6518 H 612.075 -2.34496 -3.96671 0
M  V30 6519 H 610.39 -1.98131 -3.66242 0
M  V30 6520 H 612.987 0.235758 -5.3418 0
M  V30 6521 H 613.33 1.25848 -3.96822 0
M  V30 6522 H 613.863 -0.440233 -3.95357 0
M  V30 6523 H 610.602 -2.62427 -6.00677 0
M  V30 6524 H 610.122 -0.913489 -5.92803 0
M  V30 6525 H 611.801 -1.35439 -6.32665 0
M  V30 6526 N 611.933 1.52934 -0.380664 0
M  V30 6527 C 612.896 2.24809 0.446473 0
M  V30 6528 C 613.896 1.26133 0.997347 0
M  V30 6529 O 615.086 1.50297 0.880714 0
M  V30 6530 C 612.218 2.99649 1.62553 0
M  V30 6531 H 613.411 2.99343 -0.182677 0
M  V30 6532 H 610.964 1.55736 -0.132618 0
M  V30 6533 H 611.699 2.29395 2.29235 0
M  V30 6534 H 611.484 3.72066 1.23732 0
M  V30 6535 H 612.974 3.54246 2.21133 0
M  V30 6536 N 613.412 0.11024 1.57214 0
M  V30 6537 C 614.375 -0.828808 2.1369 0
M  V30 6538 C 615.375 -1.20059 1.06969 0
M  V30 6539 O 616.565 -1.12754 1.32786 0
M  V30 6540 C 613.697 -2.11959 2.66994 0
M  V30 6541 H 614.89 -0.338146 2.97988 0
M  V30 6542 H 612.443 -0.138913 1.55681 0
M  V30 6543 H 613.178 -2.65476 1.8626 0
M  V30 6544 H 612.963 -1.86258 3.45037 0
M  V30 6545 H 614.453 -2.79105 3.10629 0
M  V30 6546 N 614.89 -1.56749 -0.16351 0
M  V30 6547 C 616.139 -1.81626 -0.877211 0
M  V30 6548 C 616.452 -0.688791 -1.83071 0
M  V30 6549 O 617.658 -0.822697 -2.58735 0
M  V30 6550 C 616.114 -3.21858 -1.61045 0
M  V30 6551 C 615.722 -4.42494 -0.700195 0
M  V30 6552 C 617.466 -3.56021 -2.31192 0
M  V30 6553 C 615.373 -5.73748 -1.43412 0
M  V30 6554 H 614.303 -0.67731 -0.331312 0
M  V30 6555 H 616.954 -1.83039 -0.13006 0
M  V30 6556 H 615.336 -3.14784 -2.40264 0
M  V30 6557 H 616.51 -4.60766 0.0555849 0
M  V30 6558 H 614.825 -4.1626 -0.10799 0
M  V30 6559 H 617.422 -4.51333 -2.8671 0
M  V30 6560 H 617.765 -2.81277 -3.06902 0
M  V30 6561 H 618.298 -3.64682 -1.58909 0
M  V30 6562 H 615.037 -6.51543 -0.719186 0
M  V30 6563 H 614.557 -5.5944 -2.16302 0
M  V30 6564 H 616.236 -6.15975 -1.9795 0
M  V30 6565 N 616.368 0.432326 -1.51554 0
M  V30 6566 C 617.331 1.50765 -1.72634 0
M  V30 6567 C 618.331 1.49334 -0.596314 0
M  V30 6568 O 619.521 1.51268 -0.863925 0
M  V30 6569 C 616.653 2.90284 -1.7874 0
M  V30 6570 H 617.846 1.33377 -2.68609 0
M  V30 6571 H 615.399 0.661329 -1.4162 0
M  V30 6572 H 616.134 3.13071 -0.845977 0
M  V30 6573 H 615.919 2.92727 -2.6087 0
M  V30 6574 H 617.409 3.68282 -1.96871 0
M  V30 6575 N 617.846 1.41785 0.688094 0
M  V30 6576 C 618.793 1.44221 1.80191 0
M  V30 6577 C 619.763 0.295688 1.63447 0
M  V30 6578 O 620.948 0.49783 1.84191 0
M  V30 6579 C 618.088 1.33743 3.1813 0
M  V30 6580 C 617.201 2.58325 3.46254 0
M  V30 6581 C 616.336 2.40086 4.73848 0
M  V30 6582 C 615.375 3.60107 4.94964 0
M  V30 6583 N 614.512 3.40892 6.13789 0
M  V30 6584 H 619.352 2.39411 1.77444 0
M  V30 6585 H 616.889 1.18876 0.866423 0
M  V30 6586 H 618.847 1.25669 3.97823 0
M  V30 6587 H 617.477 0.42157 3.20035 0
M  V30 6588 H 616.529 2.7682 2.60912 0
M  V30 6589 H 617.841 3.4758 3.57756 0
M  V30 6590 H 616.995 2.29522 5.61609 0
M  V30 6591 H 615.734 1.483 4.64606 0
M  V30 6592 H 614.739 3.71118 4.05649 0
M  V30 6593 H 615.964 4.52857 5.06061 0
M  V30 6594 H 613.91 2.51812 6.05745 0
M  V30 6595 H 613.827 4.23727 6.26092 0
M  V30 6596 H 615.095 3.34114 7.04264 0
M  V30 6597 N 619.324 -0.923095 1.27737 0
M  V30 6598 C 620.74 -1.19985 1.05241 0
M  V30 6599 C 620.94 -2.00391 -0.21113 0
M  V30 6600 O 619.996 -2.35324 -0.915366 0
M  V30 6601 C 621.309 -1.94352 2.29451 0
M  V30 6602 C 622.857 -2.07273 2.34536 0
M  V30 6603 C 623.332 -2.85046 3.58487 0
M  V30 6604 N 624.823 -2.92612 3.59072 0
M  V30 6605 C 625.558 -3.53266 4.51654 0
M  V30 6606 N 625.054 -4.15274 5.54545 0
M  V30 6607 N 626.847 -3.50714 4.39268 0
M  V30 6608 H 618.998 -0.386042 2.08862 0
M  V30 6609 H 621.261 -0.233407 0.918817 0
M  V30 6610 H 620.967 -1.42692 3.21453 0
M  V30 6611 H 620.841 -2.94947 2.3513 0
M  V30 6612 H 623.228 -2.58117 1.43037 0
M  V30 6613 H 623.309 -1.05884 2.32857 0
M  V30 6614 H 622.953 -2.34884 4.50324 0
M  V30 6615 H 622.883 -3.8673 3.57418 0
M  V30 6616 H 625.374 -2.48547 2.84663 0
M  V30 6617 H 625.687 -4.59507 6.21348 0
M  V30 6618 H 624.032 -4.13806 5.58382 0
M  V30 6619 H 627.223 -3.01475 3.58093 0
M  V30 6620 H 627.396 -3.97693 5.1161 0
M  V30 6621 N 620.802 -1.09834 -1.13024 0
M  V30 6622 C 622.051 -0.831806 -1.83749 0
M  V30 6623 C 622.364 0.644763 -1.84668 0
M  V30 6624 O 623.57 1.02697 -2.51327 0
M  V30 6625 C 622.026 -1.43817 -3.29916 0
M  V30 6626 C 621.634 -2.94759 -3.37374 0
M  V30 6627 C 623.378 -1.25077 -4.05655 0
M  V30 6628 C 621.285 -3.48461 -4.77838 0
M  V30 6629 H 620.215 -0.30751 -0.688443 0
M  V30 6630 H 622.866 -1.32156 -1.27307 0
M  V30 6631 H 621.248 -0.876106 -3.86187 0
M  V30 6632 H 622.422 -3.57228 -2.91076 0
M  V30 6633 H 620.737 -3.12581 -2.75103 0
M  V30 6634 H 623.334 -1.62649 -5.09362 0
M  V30 6635 H 623.677 -0.191782 -4.15858 0
M  V30 6636 H 624.21 -1.78057 -3.55725 0
M  V30 6637 H 620.949 -4.53998 -4.72828 0
M  V30 6638 H 620.469 -2.90757 -5.24615 0
M  V30 6639 H 622.148 -3.45914 -5.46766 0
M  V30 6640 N 622.28 1.30327 -0.886154 0
M  V30 6641 C 623.227 2.28099 -0.352069 0
M  V30 6642 C 624.197 1.56433 0.558397 0
M  V30 6643 O 625.382 1.84492 0.486561 0
M  V30 6644 C 622.522 3.42456 0.426346 0
M  V30 6645 C 621.635 4.28938 -0.513472 0
M  V30 6646 C 620.77 5.30458 0.280657 0
M  V30 6647 C 619.809 6.0859 -0.654556 0
M  V30 6648 N 618.946 7.02022 0.104322 0
M  V30 6649 H 623.786 2.73166 -1.19097 0
M  V30 6650 H 621.323 1.34367 -0.598662 0
M  V30 6651 H 623.281 4.07518 0.893587 0
M  V30 6652 H 621.911 2.98455 1.22981 0
M  V30 6653 H 620.963 3.64173 -1.09921 0
M  V30 6654 H 622.275 4.83399 -1.2299 0
M  V30 6655 H 621.429 6.01273 0.8097 0
M  V30 6656 H 620.168 4.76693 1.03029 0
M  V30 6657 H 619.173 5.36651 -1.19522 0
M  V30 6658 H 620.398 6.64443 -1.4033 0
M  V30 6659 H 618.344 6.50645 0.836472 0
M  V30 6660 H 618.261 7.53979 -0.552453 0
M  V30 6661 H 619.529 7.77077 0.614069 0
M  V30 6662 N 623.758 0.647228 1.43697 0
M  V30 6663 C 625.007 0.155552 2.01099 0
M  V30 6664 C 625.32 -1.23569 1.51624 0
M  V30 6665 O 626.526 -1.82226 2.01261 0
M  V30 6666 C 624.982 0.227296 3.59182 0
M  V30 6667 C 624.59 1.62086 4.17651 0
M  V30 6668 C 626.334 -0.207085 4.23995 0
M  V30 6669 C 624.241 1.64685 5.68008 0
M  V30 6670 H 623.171 0.0543895 0.752036 0
M  V30 6671 H 625.822 0.808386 1.64734 0
M  V30 6672 H 624.204 -0.492937 3.9292 0
M  V30 6673 H 625.378 2.36597 3.95422 0
M  V30 6674 H 623.693 2.0007 3.65186 0
M  V30 6675 H 626.29 -0.207426 5.34298 0
M  V30 6676 H 626.633 -1.23742 3.97484 0
M  V30 6677 H 627.166 0.461193 3.95118 0
M  V30 6678 H 623.905 2.65608 5.99277 0
M  V30 6679 H 623.425 0.944914 5.9231 0
M  V30 6680 H 625.104 1.38792 6.31938 0
M  V30 6681 N 625.236 -1.5273 0.388769 0
M  V30 6682 C 626.485 -2.00757 -0.194833 0
M  V30 6683 C 626.798 -1.27951 -1.47946 0
M  V30 6684 O 628.004 -1.66686 -2.14308 0
M  V30 6685 C 626.46 -3.57695 -0.397762 0
M  V30 6686 C 626.068 -4.394 0.873583 0
M  V30 6687 C 627.812 -4.14012 -0.937759 0
M  V30 6688 C 625.719 -5.87938 0.638962 0
M  V30 6689 H 624.649 -0.750101 -0.0765845 0
M  V30 6690 H 627.3 -1.76239 0.511086 0
M  V30 6691 H 625.682 -3.7846 -1.16552 0
M  V30 6692 H 626.856 -4.30403 1.64591 0
M  V30 6693 H 625.171 -3.94301 1.33849 0
M  V30 6694 H 627.768 -5.22645 -1.12899 0
M  V30 6695 H 628.111 -3.7007 -1.90666 0
M  V30 6696 H 628.644 -3.97137 -0.229588 0
M  V30 6697 H 625.383 -6.36202 1.57885 0
M  V30 6698 H 624.903 -5.99726 -0.094443 0
M  V30 6699 H 626.582 -6.46423 0.273299 0
M  V30 6700 N 626.714 -0.118576 -1.57153 0
M  V30 6701 C 627.624 0.845484 -2.18835 0
M  V30 6702 C 628.64 1.29299 -1.16438 0
M  V30 6703 O 629.816 1.35607 -1.48905 0
M  V30 6704 C 626.881 2.07795 -2.77529 0
M  V30 6705 C 625.942 1.6824 -3.9496 0
M  V30 6706 C 625.175 2.85612 -4.50845 0
M  V30 6707 O 625.398 4.01025 -4.05629 0
M  V30 6708 O 624.332 2.62721 -5.41536 0
M  V30 6709 H 628.158 0.350568 -3.0167 0
M  V30 6710 H 625.743 0.107013 -1.49016 0
M  V30 6711 H 627.625 2.79978 -3.14945 0
M  V30 6712 H 626.3 2.56294 -1.97725 0
M  V30 6713 H 625.207 0.931663 -3.62313 0
M  V30 6714 H 626.54 1.24484 -4.76198 0
M  V30 6715 N 628.193 1.56834 0.155195 0
M  V30 6716 C 629.143 1.94061 1.19684 0
M  V30 6717 C 630.127 0.810851 1.38975 0
M  V30 6718 O 631.319 1.07422 1.40675 0
M  V30 6719 C 628.448 2.31778 2.53247 0
M  V30 6720 C 627.534 3.51305 2.37583 0
M  V30 6721 N 627.925 4.68081 1.9166 0
M  V30 6722 C 626.223 3.56228 2.6836 0
M  V30 6723 C 626.924 5.50193 1.88845 0
M  V30 6724 N 625.9 4.91676 2.31852 0
M  V30 6725 H 629.702 2.81826 0.833747 0
M  V30 6726 H 627.216 1.58284 0.363328 0
M  V30 6727 H 629.213 2.56649 3.28538 0
M  V30 6728 H 627.873 1.4536 2.90346 0
M  V30 6729 H 628.884 4.91993 1.6175 0
M  V30 6730 H 625.561 2.8033 3.09389 0
M  V30 6731 H 626.951 6.53801 1.54901 0
M  V30 6732 N 629.671 -0.424282 1.51781 0
M  V30 6733 C 630.896 -1.19928 1.6921 0
M  V30 6734 C 631.321 -1.8392 0.394355 0
M  V30 6735 O 630.679 -1.69371 -0.646778 0
M  V30 6736 C 630.727 -2.24937 2.81843 0
M  V30 6737 O 629.831 -3.3073 2.46356 0
M  V30 6738 H 629.172 -0.35078 0.563781 0
M  V30 6739 H 631.702 -0.499401 1.98412 0
M  V30 6740 H 631.712 -2.69512 3.06312 0
M  V30 6741 H 630.387 -1.77742 3.76006 0
M  V30 6742 H 628.964 -2.9154 2.32505 0
M  V30 6743 N 631.149 -1.42148 -0.680565 0
M  V30 6744 C 632.096 -1.45175 -1.79424 0
M  V30 6745 C 633.066 -0.304352 -1.63288 0
M  V30 6746 O 634.251 -0.507591 -1.83924 0
M  V30 6747 C 631.391 -1.35429 -3.17416 0
M  V30 6748 C 630.504 -2.60158 -3.4488 0
M  V30 6749 C 629.639 -2.42596 -4.72568 0
M  V30 6750 C 628.678 -3.62727 -4.93047 0
M  V30 6751 N 627.815 -3.44143 -6.11973 0
M  V30 6752 H 632.655 -2.40349 -1.76172 0
M  V30 6753 H 630.192 -1.19334 -0.860107 0
M  V30 6754 H 632.15 -1.27777 -3.97151 0
M  V30 6755 H 630.78 -0.438536 -3.19807 0
M  V30 6756 H 629.832 -2.78199 -2.5944 0
M  V30 6757 H 631.144 -3.49473 -3.55908 0
M  V30 6758 H 630.298 -2.32497 -5.60384 0
M  V30 6759 H 629.037 -1.50761 -4.63813 0
M  V30 6760 H 628.042 -3.73264 -4.03676 0
M  V30 6761 H 629.267 -4.55534 -5.03652 0
M  V30 6762 H 627.213 -2.5502 -6.04401 0
M  V30 6763 H 627.13 -4.27041 -6.23836 0
M  V30 6764 H 628.398 -3.37845 -7.02482 0
M  V30 6765 N 632.627 0.916307 -1.28225 0
M  V30 6766 C 633.874 1.66518 -1.1523 0
M  V30 6767 C 634.202 1.92178 0.299632 0
M  V30 6768 O 633.457 1.51842 1.2346 0
M  V30 6769 C 633.756 3.03125 -1.8934 0
M  V30 6770 C 633.422 2.97135 -3.39148 0
M  V30 6771 C 632.084 2.95208 -3.80007 0
M  V30 6772 C 634.436 2.87574 -4.34685 0
M  V30 6773 C 631.764 2.81518 -5.14747 0
M  V30 6774 C 634.116 2.75424 -5.69495 0
M  V30 6775 C 632.78 2.71854 -6.09632 0
M  V30 6776 H 632.05 0.609334 -0.421655 0
M  V30 6777 H 634.697 1.06776 -1.58969 0
M  V30 6778 H 633.002 3.66639 -1.38143 0
M  V30 6779 H 634.699 3.59968 -1.76704 0
M  V30 6780 H 631.289 2.99428 -3.06661 0
M  V30 6781 H 635.473 2.88152 -4.04082 0
M  V30 6782 H 630.729 2.77148 -5.44976 0
M  V30 6783 H 634.903 2.66993 -6.43185 0
M  V30 6784 H 632.53 2.61003 -7.1399 0
M  V30 6785 N 634.105 1.10431 1.1244 0
M  V30 6786 C 635.333 0.868872 1.87772 0
M  V30 6787 C 635.748 -0.580645 1.7965 0
M  V30 6788 O 635.105 -1.40031 1.17036 0
M  V30 6789 C 635.156 1.30855 3.36986 0
M  V30 6790 O 634.877 2.70123 3.44914 0
M  V30 6791 C 636.378 1.107 4.29256 0
M  V30 6792 H 633.598 0.311868 0.59412 0
M  V30 6793 H 636.142 1.46897 1.42273 0
M  V30 6794 H 634.297 0.752126 3.80029 0
M  V30 6795 H 634.711 2.88923 4.37748 0
M  V30 6796 H 636.185 1.46378 5.32238 0
M  V30 6797 H 636.662 0.0456228 4.39176 0
M  V30 6798 H 637.268 1.64988 3.91994 0
M  V30 6799 N 635.583 -1.29855 0.893053 0
M  V30 6800 C 636.823 -1.97612 0.522399 0
M  V30 6801 C 637.187 -1.68903 -0.913 0
M  V30 6802 O 638.388 -2.30059 -1.39019 0
M  V30 6803 C 636.659 -3.48356 0.79893 0
M  V30 6804 S 638.218 -4.35568 0.531588 0
M  V30 6805 H 635.036 -0.684005 0.194058 0
M  V30 6806 H 637.638 -1.57803 1.15406 0
M  V30 6807 H 636.342 -3.66743 1.84196 0
M  V30 6808 H 635.873 -3.93094 0.155133 0
M  V30 6809 H 637.888 -4.92232 -0.626295 0
M  V30 6810 N 637.061 -0.65484 -1.43351 0
M  V30 6811 C 638.309 -0.168559 -2.01396 0
M  V30 6812 C 638.63 1.22235 -1.51933 0
M  V30 6813 O 637.9 1.81685 -0.732627 0
M  V30 6814 H 636.48 -0.0593244 -0.744641 0
M  V30 6815 H 639.142 -0.846871 -1.75539 0
M  V30 6816 H 638.238 -0.154428 -3.11718 0
M  V30 6817 N 638.539 1.52521 -0.396863 0
M  V30 6818 C 639.785 2.01971 0.183169 0
M  V30 6819 C 640.118 1.2825 1.45827 0
M  V30 6820 O 639.393 0.385179 1.90648 0
M  V30 6821 C 639.676 3.5736 0.443391 0
M  V30 6822 C 639.529 4.41743 -0.84753 0
M  V30 6823 C 640.848 4.22539 1.2308 0
M  V30 6824 H 637.967 0.734119 0.0650976 0
M  V30 6825 H 640.609 1.82519 -0.527918 0
M  V30 6826 H 638.759 3.74066 1.04914 0
M  V30 6827 H 640.431 4.36773 -1.48414 0
M  V30 6828 H 638.674 4.0845 -1.4612 0
M  V30 6829 H 639.345 5.48507 -0.620003 0
M  V30 6830 H 641.821 4.09857 0.718084 0
M  V30 6831 H 640.697 5.31227 1.38162 0
M  V30 6832 H 640.958 3.80675 2.24808 0
M  V30 6833 N 640.017 0.126909 1.57088 0
M  V30 6834 C 641.294 -0.573152 1.87014 0
M  V30 6835 C 641.674 -1.84297 1.02945 0
M  V30 6836 O 641.022 -2.28232 0.110573 0
M  V30 6837 C 641.232 -0.857984 3.38289 0
M  V30 6838 C 642.58 -1.20759 4.07066 0
M  V30 6839 O 643.604 -0.947992 3.43353 0
M  V30 6840 O 642.463 -1.69516 5.19545 0
M  V30 6841 H 639.557 -0.290082 0.774456 0
M  V30 6842 H 642.103 0.162008 1.68925 0
M  V30 6843 H 640.875 0.0415286 3.91278 0
M  V30 6844 H 640.498 -1.64803 3.61837 0
M  V30 6845 N 641.495 -1.56914 -0.146875 0
M  V30 6846 C 642.743 -1.82994 -0.85777 0
M  V30 6847 C 643.064 -0.707814 -1.817 0
M  V30 6848 O 642.334 0.270521 -1.94023 0
M  V30 6849 H 640.914 -0.675106 -0.319751 0
M  V30 6850 H 643.576 -1.9439 -0.140849 0
M  V30 6851 H 642.672 -2.77928 -1.41994 0
M  V30 6852 N 642.974 0.416227 -1.52004 0
M  V30 6853 C 644.199 1.19029 -1.69843 0
M  V30 6854 C 644.624 1.83708 -0.404103 0
M  V30 6855 O 643.982 1.69711 0.637787 0
M  V30 6856 C 644.03 2.23439 -2.83032 0
M  V30 6857 O 643.134 3.29419 -2.48106 0
M  V30 6858 H 642.475 0.347785 -0.565634 0
M  V30 6859 H 645.005 0.488871 -1.98674 0
M  V30 6860 H 645.015 2.67884 -3.07737 0
M  V30 6861 H 643.69 1.75745 -3.76944 0
M  V30 6862 H 642.267 2.90303 -2.34048 0
M  V30 6863 N 644.452 1.42507 0.673017 0
M  V30 6864 C 645.382 1.48916 1.79851 0
M  V30 6865 C 646.363 0.345566 1.66553 0
M  V30 6866 O 647.548 0.560116 1.85947 0
M  V30 6867 C 644.678 1.39258 3.18158 0
M  V30 6868 C 643.632 2.51662 3.46194 0
M  V30 6869 C 642.958 2.27062 4.84094 0
M  V30 6870 C 644.258 3.93968 3.42909 0
M  V30 6871 H 645.952 2.43114 1.74745 0
M  V30 6872 H 643.498 1.17013 0.839288 0
M  V30 6873 H 645.451 1.42349 3.96629 0
M  V30 6874 H 644.175 0.415542 3.23946 0
M  V30 6875 H 642.834 2.47891 2.70084 0
M  V30 6876 H 642.482 1.27648 4.86534 0
M  V30 6877 H 642.182 3.02398 5.03815 0
M  V30 6878 H 643.706 2.31905 5.64847 0
M  V30 6879 H 645.12 3.99332 4.11347 0
M  V30 6880 H 643.517 4.6917 3.74165 0
M  V30 6881 H 644.587 4.20512 2.41449 0
M  V30 6882 N 645.93 -0.909495 1.28709 0
M  V30 6883 C 647.177 -1.65905 1.16111 0
M  V30 6884 C 647.505 -1.92334 -0.289436 0
M  V30 6885 O 646.76 -1.52495 -1.22653 0
M  V30 6886 C 647.059 -3.02117 1.90945 0
M  V30 6887 C 646.725 -2.95332 3.40719 0
M  V30 6888 C 645.387 -2.93189 3.81567 0
M  V30 6889 C 647.739 -2.85264 4.36204 0
M  V30 6890 C 645.067 -2.78784 5.16233 0
M  V30 6891 C 647.419 -2.724 5.70948 0
M  V30 6892 C 646.083 -2.68617 6.11066 0
M  V30 6893 H 645.353 -0.60709 0.42488 0
M  V30 6894 H 648 -1.05932 1.59533 0
M  V30 6895 H 646.305 -3.65901 1.40085 0
M  V30 6896 H 648.002 -3.59026 1.7861 0
M  V30 6897 H 644.592 -2.97797 3.08245 0
M  V30 6898 H 648.776 -2.86005 4.05605 0
M  V30 6899 H 644.032 -2.74254 5.46438 0
M  V30 6900 H 648.206 -2.63579 6.44592 0
M  V30 6901 H 645.833 -2.57213 7.15364 0
M  V30 6902 N 647.408 -1.11026 -1.11852 0
M  V30 6903 C 648.654 -0.857729 -1.83768 0
M  V30 6904 C 648.987 0.615143 -1.842 0
M  V30 6905 O 648.262 1.45391 -1.29196 0
M  V30 6906 C 648.545 -1.41453 -3.31154 0
M  V30 6907 C 648.398 -2.95471 -3.39142 0
M  V30 6908 C 649.717 -1.0619 -4.27097 0
M  V30 6909 H 646.836 -0.313044 -0.667212 0
M  V30 6910 H 649.478 -1.37443 -1.31185 0
M  V30 6911 H 647.628 -0.975052 -3.76065 0
M  V30 6912 H 649.3 -3.4799 -3.02821 0
M  V30 6913 H 647.543 -3.31759 -2.79497 0
M  V30 6914 H 648.214 -3.29515 -4.42859 0
M  V30 6915 H 650.69 -1.44122 -3.90344 0
M  V30 6916 H 649.566 -1.47832 -5.28618 0
M  V30 6917 H 649.827 0.0278912 -4.42091 0
M  V30 6918 N 648.886 1.2938 -0.899927 0
M  V30 6919 C 649.833 2.27713 -0.376243 0
M  V30 6920 C 650.803 1.57016 0.541774 0
M  V30 6921 O 651.988 1.84997 0.466966 0
M  V30 6922 C 649.128 3.42889 0.39 0
M  V30 6923 C 648.241 4.28369 -0.558938 0
M  V30 6924 C 647.376 5.30726 0.224379 0
M  V30 6925 C 646.415 6.07862 -0.719068 0
M  V30 6926 N 645.552 7.02094 0.0298569 0
M  V30 6927 H 650.392 2.71888 -1.21988 0
M  V30 6928 H 647.929 1.33724 -0.612879 0
M  V30 6929 H 649.887 4.08443 0.850314 0
M  V30 6930 H 648.517 2.99743 1.19809 0
M  V30 6931 H 647.569 3.62986 -1.13777 0
M  V30 6932 H 648.881 4.82068 -1.2811 0
M  V30 6933 H 648.035 6.02098 0.745881 0
M  V30 6934 H 646.774 4.77759 0.979674 0
M  V30 6935 H 645.779 5.35353 -1.25207 0
M  V30 6936 H 647.004 6.62917 -1.4737 0
M  V30 6937 H 644.95 6.51496 0.767415 0
M  V30 6938 H 644.867 7.5335 -0.632391 0
M  V30 6939 H 646.135 7.77685 0.531615 0
M  V30 6940 N 650.364 0.662433 1.43002 0
M  V30 6941 C 651.312 -0.035345 2.32573 0
M  V30 6942 C 652.306 -0.803505 1.49131 0
M  V30 6943 O 653.512 -0.712865 1.65282 0
M  V30 6944 H 649.887 -0.0302194 0.751393 0
M  V30 6945 H 651.858 0.737686 2.89138 0
M  V30 6946 C 650.607 -0.981575 3.33557 0
M  V30 6947 H 649.93 -0.399914 3.97795 0
M  V30 6948 H 651.37 -1.43873 3.98844 0
M  V30 6949 C 649.829 -2.08204 2.64863 0
M  V30 6950 O 650.359 -3.16698 2.47113 0
M  V30 6951 N 648.565 -1.85022 2.24088 0
M  V30 6952 H 648.112 -0.967909 2.38724 0
M  V30 6953 H 648.07 -2.58845 1.78457 0
M  V30 6954 N 651.842 -1.52309 0.404946 0
M  V30 6955 C 652.805 -2.25491 -0.410651 0
M  V30 6956 C 653.805 -1.27704 -0.977154 0
M  V30 6957 O 654.995 -1.51679 -0.856691 0
M  V30 6958 C 652.127 -3.02197 -1.57765 0
M  V30 6959 H 653.32 -2.99015 0.230277 0
M  V30 6960 H 650.873 -1.55506 0.157377 0
M  V30 6961 H 651.608 -2.33013 -2.25556 0
M  V30 6962 H 651.393 -3.73987 -1.17797 0
M  V30 6963 H 652.883 -3.57719 -2.15469 0
M  V30 6964 N 653.32 -0.135238 -1.57019 0
M  V30 6965 C 654.566 0.513232 -1.96818 0
M  V30 6966 C 654.921 1.63245 -1.01827 0
M  V30 6967 O 654.214 1.91532 -0.0511756 0
M  V30 6968 C 654.408 1.07694 -3.40788 0
M  V30 6969 C 654.237 0.0138667 -4.49698 0
M  V30 6970 C 653.007 -0.423532 -5.03522 0
M  V30 6971 C 655.205 -0.77322 -5.08454 0
M  V30 6972 N 653.187 -1.47068 -5.96024 0
M  V30 6973 C 654.558 -1.67115 -5.97053 0
M  V30 6974 C 656.613 -0.822313 -4.91063 0
M  V30 6975 C 655.316 -2.61395 -6.70123 0
M  V30 6976 C 657.342 -1.75288 -5.64826 0
M  V30 6977 C 656.704 -2.63836 -6.53123 0
M  V30 6978 H 652.803 0.156956 -0.766087 0
M  V30 6979 H 655.387 -0.227118 -1.93371 0
M  V30 6980 H 653.558 1.78694 -3.44852 0
M  V30 6981 H 655.29 1.69106 -3.67675 0
M  V30 6982 H 652.045 -0.0280202 -4.73592 0
M  V30 6983 H 652.469 -1.99366 -6.46979 0
M  V30 6984 H 657.111 -0.151822 -4.22527 0
M  V30 6985 H 654.829 -3.2945 -7.37895 0
M  V30 6986 H 658.415 -1.79652 -5.53368 0
M  V30 6987 H 657.295 -3.34672 -7.092 0
M  V30 6988 N 654.798 1.5699 0.138552 0
M  V30 6989 C 656.028 1.87704 0.863184 0
M  V30 6990 C 656.436 0.722411 1.74865 0
M  V30 6991 O 655.779 -0.316636 1.80951 0
M  V30 6992 C 655.841 3.13219 1.76449 0
M  V30 6993 C 655.505 4.44648 1.05532 0
M  V30 6994 C 656.502 5.18318 0.405252 0
M  V30 6995 C 654.187 4.91367 1.04231 0
M  V30 6996 C 656.181 6.36916 -0.24835 0
M  V30 6997 C 653.868 6.09887 0.384904 0
M  V30 6998 C 654.866 6.82508 -0.259292 0
M  V30 6999 O 654.554 7.98775 -0.906258 0
M  V30 7000 H 654.286 0.626255 0.254521 0
M  V30 7001 H 656.84 2.04966 0.133472 0
M  V30 7002 H 655.07 2.91988 2.53535 0
M  V30 7003 H 656.759 3.30111 2.36181 0
M  V30 7004 H 657.525 4.83289 0.407053 0
M  V30 7005 H 653.404 4.34759 1.53315 0
M  V30 7006 H 656.948 6.93538 -0.751755 0
M  V30 7007 H 652.845 6.44376 0.380799 0
M  V30 7008 H 653.613 8.14494 -0.80877 0
M  V30 7009 N 656.276 -0.40816 1.52223 0
M  V30 7010 C 657.516 -1.16418 1.68006 0
M  V30 7011 C 657.88 -1.87749 0.401793 0
M  V30 7012 O 659.081 -2.65245 0.435743 0
M  V30 7013 C 657.352 -2.13143 2.86889 0
M  V30 7014 S 658.911 -2.96839 3.2316 0
M  V30 7015 H 655.729 -0.394373 0.5916 0
M  V30 7016 H 658.331 -0.451349 1.90219 0
M  V30 7017 H 657.035 -1.59428 3.78168 0
M  V30 7018 H 656.566 -2.88963 2.66953 0
M  V30 7019 H 658.581 -4.151 2.71857 0
M  V30 7020 N 657.755 -1.42862 -0.66545 0
M  V30 7021 C 658.702 -1.4707 -1.77874 0
M  V30 7022 C 659.672 -0.321654 -1.62956 0
M  V30 7023 O 660.857 -0.52707 -1.83376 0
M  V30 7024 C 657.997 -1.38788 -3.15962 0
M  V30 7025 C 657.11 -2.63801 -3.42101 0
M  V30 7026 C 656.245 -2.47594 -4.69969 0
M  V30 7027 C 655.284 -3.67936 -4.89172 0
M  V30 7028 N 654.421 -3.50614 -6.08288 0
M  V30 7029 H 659.261 -2.42204 -1.73613 0
M  V30 7030 H 656.798 -1.20239 -0.847401 0
M  V30 7031 H 658.756 -1.31982 -3.95773 0
M  V30 7032 H 657.386 -0.472431 -3.19324 0
M  V30 7033 H 656.438 -2.80935 -2.56475 0
M  V30 7034 H 657.75 -3.53228 -3.52181 0
M  V30 7035 H 656.904 -2.38427 -5.57886 0
M  V30 7036 H 655.643 -1.55672 -4.62188 0
M  V30 7037 H 654.648 -3.77525 -3.99694 0
M  V30 7038 H 655.873 -4.60851 -4.98792 0
M  V30 7039 H 653.819 -2.61417 -6.01662 0
M  V30 7040 H 653.736 -4.33634 -6.19272 0
M  V30 7041 H 655.004 -3.45276 -6.98859 0
M  V30 7042 N 659.233 0.902656 -1.29189 0
M  V30 7043 C 660.649 1.18296 -1.07137 0
M  V30 7044 C 660.849 2.00701 0.179223 0
M  V30 7045 O 659.905 2.3675 0.877812 0
M  V30 7046 C 661.218 1.90677 -2.32514 0
M  V30 7047 C 662.766 2.03515 -2.37804 0
M  V30 7048 C 663.241 2.79307 -3.62976 0
M  V30 7049 N 664.732 2.86862 -3.63681 0
M  V30 7050 C 665.467 3.46035 -4.57217 0
M  V30 7051 N 664.963 4.06399 -5.61081 0
M  V30 7052 N 666.756 3.43681 -4.44792 0
M  V30 7053 H 658.907 0.352765 -2.0945 0
M  V30 7054 H 661.17 0.21876 -0.922414 0
M  V30 7055 H 660.876 1.3756 -3.23682 0
M  V30 7056 H 660.75 2.91169 -2.39793 0
M  V30 7057 H 663.137 2.55809 -1.47125 0
M  V30 7058 H 663.218 1.02166 -2.34512 0
M  V30 7059 H 662.862 2.2769 -4.54004 0
M  V30 7060 H 662.792 3.80995 -3.63525 0
M  V30 7061 H 665.283 2.43987 -2.88581 0
M  V30 7062 H 665.596 4.49564 -6.2858 0
M  V30 7063 H 663.941 4.0487 -5.64894 0
M  V30 7064 H 667.132 2.9574 -3.62843 0
M  V30 7065 H 667.305 3.89503 -5.17872 0
M  V30 7066 N 660.711 1.11618 1.11262 0
M  V30 7067 C 661.641 0.79846 2.19424 0
M  V30 7068 C 662.622 -0.234003 1.68483 0
M  V30 7069 O 663.807 -0.0970704 1.93957 0
M  V30 7070 C 660.937 0.242892 3.4645 0
M  V30 7071 C 659.891 1.20744 4.10615 0
M  V30 7072 C 659.217 0.512494 5.32238 0
M  V30 7073 C 660.517 2.55884 4.55325 0
M  V30 7074 H 662.211 1.70286 2.46258 0
M  V30 7075 H 659.757 0.820195 1.18359 0
M  V30 7076 H 661.71 0.00840447 4.21399 0
M  V30 7077 H 660.434 -0.696811 3.1908 0
M  V30 7078 H 659.093 1.42759 3.37662 0
M  V30 7079 H 658.741 -0.432075 5.01141 0
M  V30 7080 H 658.441 1.15583 5.7612 0
M  V30 7081 H 659.965 0.286842 6.09926 0
M  V30 7082 H 661.379 2.37946 5.21588 0
M  V30 7083 H 659.776 3.16216 5.10027 0
M  V30 7084 H 660.846 3.14968 3.68678 0
M  V30 7085 N 662.189 -1.289 0.906776 0
M  V30 7086 C 663.121 -2.26556 0.347159 0
M  V30 7087 C 664.134 -1.54589 -0.51049 0
M  V30 7088 O 665.323 -1.75489 -0.326501 0
M  V30 7089 C 662.423 -3.3484 -0.523024 0
M  V30 7090 C 661.596 -4.36296 0.310515 0
M  V30 7091 C 660.655 -5.23879 -0.493634 0
M  V30 7092 O 659.681 -5.69127 0.0913569 0
M  V30 7093 N 660.883 -5.51946 -1.7982 0
M  V30 7094 H 663.648 -2.75212 1.18652 0
M  V30 7095 H 661.209 -1.42309 0.771996 0
M  V30 7096 H 663.201 -3.90366 -1.06756 0
M  V30 7097 H 661.771 -2.85946 -1.26309 0
M  V30 7098 H 660.991 -3.80331 1.03644 0
M  V30 7099 H 662.279 -5.01113 0.881106 0
M  V30 7100 H 661.677 -5.17006 -2.2961 0
M  V30 7101 H 660.234 -6.10258 -2.28971 0
M  V30 7102 N 663.667 -0.670007 -1.42649 0
M  V30 7103 C 664.577 0.0114788 -2.34597 0
M  V30 7104 C 665.593 0.794055 -1.54825 0
M  V30 7105 O 666.769 0.737472 -1.87412 0
M  V30 7106 C 663.834 0.954436 -3.33304 0
M  V30 7107 C 662.895 0.166925 -4.28975 0
M  V30 7108 C 662.128 1.06497 -5.22967 0
M  V30 7109 O 662.351 2.30446 -5.21777 0
M  V30 7110 O 661.285 0.528347 -5.99577 0
M  V30 7111 H 665.111 -0.745794 -2.944 0
M  V30 7112 H 662.696 -0.430228 -1.43071 0
M  V30 7113 H 664.578 1.49589 -3.93956 0
M  V30 7114 H 663.253 1.69164 -2.7598 0
M  V30 7115 H 662.16 -0.418515 -3.71752 0
M  V30 7116 H 663.493 -0.531067 -4.89327 0
M  V30 7117 N 665.145 1.52092 -0.413018 0
M  V30 7118 C 666.095 2.23947 0.427993 0
M  V30 7119 C 667.079 1.25229 1.01027 0
M  V30 7120 O 668.271 1.50448 0.932444 0
M  V30 7121 C 665.4 3.0672 1.542 0
M  V30 7122 C 664.486 4.12851 0.970307 0
M  V30 7123 N 664.877 5.05644 0.125611 0
M  V30 7124 C 663.175 4.28404 1.24042 0
M  V30 7125 C 663.876 5.8138 -0.192876 0
M  V30 7126 N 662.852 5.41996 0.417273 0
M  V30 7127 H 666.654 2.93048 -0.223628 0
M  V30 7128 H 664.168 1.60852 -0.223664 0
M  V30 7129 H 666.165 3.56754 2.15714 0
M  V30 7130 H 664.825 2.39159 2.19621 0
M  V30 7131 H 665.836 5.17348 -0.238995 0
M  V30 7132 H 662.513 3.72071 1.89391 0
M  V30 7133 H 663.903 6.66129 -0.878762 0
M  V30 7134 N 666.623 0.143563 1.56945 0
M  V30 7135 C 667.553 -0.7936 2.196 0
M  V30 7136 C 668.534 -1.25955 1.14321 0
M  V30 7137 O 669.719 -1.31773 1.42651 0
M  V30 7138 C 666.849 -2.03424 2.81489 0
M  V30 7139 C 665.803 -1.70519 3.92565 0
M  V30 7140 C 665.129 -3.01817 4.41373 0
M  V30 7141 C 666.429 -0.95449 5.13504 0
M  V30 7142 H 668.123 -0.271423 2.98167 0
M  V30 7143 H 665.669 -0.12911 1.4342 0
M  V30 7144 H 667.622 -2.69463 3.23987 0
M  V30 7145 H 666.346 -2.58008 2.00248 0
M  V30 7146 H 665.005 -1.06859 3.5068 0
M  V30 7147 H 664.653 -3.54386 3.56959 0
M  V30 7148 H 664.353 -2.80565 5.16292 0
M  V30 7149 H 665.877 -3.68934 4.86539 0
M  V30 7150 H 667.291 -1.5169 5.52868 0
M  V30 7151 H 665.688 -0.842035 5.94163 0
M  V30 7152 H 666.758 0.0544033 4.84869 0
M  V30 7153 N 668.101 -1.57061 -0.130224 0
M  V30 7154 C 669.048 -1.99517 -1.16024 0
M  V30 7155 C 670.018 -0.865452 -1.41771 0
M  V30 7156 O 671.203 -1.12882 -1.53826 0
M  V30 7157 C 668.343 -2.3951 -2.48453 0
M  V30 7158 C 667.456 -3.65848 -2.29737 0
M  V30 7159 C 666.591 -3.9487 -3.55318 0
M  V30 7160 C 665.63 -5.14426 -3.31711 0
M  V30 7161 N 664.767 -5.39375 -4.49466 0
M  V30 7162 H 669.607 -2.87305 -0.791194 0
M  V30 7163 H 667.144 -1.42129 -0.379195 0
M  V30 7164 H 669.102 -2.60731 -3.25692 0
M  V30 7165 H 667.732 -1.54779 -2.83272 0
M  V30 7166 H 666.784 -3.52307 -1.4347 0
M  V30 7167 H 668.096 -4.53241 -2.08263 0
M  V30 7168 H 667.25 -4.16679 -4.4098 0
M  V30 7169 H 665.989 -3.05931 -3.79813 0
M  V30 7170 H 664.994 -4.92473 -2.44439 0
M  V30 7171 H 666.219 -6.04933 -3.08598 0
M  V30 7172 H 664.165 -4.53391 -4.74102 0
M  V30 7173 H 664.082 -6.21069 -4.31055 0
M  V30 7174 H 665.35 -5.65694 -5.36293 0
M  V30 7175 N 669.579 0.400081 -1.52437 0
M  V30 7176 C 670.825 1.14788 -1.67187 0
M  V30 7177 C 671.158 1.89928 -0.405074 0
M  V30 7178 O 670.433 1.85118 0.596804 0
M  V30 7179 C 670.716 2.13507 -2.89977 0
M  V30 7180 C 670.569 1.42204 -4.2673 0
M  V30 7181 C 671.888 3.14069 -3.083 0
M  V30 7182 H 669.007 0.415939 -0.608411 0
M  V30 7183 H 671.649 0.432542 -1.85011 0
M  V30 7184 H 669.799 2.7451 -2.74912 0
M  V30 7185 H 671.471 0.842503 -4.53541 0
M  V30 7186 H 669.714 0.723939 -4.27717 0
M  V30 7187 H 670.385 2.14281 -5.08712 0
M  V30 7188 H 672.861 2.63148 -3.22323 0
M  V30 7189 H 671.737 3.80398 -3.95713 0
M  V30 7190 H 671.998 3.82309 -2.22018 0
M  V30 7191 N 671.057 1.43213 0.657864 0
M  V30 7192 C 672.306 1.43871 1.41365 0
M  V30 7193 C 672.619 0.064898 1.95492 0
M  V30 7194 O 673.825 -0.0510796 2.71452 0
M  V30 7195 C 672.281 2.53158 2.55811 0
M  V30 7196 C 671.889 3.96624 2.08311 0
M  V30 7197 C 673.633 2.63004 3.3321 0
M  V30 7198 C 671.54 4.97385 3.1994 0
M  V30 7199 H 670.47 0.535174 0.531136 0
M  V30 7200 H 673.121 1.69185 0.710543 0
M  V30 7201 H 671.503 2.21037 3.2857 0
M  V30 7202 H 672.677 4.38182 1.42593 0
M  V30 7203 H 670.992 3.90781 1.43804 0
M  V30 7204 H 673.589 3.3546 4.16378 0
M  V30 7205 H 673.932 1.67918 3.80932 0
M  V30 7206 H 674.465 2.94403 2.67529 0
M  V30 7207 H 671.204 5.94007 2.77192 0
M  V30 7208 H 670.724 4.60444 3.84385 0
M  V30 7209 H 672.403 5.19877 3.85145 0
M  V30 7210 N 672.536 -0.895792 1.29666 0
M  V30 7211 C 673.466 -2.01673 1.17688 0
M  V30 7212 C 674.447 -1.69955 0.0701317 0
M  V30 7213 O 675.632 -1.9258 0.250289 0
M  V30 7214 C 672.762 -3.36568 0.856681 0
M  V30 7215 C 671.716 -3.82509 1.92017 0
M  V30 7216 C 671.042 -5.14574 1.4532 0
M  V30 7217 C 672.342 -4.02409 3.32963 0
M  V30 7218 H 674.036 -2.11953 2.11463 0
M  V30 7219 H 671.582 -1.01839 1.01807 0
M  V30 7220 H 673.535 -4.14498 0.759577 0
M  V30 7221 H 672.259 -3.26391 -0.116763 0
M  V30 7222 H 670.918 -3.068 2.00673 0
M  V30 7223 H 670.566 -5.00815 0.468325 0
M  V30 7224 H 670.266 -5.46283 2.16447 0
M  V30 7225 H 671.79 -5.9504 1.36968 0
M  V30 7226 H 673.204 -4.70808 3.27127 0
M  V30 7227 H 671.601 -4.45478 4.02082 0
M  V30 7228 H 672.671 -3.06616 3.75652 0
M  V30 7229 N 674.014 -1.12206 -1.10668 0
M  V30 7230 C 674.977 -0.790867 -2.15123 0
M  V30 7231 C 675.977 0.193618 -1.5963 0
M  V30 7232 O 677.167 -0.0318728 -1.74171 0
M  V30 7233 C 674.299 -0.174797 -3.40452 0
M  V30 7234 H 675.492 -1.7163 -2.45933 0
M  V30 7235 H 673.045 -0.924993 -1.2599 0
M  V30 7236 H 673.78 0.760478 -3.15257 0
M  V30 7237 H 673.565 -0.88358 -3.82015 0
M  V30 7238 H 675.055 0.0405162 -4.1758 0
M  V30 7239 N 675.492 1.28418 -0.913599 0
M  V30 7240 C 676.769 1.89977 -0.465619 0
M  V30 7241 C 677.149 1.82813 1.05559 0
M  V30 7242 O 676.497 1.26397 1.90358 0
M  V30 7243 C 676.707 3.34492 -0.995813 0
M  V30 7244 C 678.055 4.11468 -1.04782 0
M  V30 7245 O 679.079 3.43451 -0.944445 0
M  V30 7246 O 677.938 5.33046 -1.20518 0
M  V30 7247 H 675.032 0.813734 -0.147532 0
M  V30 7248 H 677.578 1.36786 -1.00437 0
M  V30 7249 H 676.35 3.33929 -2.03978 0
M  V30 7250 H 675.973 3.95181 -0.437878 0
M  V30 7251 N 676.97 0.677563 1.42291 0
M  V30 7252 C 677.917 0.000947061 2.308 0
M  V30 7253 C 678.887 -0.789889 1.46116 0
M  V30 7254 O 680.072 -0.761578 1.74942 0
M  V30 7255 C 677.212 -0.942387 3.31984 0
M  V30 7256 C 676.325 -0.14508 4.31756 0
M  V30 7257 C 675.46 -1.08442 5.20013 0
M  V30 7258 C 674.499 -0.278958 6.11464 0
M  V30 7259 N 673.636 -1.17115 6.92263 0
M  V30 7260 H 678.476 0.761521 2.88106 0
M  V30 7261 H 676.013 0.38727 1.41911 0
M  V30 7262 H 677.971 -1.50317 3.89179 0
M  V30 7263 H 676.601 -1.66956 2.76271 0
M  V30 7264 H 675.653 0.532368 3.76656 0
M  V30 7265 H 676.965 0.48015 4.96484 0
M  V30 7266 H 676.119 -1.71504 5.81955 0
M  V30 7267 H 674.858 -1.74353 4.55469 0
M  V30 7268 H 673.863 0.364856 5.48588 0
M  V30 7269 H 675.088 0.376099 6.78058 0
M  V30 7270 H 673.034 -1.81661 6.30345 0
M  V30 7271 H 672.951 -0.601063 7.53607 0
M  V30 7272 H 674.219 -1.78915 7.58689 0
M  V30 7273 N 678.448 -1.51871 0.421078 0
M  V30 7274 C 679.411 -2.25914 -0.386712 0
M  V30 7275 C 680.411 -1.28733 -0.963555 0
M  V30 7276 O 681.601 -1.52579 -0.840556 0
M  V30 7277 C 678.733 -3.03853 -1.54551 0
M  V30 7278 H 679.926 -2.98754 0.261978 0
M  V30 7279 H 677.479 -1.5533 0.173862 0
M  V30 7280 H 678.214 -2.35392 -2.23072 0
M  V30 7281 H 677.999 -3.75215 -1.13824 0
M  V30 7282 H 679.489 -3.59984 -2.11663 0
M  V30 7283 N 679.926 -0.151884 -1.56866 0
M  V30 7284 C 680.836 0.798876 -2.20579 0
M  V30 7285 C 681.852 1.268 -1.19154 0
M  V30 7286 O 683.028 1.32418 -1.51748 0
M  V30 7287 C 680.093 2.01861 -2.81874 0
M  V30 7288 C 679.154 1.59825 -3.9844 0
M  V30 7289 C 678.387 2.75984 -4.56802 0
M  V30 7290 O 678.61 3.92331 -4.14044 0
M  V30 7291 O 677.544 2.51175 -5.46987 0
M  V30 7292 H 681.37 0.2865 -3.02346 0
M  V30 7293 H 678.955 0.0753806 -1.4921 0
M  V30 7294 H 680.837 2.73235 -3.20813 0
M  V30 7295 H 679.512 2.52042 -2.03117 0
M  V30 7296 H 678.419 0.854601 -3.64208 0
M  V30 7297 H 679.752 1.14355 -4.78731 0
M  V30 7298 N 681.404 1.57128 0.121893 0
M  V30 7299 C 682.352 2.01109 1.16868 0
M  V30 7300 C 683.346 0.907532 1.43039 0
M  V30 7301 O 684.552 1.09274 1.43036 0
M  V30 7302 H 680.927 0.640539 0.393971 0
M  V30 7303 H 682.898 2.88261 0.771224 0
M  V30 7304 C 681.647 2.42887 2.48799 0
M  V30 7305 H 680.97 3.2737 2.29498 0
M  V30 7306 H 682.41 2.77461 3.20611 0
M  V30 7307 C 680.869 1.29137 3.11168 0
M  V30 7308 O 681.399 0.605756 3.97106 0
M  V30 7309 N 679.605 1.04916 2.71 0
M  V30 7310 H 679.152 1.60848 2.01211 0
M  V30 7311 H 679.11 0.290016 3.1306 0
M  V30 7312 N 682.882 -0.391992 1.52647 0
M  V30 7313 C 683.812 -1.48517 1.8018 0
M  V30 7314 C 684.793 -1.57039 0.653667 0
M  V30 7315 O 685.978 -1.72036 0.900962 0
M  V30 7316 C 683.108 -2.86161 1.96797 0
M  V30 7317 C 682.062 -2.92481 3.12472 0
M  V30 7318 C 681.388 -4.32546 3.14338 0
M  V30 7319 C 682.688 -2.624 4.51601 0
M  V30 7320 H 684.382 -1.25726 2.71723 0
M  V30 7321 H 681.928 -0.603387 1.30749 0
M  V30 7322 H 683.881 -3.62639 2.14641 0
M  V30 7323 H 682.605 -3.10283 1.01941 0
M  V30 7324 H 681.264 -2.18451 2.94406 0
M  V30 7325 H 680.912 -4.53703 2.1717 0
M  V30 7326 H 680.612 -4.37695 3.92042 0
M  V30 7327 H 682.136 -5.10934 3.34333 0
M  V30 7328 H 683.55 -3.28596 4.69785 0
M  V30 7329 H 681.947 -2.78903 5.3135 0
M  V30 7330 H 683.017 -1.57754 4.58521 0
M  V30 7331 N 684.36 -1.4356 -0.65026 0
M  V30 7332 C 685.609 -1.44619 -1.406 0
M  V30 7333 C 685.922 -0.0752645 -1.95455 0
M  V30 7334 O 687.128 0.0366832 -2.71475 0
M  V30 7335 C 685.584 -2.54511 -2.54465 0
M  V30 7336 C 685.192 -3.97723 -2.06204 0
M  V30 7337 C 686.936 -2.64768 -3.31811 0
M  V30 7338 C 684.843 -4.99075 -3.17298 0
M  V30 7339 H 683.773 -0.537983 -0.52829 0
M  V30 7340 H 686.424 -1.69559 -0.701561 0
M  V30 7341 H 684.806 -2.22777 -3.27393 0
M  V30 7342 H 685.98 -4.38932 -1.40267 0
M  V30 7343 H 684.295 -3.91538 -1.41729 0
M  V30 7344 H 686.892 -3.37664 -4.14593 0
M  V30 7345 H 687.235 -1.69936 -3.80036 0
M  V30 7346 H 687.768 -2.95817 -2.65964 0
M  V30 7347 H 684.507 -5.95469 -2.74038 0
M  V30 7348 H 684.027 -4.62476 -3.81937 0
M  V30 7349 H 685.706 -5.21913 -3.82382 0
M  V30 7350 N 685.838 0.888903 -1.30139 0
M  V30 7351 C 687.087 1.63507 -1.18103 0
M  V30 7352 C 687.4 1.93808 0.264141 0
M  V30 7353 O 688.606 2.66744 0.505966 0
M  V30 7354 C 687.062 2.94673 -2.0663 0
M  V30 7355 C 686.67 2.71926 -3.56034 0
M  V30 7356 C 688.414 3.72626 -2.03346 0
M  V30 7357 C 686.321 3.98884 -4.3663 0
M  V30 7358 H 685.251 0.613426 -0.438435 0
M  V30 7359 H 687.902 0.984427 -1.54859 0
M  V30 7360 H 686.284 3.61009 -1.62754 0
M  V30 7361 H 687.458 2.14116 -4.08033 0
M  V30 7362 H 685.773 2.07353 -3.61101 0
M  V30 7363 H 688.37 4.66775 -2.60816 0
M  V30 7364 H 688.713 4.03712 -1.016 0
M  V30 7365 H 689.246 3.13147 -2.45324 0
M  V30 7366 H 685.985 3.72959 -5.39056 0
M  V30 7367 H 685.505 4.56214 -3.89396 0
M  V30 7368 H 687.184 4.66938 -4.47859 0
M  V30 7369 N 687.317 1.12792 1.10072 0
M  V30 7370 C 688.566 0.880232 1.81479 0
M  V30 7371 C 688.879 -0.595575 1.86312 0
M  V30 7372 O 690.085 -0.959979 2.53962 0
M  V30 7373 C 688.541 1.52514 3.25987 0
M  V30 7374 C 688.149 3.036 3.29441 0
M  V30 7375 C 689.893 1.35788 4.02196 0
M  V30 7376 C 687.8 3.61007 4.68431 0
M  V30 7377 H 686.73 0.325654 0.680048 0
M  V30 7378 H 689.381 1.35485 1.23758 0
M  V30 7379 H 687.763 0.978188 3.83728 0
M  V30 7380 H 688.937 3.64819 2.81502 0
M  V30 7381 H 687.252 3.19765 2.66719 0
M  V30 7382 H 689.849 1.76096 5.0487 0
M  V30 7383 H 690.192 0.301972 4.15203 0
M  V30 7384 H 690.725 1.87426 3.50879 0
M  V30 7385 H 687.464 4.66375 4.60625 0
M  V30 7386 H 686.984 3.04564 5.16721 0
M  V30 7387 H 688.663 3.60289 5.37402 0
M  V30 7388 N 688.795 -1.27931 0.920396 0
M  V30 7389 C 690.206 -1.76707 0.602616 0
M  V30 7390 C 690.557 -1.75249 -0.882159 0
M  V30 7391 O 689.682 -1.35135 -1.69019 0
M  V30 7392 C 690.277 -3.20884 1.08714 0
M  V30 7393 C 688.836 -3.67356 0.820157 0
M  V30 7394 C 687.983 -2.47525 1.25006 0
M  V30 7395 H 690.934 -1.14301 1.10095 0
M  V30 7396 H 690.955 -3.78045 0.431535 0
M  V30 7397 H 690.467 -3.21913 2.1678 0
M  V30 7398 H 688.568 -3.7178 -0.247012 0
M  V30 7399 H 688.681 -4.57181 1.43257 0
M  V30 7400 H 687.045 -2.45765 0.668698 0
M  V30 7401 H 687.828 -2.51269 2.3392 0
M  V30 7402 N 690.273 -0.685099 -1.4193 0
M  V30 7403 C 691.236 -0.0222632 -2.29189 0
M  V30 7404 C 692.236 0.7186 -1.4385 0
M  V30 7405 O 693.426 0.555058 -1.6512 0
M  V30 7406 C 690.558 0.979013 -3.2654 0
M  V30 7407 H 691.751 -0.790424 -2.89296 0
M  V30 7408 H 689.304 -0.448012 -1.49742 0
M  V30 7409 H 690.039 1.77531 -2.71392 0
M  V30 7410 H 689.824 0.451037 -3.89497 0
M  V30 7411 H 691.314 1.44091 -3.91954 0
M  V30 7412 N 691.751 1.51645 -0.429126 0
M  V30 7413 C 693.028 1.94579 0.199614 0
M  V30 7414 C 693.408 1.3673 1.60836 0
M  V30 7415 O 692.756 0.551062 2.21756 0
M  V30 7416 C 692.966 3.48506 0.185685 0
M  V30 7417 C 694.314 4.22756 0.395282 0
M  V30 7418 O 695.338 3.55219 0.264165 0
M  V30 7419 O 694.197 5.42555 0.655475 0
M  V30 7420 H 691.291 0.816007 0.134393 0
M  V30 7421 H 693.837 1.62577 -0.486513 0
M  V30 7422 H 692.609 3.83045 -0.799508 0
M  V30 7423 H 692.232 3.86927 0.91507 0
M  V30 7424 N 693.229 0.160201 1.56784 0
M  V30 7425 C 694.506 -0.533355 1.88188 0
M  V30 7426 C 694.886 -1.82072 1.06831 0
M  V30 7427 O 694.234 -2.27946 0.158959 0
M  V30 7428 C 694.444 -0.786034 3.40033 0
M  V30 7429 C 695.792 -1.12097 4.09536 0
M  V30 7430 O 696.816 -0.874949 3.45287 0
M  V30 7431 O 695.675 -1.58457 5.23023 0
M  V30 7432 H 692.769 -0.273589 0.780434 0
M  V30 7433 H 695.315 0.197803 1.68543 0
M  V30 7434 H 694.087 0.124515 3.91102 0
M  V30 7435 H 693.71 -1.57091 3.65251 0
M  V30 7436 N 694.707 -1.5719 -0.113559 0
M  V30 7437 C 695.955 -1.84772 -0.818761 0
M  V30 7438 C 696.276 -0.746196 -1.80158 0
M  V30 7439 O 695.546 0.229305 -1.94553 0
M  V30 7440 H 694.126 -0.681737 -0.305359 0
M  V30 7441 H 696.788 -1.94645 -0.0995845 0
M  V30 7442 H 695.884 -2.80878 -1.36067 0
M  V30 7443 N 696.185 0.383891 -1.52853 0
M  V30 7444 C 697.41 1.154 -1.7233 0
M  V30 7445 C 697.835 1.82809 -0.44298 0
M  V30 7446 O 697.193 1.71026 0.601645 0
M  V30 7447 C 697.241 2.17386 -2.87708 0
M  V30 7448 O 696.345 3.24082 -2.55038 0
M  V30 7449 H 695.686 0.335709 -0.572883 0
M  V30 7450 H 698.216 0.44662 -1.99666 0
M  V30 7451 H 698.226 2.61296 -3.1335 0
M  V30 7452 H 696.901 1.6771 -3.80587 0
M  V30 7453 H 695.478 2.85273 -2.40153 0
M  V30 7454 N 697.663 1.43903 0.642637 0
M  V30 7455 C 698.911 1.45791 1.39962 0
M  V30 7456 C 699.232 0.0873144 1.94804 0
M  V30 7457 O 698.502 -0.878825 1.75081 0
M  V30 7458 H 697.082 0.536797 0.519479 0
M  V30 7459 H 699.744 1.7959 0.757189 0
M  V30 7460 H 698.84 2.17665 2.2367 0
M  V30 7461 N 699.141 -0.881989 1.30609 0
M  V30 7462 C 700.088 -1.98803 1.17244 0
M  V30 7463 C 701.058 -1.65987 0.0611905 0
M  V30 7464 O 702.243 -1.89385 0.231911 0
M  V30 7465 C 699.383 -3.33867 0.87333 0
M  V30 7466 C 698.496 -3.79354 2.06675 0
M  V30 7467 C 697.631 -5.03078 1.70547 0
M  V30 7468 C 696.67 -5.40981 2.86366 0
M  V30 7469 N 695.807 -6.55886 2.50514 0
M  V30 7470 H 700.647 -2.09566 2.11863 0
M  V30 7471 H 698.184 -1.02607 1.05405 0
M  V30 7472 H 700.142 -4.11612 0.680519 0
M  V30 7473 H 698.772 -3.2278 -0.0359983 0
M  V30 7474 H 697.824 -2.97492 2.37071 0
M  V30 7475 H 699.136 -4.03382 2.93401 0
M  V30 7476 H 698.29 -5.88457 1.47658 0
M  V30 7477 H 697.029 -4.80927 0.809947 0
M  V30 7478 H 696.034 -4.54127 3.09917 0
M  V30 7479 H 697.259 -5.65104 3.76609 0
M  V30 7480 H 695.205 -6.35306 1.63471 0
M  V30 7481 H 695.122 -6.79799 3.30771 0
M  V30 7482 H 696.39 -7.44489 2.30989 0
M  V30 7483 N 700.619 -1.13374 -1.09472 0
M  V30 7484 C 701.867 -0.893422 -1.8128 0
M  V30 7485 C 702.188 0.582029 -1.86111 0
M  V30 7486 O 701.458 1.42305 -1.34633 0
M  V30 7487 H 700.038 -0.327543 -0.67136 0
M  V30 7488 H 702.7 -1.43018 -1.32408 0
M  V30 7489 H 701.796 -1.28374 -2.84476 0
M  V30 7490 N 702.098 1.27442 -0.927168 0
M  V30 7491 C 703.061 2.2512 -0.430525 0
M  V30 7492 C 704.061 1.54357 0.450619 0
M  V30 7493 O 705.251 1.72371 0.251774 0
M  V30 7494 C 702.383 3.38763 0.381144 0
M  V30 7495 H 703.576 2.70569 -1.29354 0
M  V30 7496 H 701.129 1.39355 -0.707806 0
M  V30 7497 H 701.864 2.98695 1.263 0
M  V30 7498 H 701.649 3.91298 -0.250618 0
M  V30 7499 H 703.139 4.11364 0.719012 0
M  V30 7500 N 703.576 0.692616 1.41565 0
M  V30 7501 C 704.539 0.0344174 2.29174 0
M  V30 7502 C 705.539 -0.710961 1.44229 0
M  V30 7503 O 706.729 -0.546293 1.65412 0
M  V30 7504 C 703.861 -0.961682 3.27054 0
M  V30 7505 H 705.054 0.805755 2.88873 0
M  V30 7506 H 702.607 0.455947 1.49502 0
M  V30 7507 H 703.342 -1.76089 2.72329 0
M  V30 7508 H 703.127 -0.430375 3.89731 0
M  V30 7509 H 704.617 -1.4201 3.92712 0
M  V30 7510 N 705.054 -1.51416 0.437162 0
M  V30 7511 C 706.303 -2.01275 -0.130865 0
M  V30 7512 C 706.616 -1.32593 -1.438 0
M  V30 7513 O 707.822 -1.7342 -2.08897 0
M  V30 7514 C 706.278 -3.5878 -0.283763 0
M  V30 7515 C 705.886 -4.36399 1.01293 0
M  V30 7516 C 707.63 -4.16786 -0.805569 0
M  V30 7517 C 705.537 -5.85608 0.825687 0
M  V30 7518 H 704.467 -0.752157 -0.0526818 0
M  V30 7519 H 707.118 -1.74524 0.566896 0
M  V30 7520 H 705.5 -3.81976 -1.04452 0
M  V30 7521 H 706.674 -4.24948 1.78201 0
M  V30 7522 H 704.989 -3.89843 1.46326 0
M  V30 7523 H 707.586 -5.25972 -0.962146 0
M  V30 7524 H 707.929 -3.75949 -1.78796 0
M  V30 7525 H 708.462 -3.97666 -0.103125 0
M  V30 7526 H 705.201 -6.30857 1.78045 0
M  V30 7527 H 704.721 -5.99723 0.0964029 0
M  V30 7528 H 706.4 -6.45226 0.478815 0
M  V30 7529 N 706.532 -0.168513 -1.56696 0
M  V30 7530 C 707.76 0.483503 -2.01171 0
M  V30 7531 C 708.175 1.56994 -1.04872 0
M  V30 7532 O 707.532 1.82434 -0.0491337 0
M  V30 7533 C 707.583 1.0644 -3.45475 0
M  V30 7534 O 707.304 0.0213375 -4.38095 0
M  V30 7535 C 708.805 1.79493 -4.05336 0
M  V30 7536 H 706.025 0.124002 -0.659443 0
M  V30 7537 H 708.569 -0.269419 -2.02717 0
M  V30 7538 H 706.724 1.76784 -3.44712 0
M  V30 7539 H 707.138 0.449837 -5.22567 0
M  V30 7540 H 708.612 2.15401 -5.08238 0
M  V30 7541 H 709.089 2.68889 -3.47269 0
M  V30 7542 H 709.695 1.13798 -4.09793 0
M  V30 7543 N 708.01 1.57248 0.105221 0
M  V30 7544 C 708.973 2.00388 1.11252 0
M  V30 7545 C 709.973 0.89594 1.33527 0
M  V30 7546 O 711.163 1.16166 1.29811 0
M  V30 7547 C 708.295 2.35589 2.46395 0
M  V30 7548 H 709.488 2.90591 0.741424 0
M  V30 7549 H 707.041 1.52332 0.349956 0
M  V30 7550 H 707.776 1.4831 2.884 0
M  V30 7551 H 707.561 3.16408 2.31578 0
M  V30 7552 H 709.051 2.69658 3.18864 0
M  V30 7553 N 709.488 -0.375779 1.53054 0
M  V30 7554 C 710.451 -1.44254 1.7811 0
M  V30 7555 C 711.451 -1.47018 0.651328 0
M  V30 7556 O 712.641 -1.47957 0.919472 0
M  V30 7557 C 709.773 -2.8345 1.89391 0
M  V30 7558 H 710.966 -1.23316 2.73374 0
M  V30 7559 H 708.519 -0.608312 1.43977 0
M  V30 7560 H 709.254 -3.09716 0.961589 0
M  V30 7561 H 709.039 -2.82844 2.71555 0
M  V30 7562 H 710.529 -3.60722 2.10404 0
M  V30 7563 N 710.966 -1.44241 -0.634997 0
M  V30 7564 C 712.212 -1.47038 -1.39669 0
M  V30 7565 C 712.545 -0.101122 -1.93937 0
M  V30 7566 O 711.82 0.880699 -1.73418 0
M  V30 7567 C 712.103 -2.52763 -2.56482 0
M  V30 7568 C 711.956 -3.99032 -2.07589 0
M  V30 7569 C 713.275 -2.55031 -3.58674 0
M  V30 7570 H 710.394 -0.53537 -0.506506 0
M  V30 7571 H 713.036 -1.75898 -0.718317 0
M  V30 7572 H 711.186 -2.28284 -3.14354 0
M  V30 7573 H 712.858 -4.3463 -1.54577 0
M  V30 7574 H 711.101 -4.10994 -1.38804 0
M  V30 7575 H 711.772 -4.68649 -2.91671 0
M  V30 7576 H 714.248 -2.76893 -3.10595 0
M  V30 7577 H 713.124 -3.30916 -4.37934 0
M  V30 7578 H 713.385 -1.59085 -4.12486 0
M  V30 7579 N 712.444 0.87505 -1.31075 0
M  V30 7580 C 713.693 1.62245 -1.19831 0
M  V30 7581 C 714.006 1.94078 0.24357 0
M  V30 7582 O 715.212 2.67265 0.477646 0
M  V30 7583 C 713.668 2.92464 -2.09744 0
M  V30 7584 C 713.276 2.68134 -3.58898 0
M  V30 7585 C 715.02 3.70449 -2.07287 0
M  V30 7586 C 712.927 3.9423 -4.40836 0
M  V30 7587 H 711.857 0.608741 -0.444916 0
M  V30 7588 H 714.508 0.967947 -1.55894 0
M  V30 7589 H 712.89 3.59262 -1.66574 0
M  V30 7590 H 714.064 2.09776 -4.10281 0
M  V30 7591 H 712.379 2.03511 -3.6328 0
M  V30 7592 H 714.976 4.63983 -2.65752 0
M  V30 7593 H 715.319 4.02611 -1.05876 0
M  V30 7594 H 715.852 3.10528 -2.48631 0
M  V30 7595 H 712.591 3.67221 -5.42982 0
M  V30 7596 H 712.111 4.52058 -3.94213 0
M  V30 7597 H 713.79 4.62162 -4.52786 0
M  V30 7598 N 713.922 1.13953 1.08869 0
M  V30 7599 C 714.885 0.824991 2.13838 0
M  V30 7600 C 715.885 -0.168198 1.59918 0
M  V30 7601 O 717.075 0.0595778 1.74098 0
M  V30 7602 C 714.207 0.228938 3.4013 0
M  V30 7603 H 715.4 1.75521 2.43171 0
M  V30 7604 H 712.953 0.94492 1.24503 0
M  V30 7605 H 713.688 -0.710227 3.16427 0
M  V30 7606 H 713.473 0.944243 3.80561 0
M  V30 7607 H 714.963 0.0259223 4.17592 0
M  V30 7608 N 715.4 -1.26948 0.933913 0
M  V30 7609 C 716.33 -2.29017 0.45534 0
M  V30 7610 C 717.311 -1.62961 -0.487605 0
M  V30 7611 O 718.496 -1.90223 -0.391022 0
M  V30 7612 C 715.626 -3.46112 -0.287015 0
M  V30 7613 C 714.58 -4.24205 0.568682 0
M  V30 7614 C 713.906 -5.3384 -0.303206 0
M  V30 7615 C 715.206 -4.88954 1.83633 0
M  V30 7616 H 716.9 -2.69298 1.30839 0
M  V30 7617 H 714.446 -1.29459 0.630579 0
M  V30 7618 H 716.399 -4.16622 -0.6328 0
M  V30 7619 H 715.123 -3.04765 -1.17414 0
M  V30 7620 H 713.782 -3.5545 0.897261 0
M  V30 7621 H 713.43 -4.88734 -1.18947 0
M  V30 7622 H 713.13 -5.86998 0.265879 0
M  V30 7623 H 714.654 -6.0719 -0.644423 0
M  V30 7624 H 716.068 -5.51717 1.55823 0
M  V30 7625 H 714.465 -5.52198 2.34941 0
M  V30 7626 H 715.535 -4.12305 2.55211 0
M  V30 7627 N 716.879 -0.700114 -1.41195 0
M  V30 7628 C 717.827 -0.0263301 -2.32585 0
M  V30 7629 C 718.821 0.763683 -1.51209 0
M  V30 7630 O 720.027 0.668793 -1.67114 0
M  V30 7631 H 716.402 0.0102869 -0.75193 0
M  V30 7632 H 718.373 -0.814087 -2.8708 0
M  V30 7633 C 717.122 0.892793 -3.36042 0
M  V30 7634 H 716.445 0.294306 -3.98715 0
M  V30 7635 H 717.885 1.33247 -4.02518 0
M  V30 7636 C 716.344 2.01109 -2.7029 0
M  V30 7637 O 716.874 3.10035 -2.55423 0
M  V30 7638 N 715.08 1.79015 -2.28915 0
M  V30 7639 H 714.627 0.904275 -2.41207 0
M  V30 7640 H 714.585 2.54022 -1.85257 0
M  V30 7641 N 718.357 1.51182 -0.445186 0
M  V30 7642 C 719.32 2.26501 0.350722 0
M  V30 7643 C 720.32 1.3025 0.942952 0
M  V30 7644 O 721.51 1.53897 0.816175 0
M  V30 7645 C 718.642 3.06274 1.49697 0
M  V30 7646 H 719.835 2.98299 -0.309474 0
M  V30 7647 H 717.388 1.55034 -0.198551 0
M  V30 7648 H 718.123 2.38911 2.19299 0
M  V30 7649 H 717.908 3.76979 1.0784 0
M  V30 7650 H 719.398 3.63306 2.05909 0
M  V30 7651 N 719.835 0.176821 1.56605 0
M  V30 7652 C 721.112 -0.513365 1.88743 0
M  V30 7653 C 721.492 -1.80929 1.08757 0
M  V30 7654 O 720.84 -2.27765 0.183127 0
M  V30 7655 C 721.05 -0.749925 3.40848 0
M  V30 7656 C 722.398 -1.07747 4.10701 0
M  V30 7657 O 723.422 -0.838277 3.46196 0
M  V30 7658 O 722.281 -1.52901 5.24675 0
M  V30 7659 H 719.375 -0.265296 0.783292 0
M  V30 7660 H 721.921 0.215669 1.68324 0
M  V30 7661 H 720.693 0.16599 3.90948 0
M  V30 7662 H 720.316 -1.53208 3.66897 0
M  V30 7663 N 721.313 -1.57302 -0.09688 0
M  V30 7664 C 722.562 -1.85183 -0.799388 0
M  V30 7665 C 722.875 -0.765818 -1.79985 0
M  V30 7666 O 724.081 -0.931696 -2.55013 0
M  V30 7667 C 722.537 -3.28399 -1.47249 0
M  V30 7668 C 722.145 -4.45066 -0.511888 0
M  V30 7669 C 723.889 -3.65506 -2.15883 0
M  V30 7670 C 721.796 -5.79315 -1.18948 0
M  V30 7671 H 720.726 -0.690752 -0.302287 0
M  V30 7672 H 723.377 -1.83425 -0.0523104 0
M  V30 7673 H 721.759 -3.24692 -2.26697 0
M  V30 7674 H 722.933 -4.60116 0.250962 0
M  V30 7675 H 721.248 -4.16343 0.0686576 0
M  V30 7676 H 723.845 -4.63087 -2.67309 0
M  V30 7677 H 724.188 -2.94041 -2.94696 0
M  V30 7678 H 724.721 -3.71094 -1.43298 0
M  V30 7679 H 721.46 -6.54007 -0.442198 0
M  V30 7680 H 720.98 -5.68111 -1.9238 0
M  V30 7681 H 722.659 -6.23816 -1.71646 0
M  V30 7682 N 722.791 0.367657 -1.53252 0
M  V30 7683 C 724.202 0.944563 -1.61043 0
M  V30 7684 C 724.553 1.90325 -0.476546 0
M  V30 7685 O 723.678 2.12721 0.397333 0
M  V30 7686 C 724.273 1.71992 -2.91898 0
M  V30 7687 C 722.832 2.2462 -3.02031 0
M  V30 7688 C 721.979 1.05799 -2.56324 0
M  V30 7689 H 724.93 0.146516 -1.58022 0
M  V30 7690 H 724.951 2.58095 -2.79584 0
M  V30 7691 H 724.463 1.02192 -3.74404 0
M  V30 7692 H 722.564 2.97668 -2.24108 0
M  V30 7693 H 722.677 2.52644 -4.07073 0
M  V30 7694 H 721.041 1.42435 -2.1115 0
M  V30 7695 H 721.824 0.375008 -3.41246 0
M  V30 7696 N 724.269 1.44576 0.627338 0
M  V30 7697 C 725.201 1.47724 1.75243 0
M  V30 7698 C 726.214 0.370193 1.58535 0
M  V30 7699 O 727.403 0.636151 1.66779 0
M  V30 7700 C 724.503 1.2991 3.13012 0
M  V30 7701 C 723.676 2.5393 3.56143 0
M  V30 7702 C 722.735 2.30961 4.72804 0
M  V30 7703 O 721.761 3.04469 4.80923 0
M  V30 7704 N 722.963 1.34261 5.6476 0
M  V30 7705 H 725.728 2.44718 1.73012 0
M  V30 7706 H 723.289 1.40064 0.812022 0
M  V30 7707 H 725.281 1.12385 3.88782 0
M  V30 7708 H 723.851 0.412668 3.09864 0
M  V30 7709 H 723.071 2.86707 2.70542 0
M  V30 7710 H 724.359 3.36411 3.81713 0
M  V30 7711 H 723.757 0.735573 5.60897 0
M  V30 7712 H 722.314 1.22713 6.40144 0
M  V30 7713 N 725.747 -0.868086 1.31537 0
M  V30 7714 C 726.677 -1.99131 1.21939 0
M  V30 7715 C 727.658 -1.69768 0.106166 0
M  V30 7716 O 728.843 -1.92006 0.291081 0
M  V30 7717 C 725.973 -3.34676 0.927879 0
M  V30 7718 C 724.927 -3.7835 2.00088 0
M  V30 7719 C 724.253 -5.11375 1.56203 0
M  V30 7720 C 725.553 -3.95256 3.41424 0
M  V30 7721 H 727.247 -2.07419 2.15911 0
M  V30 7722 H 724.793 -0.996569 1.03945 0
M  V30 7723 H 726.746 -4.12793 0.847327 0
M  V30 7724 H 725.47 -3.26565 -0.0475042 0
M  V30 7725 H 724.129 -3.02474 2.07135 0
M  V30 7726 H 723.777 -4.99709 0.57445 0
M  V30 7727 H 723.477 -5.41568 2.27985 0
M  V30 7728 H 725.001 -5.92001 1.49558 0
M  V30 7729 H 726.415 -4.63764 3.3704 0
M  V30 7730 H 724.812 -4.36849 4.1144 0
M  V30 7731 H 725.882 -2.98579 3.82072 0
M  V30 7732 N 727.225 -1.14528 -1.08264 0
M  V30 7733 C 728.636 -0.925261 -1.6216 0
M  V30 7734 C 728.987 0.535587 -1.88748 0
M  V30 7735 O 728.112 1.4048 -1.64604 0
M  V30 7736 C 728.707 -1.67316 -2.94603 0
M  V30 7737 C 727.266 -1.49868 -3.45278 0
M  V30 7738 C 726.413 -1.69471 -2.19487 0
M  V30 7739 H 729.364 -1.29687 -0.914707 0
M  V30 7740 H 729.385 -1.13721 -3.63109 0
M  V30 7741 H 728.897 -2.73635 -2.75219 0
M  V30 7742 H 726.998 -0.459032 -3.69762 0
M  V30 7743 H 727.111 -2.2696 -4.21931 0
M  V30 7744 H 725.475 -1.12048 -2.2873 0
M  V30 7745 H 726.258 -2.77136 -2.0261 0
M  V30 7746 O 728.742 1.2085 -1.07133 0
M  V30 7747 H 729.433 1.78311 -0.756635 0
M  V30 END ATOM
M  V30 BEGIN BOND
M  V30 END BOND
M  V30 END CTAB
M  END
$$$$
