drugbank_target|Q02223 Tumor necrosis factor receptor superfamily member 17 (DB15719)
 OpenBabel12092121243D

  0  0  0     0  0            999 V3000
M  V30 BEGIN CTAB
M  V30 COUNTS 2819 2840 0 0 0
M  V30 BEGIN ATOM
M  V30 1 H -0.908 1.98254 -0.117106 0
M  V30 2 N 0 1.576 0 0
M  V30 3 C 0.933 2.03868 1.02534 0
M  V30 4 C 1.911 0.928543 1.3348 0
M  V30 5 O 3.095 1.19667 1.45644 0
M  V30 6 C 0.222 2.43627 2.35294 0
M  V30 7 C -0.732 3.65373 2.2001 0
M  V30 8 S 0.101 5.13292 1.52614 0
M  V30 9 C 1.257 5.56322 2.86805 0
M  V30 10 H 1.49 2.90518 0.631377 0
M  V30 11 H -0.977 1.52953 0.210867 0
M  V30 12 H 0.981 2.67203 3.11629 0
M  V30 13 H -0.358 1.57376 2.7183 0
M  V30 14 H -1.165 3.90944 3.18086 0
M  V30 15 H -1.563 3.418 1.51819 0
M  V30 16 H 0.729 5.58782 3.83104 0
M  V30 17 H 1.672 6.56266 2.65933 0
M  V30 18 H 2.08 4.83886 2.90714 0
M  V30 19 N 1.4781 -0.272755 1.55222 0
M  V30 20 C 2.4081 -1.34136 1.91127 0
M  V30 21 C 3.3891 -1.51513 0.773168 0
M  V30 22 O 4.5741 -1.64552 1.03132 0
M  V30 23 C 1.7041 -2.70083 2.1834 0
M  V30 24 C 0.6581 -2.67437 3.34158 0
M  V30 25 C -0.0159 -4.06938 3.46851 0
M  V30 26 C 1.2841 -2.26686 4.70543 0
M  V30 27 H 2.9781 -1.04333 2.80633 0
M  V30 28 H 0.5241 -0.500454 1.35024 0
M  V30 29 H 2.4771 -3.44952 2.42046 0
M  V30 30 H 1.2011 -3.01469 1.25634 0
M  V30 31 H -0.1399 -1.95026 3.1042 0
M  V30 32 H -0.4919 -4.35547 2.51611 0
M  V30 33 H -0.7919 -4.06062 4.2472 0
M  V30 34 H 0.7321 -4.83545 3.72849 0
M  V30 35 H 2.1461 -2.91277 4.93792 0
M  V30 36 H 0.5431 -2.36971 5.5133 0
M  V30 37 H 1.6131 -1.21818 4.69349 0
M  V30 38 N 2.9562 -1.48159 -0.537278 0
M  V30 39 C 3.8882 -1.58218 -1.65831 0
M  V30 40 C 4.9012 -0.466948 -1.5596 0
M  V30 41 O 6.0902 -0.73747 -1.62553 0
M  V30 42 C 3.1902 -1.48906 -3.04434 0
M  V30 43 C 2.3632 -2.75343 -3.3986 0
M  V30 44 C 1.4222 -2.59588 -4.57712 0
M  V30 45 O 0.4482 -3.33457 -4.61297 0
M  V30 46 N 1.6502 -1.68724 -5.55439 0
M  V30 47 H 4.4152 -2.54891 -1.57641 0
M  V30 48 H 1.9762 -1.4479 -0.724386 0
M  V30 49 H 3.9682 -1.36072 -3.81139 0
M  V30 50 H 2.5382 -0.602368 -3.06741 0
M  V30 51 H 1.7582 -3.02795 -2.52406 0
M  V30 52 H 3.0462 -3.5924 -3.60311 0
M  V30 53 H 2.4442 -1.07898 -5.55315 0
M  V30 54 H 1.0012 -1.61832 -6.3139 0
M  V30 55 N 4.4343 0.785586 -1.36625 0
M  V30 56 C 5.3673 1.90509 -1.25625 0
M  V30 57 C 6.3453 1.62 -0.139607 0
M  V30 58 O 7.5293 1.8591 -0.31141 0
M  V30 59 C 4.6563 3.25419 -0.939158 0
M  V30 60 C 3.7023 3.72856 -2.07077 0
M  V30 61 S 4.5353 3.88162 -3.68904 0
M  V30 62 C 5.6913 5.25942 -3.39317 0
M  V30 63 H 5.9243 1.99549 -2.20381 0
M  V30 64 H 3.4573 0.945226 -1.22085 0
M  V30 65 H 5.4153 4.03346 -0.763029 0
M  V30 66 H 4.0763 3.14099 -0.00931402 0
M  V30 67 H 3.2693 4.70624 -1.80357 0
M  V30 68 H 2.8713 3.01989 -2.20632 0
M  V30 69 H 5.1633 6.10651 -2.93447 0
M  V30 70 H 6.1063 5.57668 -4.36363 0
M  V30 71 H 6.5143 4.93224 -2.74573 0
M  V30 72 N 5.9124 1.20967 1.01018 0
M  V30 73 C 6.8754 0.965918 2.07853 0
M  V30 74 C 7.8754 -0.0610545 1.60684 0
M  V30 75 O 9.0654 0.175681 1.73312 0
M  V30 76 C 6.1974 0.455513 3.37843 0
M  V30 77 H 7.3904 1.91365 2.3091 0
M  V30 78 H 4.9434 1.02594 1.17916 0
M  V30 79 H 5.6784 -0.497381 3.20463 0
M  V30 80 H 5.4634 1.19622 3.73407 0
M  V30 81 H 6.9534 0.304667 4.16487 0
M  V30 82 N 7.3905 -1.2043 1.01659 0
M  V30 83 C 8.6385 -1.89423 0.704522 0
M  V30 84 C 8.9595 -1.79231 -0.768197 0
M  V30 85 O 8.2295 -1.1947 -1.55254 0
M  V30 86 H 6.8095 -0.701178 0.257602 0
M  V30 87 H 9.4715 -1.4626 1.28818 0
M  V30 88 H 8.5675 -2.96052 0.987916 0
M  V30 89 N 8.8686 -0.792821 -1.36206 0
M  V30 90 C 9.8006 -0.151469 -2.28699 0
M  V30 91 C 10.8136 0.641262 -1.49638 0
M  V30 92 O 12.0026 0.475885 -1.72039 0
M  V30 93 C 9.1026 0.808424 -3.29117 0
M  V30 94 C 8.2756 0.0650202 -4.37352 0
M  V30 95 C 7.3346 0.941358 -5.17711 0
M  V30 96 O 6.3606 0.397352 -5.67811 0
M  V30 97 N 7.5626 2.2652 -5.3448 0
M  V30 98 H 10.3276 -0.945982 -2.84379 0
M  V30 99 H 7.8886 -0.647032 -1.48409 0
M  V30 100 H 9.8806 1.3986 -3.79765 0
M  V30 101 H 8.4506 1.5038 -2.74052 0
M  V30 102 H 7.6706 -0.706255 -3.87822 0
M  V30 103 H 8.9586 -0.447847 -5.06825 0
M  V30 104 H 8.3566 2.73128 -4.95396 0
M  V30 105 H 6.9136 2.80493 -5.88359 0
M  V30 106 N 10.3467 1.47872 -0.545128 0
M  V30 107 C 11.5867 2.04391 -0.0187854 0
M  V30 108 C 11.9507 1.41162 1.30144 0
M  V30 109 O 13.1517 1.88656 1.91474 0
M  V30 110 C 11.4227 3.57299 0.0850867 0
M  V30 111 S 12.9817 4.35221 0.559302 0
M  V30 112 H 9.7997 0.710737 -0.0193301 0
M  V30 113 H 12.4017 1.81395 -0.729125 0
M  V30 114 H 11.1057 4.00847 -0.880351 0
M  V30 115 H 10.6367 3.84773 0.819348 0
M  V30 116 H 12.6517 4.61571 1.82118 0
M  V30 117 N 11.8248 0.280983 1.55075 0
M  V30 118 C 13.0498 -0.340154 2.04592 0
M  V30 119 C 13.4748 -1.48246 1.15779 0
M  V30 120 O 12.8328 -1.80614 0.15761 0
M  V30 121 C 12.8808 -0.793104 3.5177 0
M  V30 122 O 11.9848 -1.89981 3.66034 0
M  V30 123 H 11.3258 -0.0694289 0.66036 0
M  V30 124 H 13.8558 0.416993 2.00306 0
M  V30 125 H 13.8658 -1.08729 3.93245 0
M  V30 126 H 12.5408 0.0426163 4.15878 0
M  V30 127 H 11.1178 -1.60771 3.36463 0
M  V30 128 N 13.3029 -1.57598 0.00835791 0
M  V30 129 C 14.2349 -2.05811 -1.00868 0
M  V30 130 C 15.2479 -0.977579 -1.30182 0
M  V30 131 O 16.4369 -1.25421 -1.27011 0
M  V30 132 C 13.5369 -2.45016 -2.34137 0
M  V30 133 C 12.7099 -3.75903 -2.23643 0
M  V30 134 C 11.7689 -4.01884 -3.3967 0
M  V30 135 O 10.7949 -4.72433 -3.17483 0
M  V30 136 N 11.9969 -3.50432 -4.62793 0
M  V30 137 H 14.7619 -2.93684 -0.597458 0
M  V30 138 H 12.3229 -1.60909 -0.178852 0
M  V30 139 H 14.3149 -2.59506 -3.10546 0
M  V30 140 H 12.8849 -1.62618 -2.66972 0
M  V30 141 H 12.1049 -3.7141 -1.32091 0
M  V30 142 H 13.3929 -4.61695 -2.13812 0
M  V30 143 H 12.7909 -2.93317 -4.83716 0
M  V30 144 H 11.3479 -3.70236 -5.3644 0
M  V30 145 N 14.781 0.264519 -1.55364 0
M  V30 146 C 15.729 1.34702 -1.89626 0
M  V30 147 C 16.723 1.50712 -0.773459 0
M  V30 148 O 17.929 1.52395 -0.957897 0
M  V30 149 H 14.304 0.450682 -0.601988 0
M  V30 150 H 16.275 1.0306 -2.80038 0
M  V30 151 C 15.024 2.6989 -2.19214 0
M  V30 152 H 14.347 2.58365 -3.05103 0
M  V30 153 H 15.787 3.44553 -2.47102 0
M  V30 154 C 14.246 3.21637 -1.00254 0
M  V30 155 O 14.776 4.00973 -0.241501 0
M  V30 156 N 12.982 2.7943 -0.797938 0
M  V30 157 H 12.529 2.15026 -1.4185 0
M  V30 158 H 12.487 3.144 -0.00363422 0
M  V30 159 N 16.2591 1.48442 0.529413 0
M  V30 160 C 17.1691 1.6569 1.66084 0
M  V30 161 C 18.1851 0.539432 1.65427 0
M  V30 162 O 19.3611 0.810572 1.84368 0
M  V30 163 C 16.4261 1.69315 3.02545 0
M  V30 164 C 15.4871 2.92694 3.14052 0
M  V30 165 C 14.7201 2.96137 4.44003 0
M  V30 166 O 14.9431 2.07973 5.31134 0
M  V30 167 O 13.8771 3.88312 4.59888 0
M  V30 168 H 17.7031 2.61483 1.54469 0
M  V30 169 H 15.2881 1.3185 0.702567 0
M  V30 170 H 17.1701 1.74217 3.83701 0
M  V30 171 H 15.8451 0.766966 3.14483 0
M  V30 172 H 14.7521 2.93324 2.32189 0
M  V30 173 H 16.0851 3.84699 3.0703 0
M  V30 174 N 17.7372 -0.778329 1.37039 0
M  V30 175 C 18.9672 -1.56507 1.34868 0
M  V30 176 C 19.3752 -1.89072 -0.0694802 0
M  V30 177 O 18.7182 -1.51434 -1.03987 0
M  V30 178 C 18.7802 -2.90641 2.11585 0
M  V30 179 C 18.4442 -2.80746 3.60598 0
M  V30 180 C 19.4412 -2.52226 4.54618 0
M  V30 181 C 17.1262 -2.98974 4.03633 0
M  V30 182 C 19.1202 -2.42054 5.89651 0
M  V30 183 C 16.8072 -2.88423 5.38754 0
M  V30 184 C 17.8052 -2.60002 6.31576 0
M  V30 185 O 17.4932 -2.49465 7.64214 0
M  V30 186 H 17.2252 -0.491723 0.463879 0
M  V30 187 H 19.7792 -0.973053 1.80889 0
M  V30 188 H 18.0092 -3.51936 1.60243 0
M  V30 189 H 19.6982 -3.51992 2.0213 0
M  V30 190 H 20.4642 -2.37835 4.22681 0
M  V30 191 H 16.3432 -3.20099 3.31749 0
M  V30 192 H 19.8872 -2.19791 6.62071 0
M  V30 193 H 15.7842 -3.0238 5.70295 0
M  V30 194 H 16.5522 -2.64864 7.74461 0
M  V30 195 N 19.2153 -1.21501 -1.00376 0
M  V30 196 C 20.4623 -1.03299 -1.74171 0
M  V30 197 C 20.7903 0.433326 -1.89612 0
M  V30 198 O 20.0453 1.33779 -1.42834 0
M  V30 199 C 20.3443 -1.67673 -3.15627 0
M  V30 200 C 20.0103 -3.17533 -3.2013 0
M  V30 201 C 18.6723 -3.58427 -3.21067 0
M  V30 202 C 21.0243 -4.13504 -3.17275 0
M  V30 203 C 18.3523 -4.93794 -3.16835 0
M  V30 204 C 20.7043 -5.48834 -3.14585 0
M  V30 205 C 19.3683 -5.89123 -3.13831 0
M  V30 206 H 18.6383 -0.377999 -0.637336 0
M  V30 207 H 21.2853 -1.51111 -1.17634 0
M  V30 208 H 19.5903 -1.12158 -3.75404 0
M  V30 209 H 21.2873 -1.51091 -3.71446 0
M  V30 210 H 17.8773 -2.84965 -3.20145 0
M  V30 211 H 22.0613 -3.82936 -3.15711 0
M  V30 212 H 17.3173 -5.24255 -3.1459 0
M  V30 213 H 21.4913 -6.22934 -3.1133 0
M  V30 214 H 19.1183 -6.93984 -3.10307 0
M  V30 215 N 20.6934 1.19889 -1.02296 0
M  V30 216 C 21.9704 1.85148 -0.630832 0
M  V30 217 C 22.3504 1.91385 0.890782 0
M  V30 218 O 21.6984 1.42642 1.78509 0
M  V30 219 C 21.9084 3.24442 -1.28602 0
M  V30 220 C 23.2564 4.00663 -1.4055 0
M  V30 221 O 24.2804 3.33818 -1.24273 0
M  V30 222 O 23.1394 5.20387 -1.66913 0
M  V30 223 H 20.2334 0.797613 -0.218499 0
M  V30 224 H 22.7794 1.27427 -1.12074 0
M  V30 225 H 21.5514 3.14704 -2.32545 0
M  V30 226 H 21.1744 3.89802 -0.7836 0
M  V30 227 N 22.1715 0.800033 1.35784 0
M  V30 228 C 23.3965 0.388511 2.03729 0
M  V30 229 C 23.8215 -0.990481 1.5991 0
M  V30 230 O 23.1795 -1.64013 0.772612 0
M  V30 231 C 23.2275 0.4726 3.5749 0
M  V30 232 O 22.3315 -0.51646 4.09153 0
M  V30 233 H 21.6725 0.163271 0.643614 0
M  V30 234 H 24.2025 1.0841 1.73518 0
M  V30 235 H 24.2125 0.34003 4.06581 0
M  V30 236 H 22.8875 1.47848 3.88734 0
M  V30 237 H 21.4645 -0.344673 3.71304 0
M  V30 238 N 23.6496 -1.47581 0.552962 0
M  V30 239 C 24.5796 -2.32762 -0.185451 0
M  V30 240 C 25.5606 -1.43527 -0.912905 0
M  V30 241 O 26.7456 -1.72388 -0.894201 0
M  V30 242 C 23.8756 -3.25219 -1.21859 0
M  V30 243 C 22.8296 -4.23661 -0.607864 0
M  V30 244 C 22.1556 -5.05413 -1.74533 0
M  V30 245 C 23.4556 -5.20481 0.435582 0
M  V30 246 H 25.1496 -2.94749 0.525684 0
M  V30 247 H 22.6956 -1.41738 0.254251 0
M  V30 248 H 24.6486 -3.8365 -1.7433 0
M  V30 249 H 23.3726 -2.61279 -1.95961 0
M  V30 250 H 22.0316 -3.66451 -0.104489 0
M  V30 251 H 21.6796 -4.3788 -2.47529 0
M  V30 252 H 21.3796 -5.72059 -1.34249 0
M  V30 253 H 22.9036 -5.66701 -2.27338 0
M  V30 254 H 24.3176 -5.733 -0.00290157 0
M  V30 255 H 22.7146 -5.95305 0.757067 0
M  V30 256 H 23.7846 -4.66217 1.33303 0
M  V30 257 N 25.1277 -0.289203 -1.54924 0
M  V30 258 C 26.0577 0.58549 -2.2604 0
M  V30 259 C 27.0387 1.14753 -1.25562 0
M  V30 260 O 28.2237 1.17906 -1.54311 0
M  V30 261 C 25.3537 1.76305 -2.99222 0
M  V30 262 C 24.3077 1.33191 -4.06748 0
M  V30 263 C 23.6337 2.5937 -4.6758 0
M  V30 264 C 24.9337 0.471775 -5.20165 0
M  V30 265 H 26.6277 -0.00763532 -2.99399 0
M  V30 266 H 24.1737 -0.00511229 -1.43999 0
M  V30 267 H 26.1267 2.38097 -3.47689 0
M  V30 268 H 24.8507 2.38223 -2.23422 0
M  V30 269 H 23.5097 0.737121 -3.59113 0
M  V30 270 H 23.1577 3.19576 -3.88433 0
M  V30 271 H 22.8577 2.31228 -5.40192 0
M  V30 272 H 24.3817 3.21985 -5.18804 0
M  V30 273 H 25.7957 0.995056 -5.64599 0
M  V30 274 H 24.1927 0.284639 -5.99425 0
M  V30 275 H 25.2627 -0.506041 -4.82252 0
M  V30 276 N 26.6058 1.57591 -0.0167156 0
M  V30 277 C 27.5558 2.05953 0.978137 0
M  V30 278 C 28.5398 0.957532 1.29306 0
M  V30 279 O 29.7318 1.22119 1.28125 0
M  V30 280 C 26.8608 2.58006 2.26468 0
M  V30 281 C 25.9468 3.75113 1.97867 0
M  V30 282 N 26.3378 4.86187 1.39486 0
M  V30 283 C 24.6358 3.83363 2.27924 0
M  V30 284 C 25.3368 5.67502 1.27735 0
M  V30 285 N 24.3128 5.14023 1.76866 0
M  V30 286 H 28.1148 2.89236 0.521522 0
M  V30 287 H 25.6288 1.61301 0.188596 0
M  V30 288 H 27.6258 2.90937 2.98599 0
M  V30 289 H 26.2858 1.76148 2.72767 0
M  V30 290 H 27.2968 5.06695 1.07147 0
M  V30 291 H 23.9738 3.1239 2.76982 0
M  V30 292 H 25.3638 6.66791 0.826978 0
M  V30 293 N 28.0839 -0.256276 1.55502 0
M  V30 294 C 29.0469 -1.30047 1.88734 0
M  V30 295 C 30.0469 -1.4154 0.763086 0
M  V30 296 O 31.2369 -1.40403 1.03115 0
M  V30 297 C 28.3689 -2.67953 2.10747 0
M  V30 298 H 29.5619 -1.01802 2.82093 0
M  V30 299 H 27.1149 -0.495134 1.4825 0
M  V30 300 H 27.8499 -3.01351 1.19825 0
M  V30 301 H 27.6349 -2.60993 2.92617 0
M  V30 302 H 29.1249 -3.43368 2.37673 0
M  V30 303 N 29.562 -1.4872 -0.521534 0
M  V30 304 C 30.802 -1.58771 -1.28729 0
M  V30 305 C 31.166 -0.259394 -1.9024 0
M  V30 306 O 32.367 -0.234942 -2.67771 0
M  V30 307 C 30.638 -2.70039 -2.34124 0
M  V30 308 S 32.197 -2.9991 -3.20312 0
M  V30 309 H 29.015 -0.560251 -0.437767 0
M  V30 310 H 31.617 -1.86283 -0.593188 0
M  V30 311 H 30.321 -3.65101 -1.87429 0
M  V30 312 H 29.852 -2.44455 -3.08229 0
M  V30 313 H 31.867 -2.39855 -4.34378 0
M  V30 314 N 31.0401 0.771051 -1.3745 0
M  V30 315 C 32.2891 1.52491 -1.3202 0
M  V30 316 C 32.6021 1.9538 0.0927347 0
M  V30 317 O 33.8081 2.70159 0.269503 0
M  V30 318 C 32.2641 2.75366 -2.31736 0
M  V30 319 C 31.8721 2.39573 -3.78562 0
M  V30 320 C 33.6161 3.53307 -2.35318 0
M  V30 321 C 31.5231 3.58954 -4.70007 0
M  V30 322 H 30.4531 0.572506 -0.490666 0
M  V30 323 H 33.1041 0.844474 -1.62914 0
M  V30 324 H 31.4861 3.45303 -1.93861 0
M  V30 325 H 32.6601 1.77415 -4.25277 0
M  V30 326 H 30.9751 1.74805 -3.77932 0
M  V30 327 H 33.5721 4.42039 -3.00842 0
M  V30 328 H 33.9151 3.93217 -1.36698 0
M  V30 329 H 34.4481 2.90367 -2.71904 0
M  V30 330 H 31.1871 3.24125 -5.69757 0
M  V30 331 H 30.7071 4.20214 -4.27996 0
M  V30 332 H 32.3861 4.25758 -4.87175 0
M  V30 333 N 32.5182 1.22032 0.997298 0
M  V30 334 C 33.9292 1.0397 1.55071 0
M  V30 335 C 34.2802 -0.398192 1.92117 0
M  V30 336 O 33.4052 -1.28254 1.74298 0
M  V30 337 C 34.0002 1.88109 2.81781 0
M  V30 338 C 32.5592 1.74357 3.33581 0
M  V30 339 C 31.7062 1.84846 2.06706 0
M  V30 340 H 34.6572 1.35941 0.818883 0
M  V30 341 H 34.6782 1.39589 3.53971 0
M  V30 342 H 34.1902 2.92754 2.54787 0
M  V30 343 H 32.2912 0.72427 3.65493 0
M  V30 344 H 32.4042 2.56772 4.04481 0
M  V30 345 H 30.7682 1.28238 2.20062 0
M  V30 346 H 31.5512 2.91014 1.82114 0
M  V30 347 N 33.9963 -1.19345 1.0293 0
M  V30 348 C 35.2363 -1.90738 0.734727 0
M  V30 349 C 35.6003 -1.7785 -0.723414 0
M  V30 350 O 36.8013 -2.43844 -1.13108 0
M  V30 351 C 35.0723 -3.37569 1.17396 0
M  V30 352 S 36.6313 -4.27176 1.00329 0
M  V30 353 H 33.4493 -0.658771 0.267474 0
M  V30 354 H 36.0513 -1.4428 1.31922 0
M  V30 355 H 34.7553 -3.44475 2.23081 0
M  V30 356 H 34.2863 -3.8906 0.582772 0
M  V30 357 H 36.3013 -4.96126 -0.0859152 0
M  V30 358 N 35.4744 -0.807222 -1.35358 0
M  V30 359 C 36.4064 -0.175717 -2.28525 0
M  V30 360 C 37.4194 0.625354 -1.5031 0
M  V30 361 O 38.6084 0.457611 -1.72535 0
M  V30 362 C 35.7084 0.773471 -3.29956 0
M  V30 363 C 34.8814 0.0186296 -4.37396 0
M  V30 364 C 33.9404 0.886395 -5.18681 0
M  V30 365 O 32.9664 0.337106 -5.68201 0
M  V30 366 N 34.1684 2.20839 -5.36852 0
M  V30 367 H 36.9334 -0.976091 -2.83359 0
M  V30 368 H 34.4944 -0.662737 -1.47714 0
M  V30 369 H 36.4864 1.35824 -3.81227 0
M  V30 370 H 35.0564 1.47465 -2.75632 0
M  V30 371 H 34.2764 -0.747349 -3.87051 0
M  V30 372 H 35.5644 -0.501577 -5.06322 0
M  V30 373 H 34.9624 2.67858 -4.98265 0
M  V30 374 H 33.5194 2.74237 -5.91301 0
M  V30 375 N 36.9525 1.47285 -0.560781 0
M  V30 376 C 37.8825 2.32857 0.173105 0
M  V30 377 C 38.8635 1.44009 0.905281 0
M  V30 378 O 40.0485 1.7286 0.885046 0
M  V30 379 C 37.1785 3.25861 1.20133 0
M  V30 380 C 36.1325 4.23978 0.585388 0
M  V30 381 C 35.4585 5.06332 1.7185 0
M  V30 382 C 36.7585 5.20242 -0.463178 0
M  V30 383 H 38.4525 2.94466 -0.541307 0
M  V30 384 H 35.9985 1.41601 -0.261764 0
M  V30 385 H 37.9515 3.84569 1.72293 0
M  V30 386 H 36.6755 2.62315 1.94573 0
M  V30 387 H 35.3345 3.66501 0.085054 0
M  V30 388 H 34.9825 4.39186 2.45203 0
M  V30 389 H 34.6825 5.72762 1.31213 0
M  V30 390 H 36.2065 5.67899 2.24329 0
M  V30 391 H 37.6205 5.73293 -0.027502 0
M  V30 392 H 36.0175 5.94896 -0.788627 0
M  V30 393 H 37.0875 4.65504 -1.35773 0
M  V30 394 N 38.4306 0.297415 1.54768 0
M  V30 395 C 39.8466 -0.0560823 1.59501 0
M  V30 396 C 40.0466 -1.52725 1.31444 0
M  V30 397 O 39.1026 -2.27947 1.08611 0
M  V30 398 C 40.4156 0.338631 2.98787 0
M  V30 399 C 41.9636 0.287097 3.11681 0
M  V30 400 C 42.4386 0.656579 4.53269 0
M  V30 401 N 43.9296 0.608977 4.59179 0
M  V30 402 C 44.6646 0.867385 5.66802 0
M  V30 403 N 44.1606 1.19157 6.82476 0
M  V30 404 N 45.9536 0.794687 5.56454 0
M  V30 405 H 38.1046 1.25624 1.71267 0
M  V30 406 H 40.3676 0.509057 0.799728 0
M  V30 407 H 40.0736 1.36263 3.2423 0
M  V30 408 H 39.9476 -0.309508 3.75928 0
M  V30 409 H 42.3346 -0.727649 2.85988 0
M  V30 410 H 42.4156 0.969809 2.36703 0
M  V30 411 H 42.0596 1.66912 4.7969 0
M  V30 412 H 41.9896 -0.0481649 5.26578 0
M  V30 413 H 44.4806 0.369198 3.76092 0
M  V30 414 H 44.7936 1.37482 7.60473 0
M  V30 415 H 43.1386 1.22958 6.84037 0
M  V30 416 H 46.3296 0.541098 4.64962 0
M  V30 417 H 46.5026 0.999445 6.40246 0
M  V30 418 N 39.9087 -1.5758 0.0250728 0
M  V30 419 C 41.1487 -1.93497 -0.65865 0
M  V30 420 C 41.5127 -0.901409 -1.69525 0
M  V30 421 O 42.7137 -1.14664 -2.43116 0
M  V30 422 C 40.9847 -3.34352 -1.26267 0
M  V30 423 S 42.5437 -3.92191 -1.96803 0
M  V30 424 H 39.3617 -0.67709 -0.216958 0
M  V30 425 H 41.9637 -1.95303 0.0877692 0
M  V30 426 H 40.6677 -4.07395 -0.495741 0
M  V30 427 H 40.1987 -3.3598 -2.04648 0
M  V30 428 H 42.2137 -3.75298 -3.24601 0
M  V30 429 N 41.3868 0.248026 -1.55636 0
M  V30 430 C 42.6118 0.998028 -1.81808 0
M  V30 431 C 43.0368 1.78207 -0.601979 0
M  V30 432 O 42.3948 1.75653 0.448961 0
M  V30 433 C 42.4428 1.9125 -3.05705 0
M  V30 434 O 41.5468 3.00406 -2.82542 0
M  V30 435 H 40.8878 0.284045 -0.600179 0
M  V30 436 H 43.4178 0.269357 -2.02819 0
M  V30 437 H 43.4278 2.32737 -3.35108 0
M  V30 438 H 42.1028 1.33602 -3.93857 0
M  V30 439 H 40.6798 2.63056 -2.64303 0
M  V30 440 N 42.8649 1.48995 0.513639 0
M  V30 441 C 44.0899 1.61792 1.29762 0
M  V30 442 C 44.5149 0.284475 1.85936 0
M  V30 443 O 43.8729 -0.746185 1.65232 0
M  V30 444 C 43.9209 2.67993 2.41272 0
M  V30 445 O 43.0249 2.26287 3.44772 0
M  V30 446 H 42.3659 0.541963 0.38363 0
M  V30 447 H 44.8959 1.95097 0.616307 0
M  V30 448 H 44.9059 2.89772 2.87221 0
M  V30 449 H 43.5809 3.64791 1.9975 0
M  V30 450 H 42.1579 2.14788 3.04829 0
M  V30 451 N 44.343 -0.763751 1.37857 0
M  V30 452 C 45.291 -1.89864 1.34367 0
M  V30 453 C 46.285 -1.67816 0.231143 0
M  V30 454 O 47.491 -1.75508 0.399617 0
M  V30 455 H 43.866 -0.624501 0.41893 0
M  V30 456 H 45.837 -1.89925 2.30155 0
M  V30 457 C 44.586 -3.27227 1.1755 0
M  V30 458 H 43.909 -3.44773 2.02414 0
M  V30 459 H 45.349 -4.06911 1.1916 0
M  V30 460 C 43.808 -3.36692 -0.118311 0
M  V30 461 O 44.338 -3.86374 -1.09902 0
M  V30 462 N 42.544 -2.90092 -0.171717 0
M  V30 463 H 42.091 -2.49853 0.627012 0
M  V30 464 H 42.049 -2.96806 -1.03699 0
M  V30 465 N 45.8211 -1.22559 -0.990812 0
M  V30 466 C 47.0491 -1.07779 -1.76611 0
M  V30 467 C 47.4641 0.371513 -1.85109 0
M  V30 468 O 46.8211 1.25737 -1.32274 0
M  V30 469 C 46.8721 -1.68512 -3.19822 0
M  V30 470 O 46.5931 -3.07774 -3.1178 0
M  V30 471 C 48.0941 -1.59035 -4.13791 0
M  V30 472 H 45.3141 -0.377729 -0.554583 0
M  V30 473 H 47.8581 -1.62195 -1.24551 0
M  V30 474 H 46.0131 -1.18154 -3.68942 0
M  V30 475 H 46.4271 -3.37062 -4.01858 0
M  V30 476 H 47.9011 -2.0625 -5.1202 0
M  V30 477 H 48.3781 -0.547273 -4.35777 0
M  V30 478 H 48.9841 -2.08709 -3.70568 0
M  V30 479 N 47.2992 1.18797 -1.03562 0
M  V30 480 C 48.7102 1.70322 -0.764676 0
M  V30 481 C 49.0612 1.82708 0.714996 0
M  V30 482 O 48.1862 1.50299 1.55689 0
M  V30 483 C 48.7812 3.09356 -1.38145 0
M  V30 484 C 47.3402 3.58114 -1.15895 0
M  V30 485 C 46.4872 2.34798 -1.4753 0
M  V30 486 H 49.4382 1.03543 -1.20268 0
M  V30 487 H 49.4592 3.72378 -0.781977 0
M  V30 488 H 48.9712 3.00309 -2.45837 0
M  V30 489 H 47.0722 3.72464 -0.100544 0
M  V30 490 H 47.1852 4.4184 -1.8524 0
M  V30 491 H 45.5492 2.38464 -0.894829 0
M  V30 492 H 46.3322 2.28375 -2.56319 0
M  V30 493 N 48.7773 0.814389 1.34928 0
M  V30 494 C 50.1883 0.458364 1.80986 0
M  V30 495 C 50.5393 -1.02042 1.67577 0
M  V30 496 O 49.6643 -1.79352 1.21086 0
M  V30 497 C 50.2593 0.825212 3.28597 0
M  V30 498 C 48.8183 0.521677 3.72767 0
M  V30 499 C 47.9653 1.04668 2.56788 0
M  V30 500 H 50.9163 1.00533 1.22795 0
M  V30 501 H 50.9373 0.12571 3.80292 0
M  V30 502 H 50.4493 1.90154 3.38324 0
M  V30 503 H 48.5503 -0.545589 3.68584 0
M  V30 504 H 48.6633 1.05977 4.67232 0
M  V30 505 H 47.0273 0.468622 2.50352 0
M  V30 506 H 47.8103 2.12927 2.6929 0
M  V30 507 N 50.2554 -1.46986 0.568584 0
M  V30 508 C 51.1854 -2.32946 -0.160753 0
M  V30 509 C 52.1664 -1.44487 -0.897631 0
M  V30 510 O 53.3514 -1.73327 -0.875867 0
M  V30 511 C 50.4814 -3.26494 -1.18403 0
M  V30 512 C 49.4354 -4.24282 -0.562895 0
M  V30 513 C 48.7614 -5.07236 -1.69163 0
M  V30 514 C 50.0614 -5.19989 0.490761 0
M  V30 515 H 51.7554 -2.94175 0.556916 0
M  V30 516 H 49.3014 -1.4146 0.26927 0
M  V30 517 H 51.2544 -3.85477 -1.70251 0
M  V30 518 H 49.9784 -2.63343 -1.93179 0
M  V30 519 H 48.6374 -3.66541 -0.0656164 0
M  V30 520 H 48.2854 -4.4048 -2.42871 0
M  V30 521 H 47.9854 -5.7345 -1.28174 0
M  V30 522 H 49.5094 -5.6908 -2.21314 0
M  V30 523 H 50.9234 -5.73271 0.0579047 0
M  V30 524 H 49.3204 -5.94469 0.820165 0
M  V30 525 H 50.3904 -4.64777 1.3824 0
M  V30 526 N 51.7335 -0.305618 -1.54608 0
M  V30 527 C 52.9615 0.304775 -2.04643 0
M  V30 528 C 53.3765 1.47167 -1.18268 0
M  V30 529 O 52.7335 1.81296 -0.209328 0
M  V30 530 C 52.7845 0.756564 -3.53495 0
M  V30 531 O 52.5055 -0.36389 -4.36586 0
M  V30 532 C 54.0065 1.43163 -4.19546 0
M  V30 533 H 51.2265 0.0655481 -0.667791 0
M  V30 534 H 53.7705 -0.446592 -1.99564 0
M  V30 535 H 51.9255 1.45794 -3.58919 0
M  V30 536 H 52.3395 -0.0113121 -5.24499 0
M  V30 537 H 53.8135 1.69886 -5.25207 0
M  V30 538 H 54.2905 2.37318 -3.69563 0
M  V30 539 H 54.8965 0.773307 -4.18211 0
M  V30 540 N 53.2116 1.57565 -0.0334293 0
M  V30 541 C 54.4516 1.93844 0.648379 0
M  V30 542 C 54.8156 0.910387 1.69044 0
M  V30 543 O 56.0166 1.15952 2.42505 0
M  V30 544 C 54.2876 3.35017 1.24492 0
M  V30 545 S 55.8466 3.93229 1.94721 0
M  V30 546 H 52.6646 0.678231 0.213364 0
M  V30 547 H 55.2666 1.95254 -0.0981253 0
M  V30 548 H 53.9706 4.07652 0.474128 0
M  V30 549 H 53.5016 3.37061 2.02864 0
M  V30 550 H 55.5166 3.77014 3.22606 0
M  V30 551 N 54.6897 -0.239769 1.55765 0
M  V30 552 C 55.6217 -1.32001 1.87372 0
M  V30 553 C 56.6347 -1.43944 0.760522 0
M  V30 554 O 57.8237 -1.45167 1.0387 0
M  V30 555 C 54.9237 -2.69779 2.05115 0
M  V30 556 C 54.0967 -2.80014 3.36022 0
M  V30 557 C 53.1557 -3.98684 3.4342 0
M  V30 558 O 52.1817 -3.87877 4.16582 0
M  V30 559 N 53.3837 -5.12176 2.73232 0
M  V30 560 H 56.1487 -1.0522 2.80622 0
M  V30 561 H 53.7097 -0.429857 1.56089 0
M  V30 562 H 55.7017 -3.47517 2.07399 0
M  V30 563 H 54.2717 -2.89237 1.18577 0
M  V30 564 H 53.4917 -1.88896 3.45994 0
M  V30 565 H 54.7797 -2.83808 4.22292 0
M  V30 566 H 54.1777 -5.2385 2.13536 0
M  V30 567 H 52.7347 -5.88022 2.81199 0
M  V30 568 N 56.1678 -1.49265 -0.50573 0
M  V30 569 C 57.5838 -1.35923 -0.836486 0
M  V30 570 C 57.7838 -0.388704 -1.97715 0
M  V30 571 O 56.8398 0.181336 -2.51848 0
M  V30 572 C 58.1528 -2.76531 -1.18115 0
M  V30 573 C 59.7008 -2.85197 -1.28964 0
M  V30 574 C 60.1758 -4.26561 -1.66761 0
M  V30 575 N 61.6668 -4.2935 -1.73819 0
M  V30 576 C 62.4018 -5.35693 -2.045 0
M  V30 577 N 61.8978 -6.52287 -2.33438 0
M  V30 578 N 63.6908 -5.23105 -2.05711 0
M  V30 579 H 55.8418 -2.10965 0.246519 0
M  V30 580 H 58.1048 -0.9468 0.0476887 0
M  V30 581 H 57.8108 -3.49226 -0.416398 0
M  V30 582 H 57.6848 -3.11599 -2.1257 0
M  V30 583 H 60.0718 -2.12742 -2.04511 0
M  V30 584 H 60.1528 -2.53718 -0.325704 0
M  V30 585 H 59.7968 -4.99541 -0.917656 0
M  V30 586 H 59.7268 -4.55502 -2.64246 0
M  V30 587 H 62.2178 -3.4526 -1.53635 0
M  V30 588 H 62.5308 -7.29158 -2.56024 0
M  V30 589 H 60.8758 -6.55521 -2.30905 0
M  V30 590 H 64.0668 -4.31026 -1.82577 0
M  V30 591 H 64.2398 -6.06078 -2.29289 0
M  V30 592 N 57.6459 0.756429 -1.3826 0
M  V30 593 C 58.8759 1.54341 -1.3734 0
M  V30 594 C 59.2839 1.89159 0.0393917 0
M  V30 595 O 58.6269 1.5307 1.01565 0
M  V30 596 C 58.6889 2.87238 -2.16182 0
M  V30 597 C 58.3529 2.74973 -3.65019 0
M  V30 598 C 59.3499 2.44962 -4.58574 0
M  V30 599 C 57.0349 2.92515 -4.08338 0
M  V30 600 C 59.0289 2.32642 -5.93428 0
M  V30 601 C 56.7159 2.79815 -5.43274 0
M  V30 602 C 57.7139 2.49921 -6.35632 0
M  V30 603 O 57.4019 2.37275 -7.68086 0
M  V30 604 H 57.1339 0.484281 -0.471643 0
M  V30 605 H 59.6879 0.944152 -1.82414 0
M  V30 606 H 57.9179 3.49342 -1.65822 0
M  V30 607 H 59.6069 3.48731 -2.07705 0
M  V30 608 H 60.3729 2.31081 -4.26412 0
M  V30 609 H 56.2519 3.14781 -3.368 0
M  V30 610 H 59.7959 2.0923 -6.65484 0
M  V30 611 H 55.6929 2.93269 -5.75034 0
M  V30 612 H 56.4609 2.52509 -7.78577 0
M  V30 613 N 59.124 1.23083 0.984299 0
M  V30 614 C 60.364 1.07226 1.74017 0
M  V30 615 C 60.728 -0.384766 1.88105 0
M  V30 616 O 61.929 -0.664411 2.60459 0
M  V30 617 C 60.2 1.77348 3.10294 0
M  V30 618 S 61.759 1.77014 4.01512 0
M  V30 619 H 58.577 0.383819 0.598502 0
M  V30 620 H 61.179 1.56158 1.17622 0
M  V30 621 H 59.883 2.82506 2.97689 0
M  V30 622 H 59.414 1.28682 3.71759 0
M  V30 623 H 61.429 0.825956 4.89277 0
M  V30 624 N 60.6021 -1.18246 1.0419 0
M  V30 625 C 61.5501 -2.23968 0.627792 0
M  V30 626 C 62.5441 -1.65828 -0.346019 0
M  V30 627 O 63.7501 -1.78733 -0.213175 0
M  V30 628 H 60.1251 -0.728939 0.184802 0
M  V30 629 H 62.0961 -2.56202 1.52981 0
M  V30 630 C 60.8451 -3.47699 0.00796591 0
M  V30 631 H 60.1681 -3.92734 0.748347 0
M  V30 632 H 61.6081 -4.23294 -0.24455 0
M  V30 633 C 60.0671 -3.13153 -1.24246 0
M  V30 634 O 60.5971 -3.27003 -2.33307 0
M  V30 635 N 58.8031 -2.67467 -1.13622 0
M  V30 636 H 58.3501 -2.56396 -0.248734 0
M  V30 637 H 58.3081 -2.44724 -1.97377 0
M  V30 638 N 62.0802 -0.821533 -1.34494 0
M  V30 639 C 63.0432 -0.247847 -2.27856 0
M  V30 640 C 64.0432 0.573453 -1.50227 0
M  V30 641 O 65.2332 0.389759 -1.69784 0
M  V30 642 C 62.3652 0.652698 -3.34593 0
M  V30 643 H 63.5582 -1.07146 -2.80107 0
M  V30 644 H 61.1112 -0.593291 -1.44602 0
M  V30 645 H 61.8462 1.49943 -2.87555 0
M  V30 646 H 61.6312 0.065292 -3.92046 0
M  V30 647 H 63.1212 1.04793 -4.04238 0
M  V30 648 N 63.5583 1.46682 -0.576371 0
M  V30 649 C 64.7833 2.07304 -0.0630475 0
M  V30 650 C 65.2083 1.42329 1.2298 0
M  V30 651 O 64.5663 0.504865 1.74129 0
M  V30 652 C 64.6143 3.60472 0.095895 0
M  V30 653 O 63.7183 3.95927 1.15394 0
M  V30 654 H 63.0593 0.661288 -0.0599463 0
M  V30 655 H 65.5893 1.88417 -0.797511 0
M  V30 656 H 65.5993 4.06865 0.304071 0
M  V30 657 H 64.2743 4.07157 -0.84828 0
M  V30 658 H 62.8513 3.61252 0.924724 0
M  V30 659 N 65.0364 0.313813 1.54444 0
M  V30 660 C 66.2824 -0.292108 2.00685 0
M  V30 661 C 66.6154 -1.52548 1.20177 0
M  V30 662 O 65.8904 -1.92452 0.281531 0
M  V30 663 C 66.1734 -0.635968 3.5444 0
M  V30 664 C 66.0264 0.607437 4.4568 0
M  V30 665 C 67.3454 -1.45747 4.15266 0
M  V30 666 H 64.4644 -0.104697 0.729526 0
M  V30 667 H 67.1064 0.428457 1.85106 0
M  V30 668 H 65.2564 -1.24986 3.67846 0
M  V30 669 H 66.9284 1.24581 4.44159 0
M  V30 670 H 65.1714 1.23822 4.15753 0
M  V30 671 H 65.8424 0.322515 5.51057 0
M  V30 672 H 68.3184 -0.938645 4.05375 0
M  V30 673 H 67.1944 -1.66683 5.2298 0
M  V30 674 H 67.4554 -2.45063 3.67963 0
M  V30 675 N 66.5145 -1.57545 0.0417849 0
M  V30 676 C 67.7425 -1.96624 -0.643928 0
M  V30 677 C 68.1575 -0.918897 -1.64929 0
M  V30 678 O 67.5145 0.0979323 -1.82237 0
M  V30 679 C 67.5655 -3.35781 -1.33914 0
M  V30 680 O 67.2865 -4.365 -0.374048 0
M  V30 681 C 68.7875 -3.89566 -2.1155 0
M  V30 682 H 66.0075 -0.647316 -0.176702 0
M  V30 683 H 68.5515 -2.04229 0.105304 0
M  V30 684 H 66.7065 -3.29357 -2.03968 0
M  V30 685 H 67.1205 -5.17248 -0.869179 0
M  V30 686 H 68.5945 -4.89242 -2.55628 0
M  V30 687 H 69.0715 -3.24488 -2.9598 0
M  V30 688 H 69.6775 -3.99298 -1.46427 0
M  V30 689 N 67.9926 0.231505 -1.5589 0
M  V30 690 C 68.9406 1.30649 -1.92441 0
M  V30 691 C 69.9346 1.49037 -0.805254 0
M  V30 692 O 71.1406 1.50329 -0.990007 0
M  V30 693 H 67.5156 0.437812 -0.611412 0
M  V30 694 H 69.4866 0.970973 -2.82161 0
M  V30 695 C 68.2356 2.65179 -2.24889 0
M  V30 696 H 67.5586 2.51835 -3.10514 0
M  V30 697 H 68.9986 3.39234 -2.54355 0
M  V30 698 C 67.4576 3.19439 -1.07054 0
M  V30 699 O 67.9876 4.00371 -0.326499 0
M  V30 700 N 66.1936 2.77675 -0.85703 0
M  V30 701 H 65.7406 2.11969 -1.46379 0
M  V30 702 H 65.6986 3.14321 -0.0703223 0
M  V30 703 N 69.4707 1.49531 0.497807 0
M  V30 704 C 70.6957 1.63159 1.28039 0
M  V30 705 C 71.1207 0.30418 1.85624 0
M  V30 706 O 70.4787 -0.728618 1.66015 0
M  V30 707 C 70.5267 2.70537 2.38416 0
M  V30 708 O 69.6307 2.29931 3.42353 0
M  V30 709 H 68.9717 0.546001 0.377861 0
M  V30 710 H 71.5017 1.9574 0.59558 0
M  V30 711 H 71.5117 2.92802 2.84132 0
M  V30 712 H 70.1867 3.6689 1.95869 0
M  V30 713 H 68.7637 2.18009 3.02533 0
M  V30 714 N 70.9488 -0.749086 1.3866 0
M  V30 715 C 72.1948 -1.51056 1.35314 0
M  V30 716 C 72.5278 -1.94121 -0.0553751 0
M  V30 717 O 71.8028 -1.65763 -1.01749 0
M  V30 718 C 72.0858 -2.76003 2.31288 0
M  V30 719 C 71.9388 -2.39047 3.8102 0
M  V30 720 C 73.2578 -3.78046 2.2532 0
M  V30 721 H 70.3768 -0.547972 0.492844 0
M  V30 722 H 73.0188 -0.857628 1.69543 0
M  V30 723 H 71.1688 -3.31716 2.02229 0
M  V30 724 H 72.8408 -1.89074 4.20771 0
M  V30 725 H 71.0838 -1.71449 3.98482 0
M  V30 726 H 71.7548 -3.28462 4.4364 0
M  V30 727 H 74.2308 -3.31884 2.50983 0
M  V30 728 H 73.1068 -4.63159 2.94576 0
M  V30 729 H 73.3678 -4.23957 1.25352 0
M  V30 730 N 72.4269 -1.23603 -0.977757 0
M  V30 731 C 73.3739 -1.01954 -2.07061 0
M  V30 732 C 74.3439 0.0638697 -1.65977 0
M  V30 733 O 75.5289 -0.0887624 -1.90593 0
M  V30 734 C 72.6689 -0.619658 -3.39491 0
M  V30 735 C 71.7819 -1.77547 -3.93829 0
M  V30 736 C 70.9169 -1.32212 -5.14484 0
M  V30 737 C 69.9559 -2.44852 -5.60994 0
M  V30 738 N 69.0929 -2.00456 -6.72876 0
M  V30 739 H 73.9329 -1.95495 -2.24913 0
M  V30 740 H 71.4699 -0.973861 -1.10247 0
M  V30 741 H 73.4279 -0.368898 -4.15566 0
M  V30 742 H 72.0579 0.278752 -3.21594 0
M  V30 743 H 71.1099 -2.14016 -3.14486 0
M  V30 744 H 72.4219 -2.62219 -4.24314 0
M  V30 745 H 71.5759 -1.02965 -5.97899 0
M  V30 746 H 70.3149 -0.445808 -4.85658 0
M  V30 747 H 69.3199 -2.74871 -4.76157 0
M  V30 748 H 70.5449 -3.33024 -5.91837 0
M  V30 749 H 68.4909 -1.15208 -6.45804 0
M  V30 750 H 68.4079 -2.78687 -7.02759 0
M  V30 751 H 69.6759 -1.7432 -7.59758 0
M  V30 752 N 73.905 1.17692 -1.04816 0
M  V30 753 C 75.153 1.87488 -0.754497 0
M  V30 754 C 75.474 1.81205 0.720407 0
M  V30 755 O 74.744 1.23544 1.52032 0
M  V30 756 H 73.324 0.694101 -0.276102 0
M  V30 757 H 75.986 1.42793 -1.32651 0
M  V30 758 H 75.082 2.93328 -1.06606 0
M  V30 759 N 75.3831 0.828654 1.34056 0
M  V30 760 C 76.6111 0.43262 2.02326 0
M  V30 761 C 77.0261 -0.963147 1.62385 0
M  V30 762 O 76.3831 -1.62425 0.832121 0
M  V30 763 C 76.4341 0.53182 3.57567 0
M  V30 764 O 76.1551 1.87258 3.96063 0
M  V30 765 C 77.6561 0.131422 4.43105 0
M  V30 766 H 74.8761 0.172923 0.648335 0
M  V30 767 H 77.4201 1.1184 1.71208 0
M  V30 768 H 75.5751 -0.105938 3.87255 0
M  V30 769 H 75.9891 1.85087 4.90758 0
M  V30 770 H 77.4631 0.251904 5.51425 0
M  V30 771 H 77.9401 -0.925645 4.29335 0
M  V30 772 H 78.5461 0.743207 4.18756 0
M  V30 773 N 76.8612 -1.46375 0.584142 0
M  V30 774 C 77.8092 -2.32042 -0.161047 0
M  V30 775 C 78.8032 -1.44569 -0.882966 0
M  V30 776 O 80.0092 -1.61186 -0.801191 0
M  V30 777 H 76.3842 -0.748659 -0.0708033 0
M  V30 778 H 78.3552 -2.92704 0.580269 0
M  V30 779 C 77.1042 -3.27762 -1.1605 0
M  V30 780 H 76.4272 -3.95051 -0.614419 0
M  V30 781 H 77.8672 -3.90481 -1.65228 0
M  V30 782 C 76.3262 -2.53218 -2.22221 0
M  V30 783 O 76.8562 -2.29628 -3.29597 0
M  V30 784 N 75.0622 -2.13756 -1.96868 0
M  V30 785 H 74.6092 -2.33142 -1.09557 0
M  V30 786 H 74.5672 -1.642 -2.68115 0
M  V30 787 N 78.3393 -0.321999 -1.54275 0
M  V30 788 C 79.3023 0.531975 -2.22941 0
M  V30 789 C 80.3023 1.04478 -1.22234 0
M  V30 790 O 81.4923 0.937452 -1.46825 0
M  V30 791 C 78.6243 1.73874 -2.93224 0
M  V30 792 H 79.8173 -0.0682612 -2.99822 0
M  V30 793 H 77.3703 -0.0730644 -1.56129 0
M  V30 794 H 78.1053 2.37825 -2.20476 0
M  V30 795 H 77.8903 1.37847 -3.6707 0
M  V30 796 H 79.3803 2.34496 -3.45545 0
M  V30 797 N 79.8174 1.5752 -0.0501392 0
M  V30 798 C 81.0664 1.91827 0.623328 0
M  V30 799 C 81.3794 0.930222 1.72065 0
M  V30 800 O 82.5854 1.1653 2.4522 0
M  V30 801 C 81.0414 3.40692 1.16003 0
M  V30 802 C 80.6494 4.479 0.0948811 0
M  V30 803 C 82.3934 3.84034 1.80881 0
M  V30 804 C 80.3004 5.87879 0.644411 0
M  V30 805 H 79.2304 0.715918 0.236596 0
M  V30 806 H 81.8814 1.83115 -0.118861 0
M  V30 807 H 80.2634 3.44405 1.9545 0
M  V30 808 H 81.4374 4.55775 -0.678675 0
M  V30 809 H 79.7524 4.13892 -0.45637 0
M  V30 810 H 82.3494 4.85984 2.22988 0
M  V30 811 H 82.6924 3.20225 2.6601 0
M  V30 812 H 83.2254 3.82833 1.0809 0
M  V30 813 H 79.9644 6.55282 -0.169229 0
M  V30 814 H 79.4844 5.83567 1.38598 0
M  V30 815 H 81.1634 6.37098 1.12763 0
M  V30 816 N 81.2955 -0.223234 1.56011 0
M  V30 817 C 82.2255 -1.27988 1.95298 0
M  V30 818 C 83.2065 -1.48976 0.820979 0
M  V30 819 O 84.3915 -1.61188 1.08315 0
M  V30 820 C 81.5215 -2.63 2.26822 0
M  V30 821 C 80.4755 -2.56671 3.42497 0
M  V30 822 C 79.8015 -3.95697 3.59622 0
M  V30 823 C 81.1015 -2.11601 4.77517 0
M  V30 824 H 82.7955 -0.953525 2.8381 0
M  V30 825 H 80.3415 -0.457244 1.36548 0
M  V30 826 H 82.2945 -3.37077 2.52898 0
M  V30 827 H 81.0185 -2.9732 1.35161 0
M  V30 828 H 79.6775 -1.85051 3.16467 0
M  V30 829 H 79.3255 -4.27322 2.6534 0
M  V30 830 H 79.0255 -3.92345 4.37424 0
M  V30 831 H 80.5495 -4.71438 3.88044 0
M  V30 832 H 81.9635 -2.7542 5.02809 0
M  V30 833 H 80.3605 -2.19311 5.5859 0
M  V30 834 H 81.4305 -1.06824 4.72987 0
M  V30 835 N 82.7736 -1.49793 -0.48987 0
M  V30 836 C 84.0196 -1.61049 -1.24236 0
M  V30 837 C 84.3746 -0.298412 -1.90072 0
M  V30 838 O 83.6676 0.702262 -1.78266 0
M  V30 839 C 83.8616 -2.71488 -2.32441 0
M  V30 840 C 83.6906 -4.13308 -1.77218 0
M  V30 841 C 82.4606 -4.79955 -1.58023 0
M  V30 842 C 84.6586 -4.98176 -1.27772 0
M  V30 843 N 82.6406 -6.06052 -0.978465 0
M  V30 844 C 84.0116 -6.14843 -0.798 0
M  V30 845 C 86.0666 -4.84091 -1.16449 0
M  V30 846 C 84.7696 -7.18975 -0.216245 0
M  V30 847 C 86.7956 -5.88382 -0.596698 0
M  V30 848 C 86.1576 -7.04285 -0.127262 0
M  V30 849 H 82.2566 -0.643611 -0.444172 0
M  V30 850 H 84.8406 -1.86842 -0.54754 0
M  V30 851 H 83.0116 -2.47449 -2.99372 0
M  V30 852 H 84.7436 -2.72205 -2.99477 0
M  V30 853 H 81.4986 -4.36936 -1.82712 0
M  V30 854 H 81.9226 -6.73407 -0.696534 0
M  V30 855 H 86.5646 -3.94786 -1.5134 0
M  V30 856 H 84.2826 -8.0797 0.144903 0
M  V30 857 H 87.8686 -5.79545 -0.511716 0
M  V30 858 H 86.7486 -7.83606 0.30523 0
M  V30 859 N 84.2517 0.741722 -1.39055 0
M  V30 860 C 85.4797 1.53098 -1.39171 0
M  V30 861 C 85.8947 1.88794 0.0155099 0
M  V30 862 O 85.2517 1.53626 0.985159 0
M  V30 863 C 85.3027 2.82274 -2.2584 0
M  V30 864 O 85.0237 2.48097 -3.61081 0
M  V30 865 C 86.5247 3.76343 -2.34266 0
M  V30 866 H 83.7447 0.473335 -0.4756 0
M  V30 867 H 86.2887 0.917045 -1.82785 0
M  V30 868 H 84.4437 3.40015 -1.85656 0
M  V30 869 H 84.8577 3.31029 -4.06842 0
M  V30 870 H 86.3317 4.63898 -2.9917 0
M  V30 871 H 86.8087 4.17619 -1.35982 0
M  V30 872 H 87.4147 3.24523 -2.74891 0
M  V30 873 N 85.7298 1.2412 0.971189 0
M  V30 874 C 86.9698 1.09066 1.7287 0
M  V30 875 C 87.3338 -0.364794 1.88503 0
M  V30 876 O 88.5348 -0.636748 2.61149 0
M  V30 877 C 86.8058 1.80629 3.08396 0
M  V30 878 S 88.3648 1.81263 3.99611 0
M  V30 879 H 85.1828 0.390145 0.594397 0
M  V30 880 H 87.7848 1.57397 1.15959 0
M  V30 881 H 86.4888 2.85647 2.94676 0
M  V30 882 H 86.0198 1.32617 3.70373 0
M  V30 883 H 88.0348 0.877804 4.88374 0
M  V30 884 N 87.2079 -1.17134 1.05439 0
M  V30 885 C 88.1379 -2.2342 0.678649 0
M  V30 886 C 89.1189 -1.66971 -0.32476 0
M  V30 887 O 90.3039 -1.93149 -0.201802 0
M  V30 888 C 87.4339 -3.47256 0.0552099 0
M  V30 889 C 86.3879 -4.16543 0.98365 0
M  V30 890 C 85.7139 -5.34231 0.223961 0
M  V30 891 C 87.0139 -4.68495 2.3089 0
M  V30 892 H 88.7079 -2.55105 1.56722 0
M  V30 893 H 86.2539 -1.2262 0.754998 0
M  V30 894 H 88.2069 -4.20828 -0.21946 0
M  V30 895 H 86.9309 -3.14846 -0.868319 0
M  V30 896 H 85.5899 -3.44887 1.24293 0
M  V30 897 H 85.2379 -4.98071 -0.702412 0
M  V30 898 H 84.9379 -5.81527 0.842627 0
M  V30 899 H 86.4619 -6.10585 -0.0433671 0
M  V30 900 H 87.8759 -5.33691 2.09396 0
M  V30 901 H 86.2729 -5.26379 2.88176 0
M  V30 902 H 87.3429 -3.85169 2.94572 0
M  V30 903 N 88.686 -0.835752 -1.33615 0
M  V30 904 C 89.934 -0.429109 -1.97492 0
M  V30 905 C 90.255 1.01433 -1.66543 0
M  V30 906 O 89.525 1.70611 -0.962744 0
M  V30 907 H 88.105 -0.155686 -0.730596 0
M  V30 908 H 90.767 -1.06802 -1.63031 0
M  V30 909 H 89.863 -0.55861 -3.0706 0
M  V30 910 N 90.1641 1.46063 -0.591896 0
M  V30 911 C 91.0941 2.33172 0.123673 0
M  V30 912 C 92.0751 1.45897 0.87453 0
M  V30 913 O 93.2601 1.74698 0.848181 0
M  V30 914 C 90.3901 3.28336 1.13194 0
M  V30 915 C 89.3441 4.25124 0.495324 0
M  V30 916 C 88.6701 5.09863 1.61071 0
M  V30 917 C 89.9701 5.19143 -0.573425 0
M  V30 918 H 91.6641 2.93252 -0.603646 0
M  V30 919 H 89.2101 1.41014 -0.291741 0
M  V30 920 H 91.1631 3.88137 1.64097 0
M  V30 921 H 89.8871 2.66383 1.88965 0
M  V30 922 H 88.5461 3.66599 0.00729452 0
M  V30 923 H 88.1941 4.44288 2.35832 0
M  V30 924 H 87.8941 5.75417 1.19035 0
M  V30 925 H 89.4181 5.72529 2.12233 0
M  V30 926 H 90.8321 5.73106 -0.1491 0
M  V30 927 H 89.2291 5.93089 -0.914636 0
M  V30 928 H 90.2991 4.62519 -1.45617 0
M  V30 929 N 91.6422 0.330177 1.54103 0
M  V30 930 C 92.8672 -0.274893 2.0557 0
M  V30 931 C 93.2922 -1.44487 1.20437 0
M  V30 932 O 92.6502 -1.80021 0.214991 0
M  V30 933 C 92.6982 -0.68079 3.54115 0
M  V30 934 O 91.8022 -1.7824 3.71893 0
M  V30 935 H 91.1432 -0.0483849 0.662235 0
M  V30 936 H 93.6732 0.480508 1.98878 0
M  V30 937 H 93.6832 -0.961635 3.96505 0
M  V30 938 H 92.3582 0.174903 4.15532 0
M  V30 939 H 90.9352 -1.49985 3.41407 0
M  V30 940 N 93.1203 -1.57491 0.0584922 0
M  V30 941 C 94.0503 -2.14988 -0.911178 0
M  V30 942 C 95.0313 -1.07343 -1.31952 0
M  V30 943 O 96.2163 -1.35318 -1.39294 0
M  V30 944 C 93.3463 -2.70078 -2.18347 0
M  V30 945 C 92.3003 -3.82771 -1.91495 0
M  V30 946 C 91.6263 -4.24408 -3.25241 0
M  V30 947 C 92.9263 -5.07592 -1.23075 0
M  V30 948 H 94.6203 -2.96263 -0.432246 0
M  V30 949 H 92.1663 -1.42512 -0.206469 0
M  V30 950 H 94.1193 -3.08943 -2.86587 0
M  V30 951 H 92.8433 -1.86005 -2.68458 0
M  V30 952 H 91.5023 -3.44389 -1.25664 0
M  V30 953 H 91.1503 -3.37275 -3.73168 0
M  V30 954 H 90.8503 -5.00366 -3.08071 0
M  V30 955 H 92.3743 -4.65879 -3.94701 0
M  V30 956 H 93.7883 -5.43857 -1.81362 0
M  V30 957 H 92.1853 -5.88741 -1.16207 0
M  V30 958 H 93.2553 -4.84454 -0.207847 0
M  V30 959 N 94.5984 0.214957 -1.56127 0
M  V30 960 C 95.8474 0.936451 -1.78643 0
M  V30 961 C 96.1604 1.85237 -0.628229 0
M  V30 962 O 97.3664 2.613 -0.737186 0
M  V30 963 C 95.8224 1.7154 -3.16389 0
M  V30 964 C 95.4304 0.845299 -4.39953 0
M  V30 965 C 97.1744 2.42772 -3.48227 0
M  V30 966 C 95.0814 1.62198 -5.68723 0
M  V30 967 H 94.0114 0.353401 -0.666051 0
M  V30 968 H 96.6624 0.190169 -1.82512 0
M  V30 969 H 95.0444 2.50484 -3.06715 0
M  V30 970 H 96.2184 0.0959353 -4.607 0
M  V30 971 H 94.5334 0.244789 -4.1568 0
M  V30 972 H 97.1304 3.01394 -4.41663 0
M  V30 973 H 97.4734 3.15984 -2.71035 0
M  V30 974 H 98.0064 1.70813 -3.5926 0
M  V30 975 H 94.7454 0.933011 -6.48826 0
M  V30 976 H 94.2654 2.34579 -5.52026 0
M  V30 977 H 95.9444 2.18095 -6.09133 0
M  V30 978 N 96.0765 1.50051 0.48192 0
M  V30 979 C 97.3255 1.59741 1.23149 0
M  V30 980 C 97.6385 0.298163 1.93314 0
M  V30 981 O 98.8445 0.273835 2.70116 0
M  V30 982 C 97.3005 2.81926 2.23708 0
M  V30 983 C 96.9085 4.18685 1.59396 0
M  V30 984 C 98.6525 3.00956 2.99375 0
M  V30 985 C 96.5595 5.3207 2.58178 0
M  V30 986 H 95.4895 0.594838 0.46334 0
M  V30 987 H 98.1405 1.76467 0.503169 0
M  V30 988 H 96.5225 2.58736 2.99786 0
M  V30 989 H 97.6965 4.52088 0.891811 0
M  V30 990 H 96.0115 4.05171 0.960503 0
M  V30 991 H 98.6085 3.82836 3.73283 0
M  V30 992 H 98.9515 2.12258 3.58123 0
M  V30 993 H 99.4845 3.24277 2.30411 0
M  V30 994 H 96.2235 6.22888 2.04184 0
M  V30 995 H 95.7435 5.03098 3.26577 0
M  V30 996 H 97.4225 5.62196 3.20225 0
M  V30 997 N 97.5546 -0.734337 1.39446 0
M  V30 998 C 98.7796 -1.52866 1.40167 0
M  V30 999 C 99.2046 -1.881 -0.00171513 0
M  V30 1000 O 98.5626 -1.51957 -0.988879 0
M  V30 1001 C 98.6106 -2.79235 2.28167 0
M  V30 1002 O 97.7146 -3.75185 1.71201 0
M  V30 1003 H 97.0556 -0.461618 0.477289 0
M  V30 1004 H 99.5856 -0.905949 1.8345 0
M  V30 1005 H 99.5956 -3.27963 2.42702 0
M  V30 1006 H 98.2706 -2.52923 3.30156 0
M  V30 1007 H 96.8476 -3.33958 1.65912 0
M  V30 1008 N 99.0327 -1.24633 -0.964593 0
M  V30 1009 C 99.9627 -1.06611 -2.07741 0
M  V30 1010 C 100.944 0.0218666 -1.70086 0
M  V30 1011 O 102.129 -0.145793 -1.93652 0
M  V30 1012 C 99.2587 -0.673444 -3.40708 0
M  V30 1013 C 98.2127 -1.71054 -3.92332 0
M  V30 1014 C 97.5387 -1.17285 -5.21678 0
M  V30 1015 C 98.8387 -3.10718 -4.19824 0
M  V30 1016 H 100.533 -1.99693 -2.23076 0
M  V30 1017 H 98.0787 -0.96152 -1.07195 0
M  V30 1018 H 100.032 -0.534345 -4.17998 0
M  V30 1019 H 98.7557 0.293073 -3.25282 0
M  V30 1020 H 97.4147 -1.83791 -3.17201 0
M  V30 1021 H 97.0627 -0.196847 -5.02615 0
M  V30 1022 H 96.7627 -1.86592 -5.57187 0
M  V30 1023 H 98.2867 -1.04593 -6.01575 0
M  V30 1024 H 99.7007 -3.01192 -4.87808 0
M  V30 1025 H 98.0977 -3.77406 -4.66567 0
M  V30 1026 H 99.1677 -3.58524 -3.26479 0
M  V30 1027 N 100.511 1.16574 -1.06058 0
M  V30 1028 C 101.474 2.19085 -0.673392 0
M  V30 1029 C 102.474 1.5835 0.279648 0
M  V30 1030 O 103.664 1.74088 0.0623488 0
M  V30 1031 C 100.796 3.40899 0.00954234 0
M  V30 1032 H 101.989 2.54853 -1.58081 0
M  V30 1033 H 99.5418 1.30808 -0.855516 0
M  V30 1034 H 100.277 3.10684 0.929826 0
M  V30 1035 H 100.062 3.86233 -0.67573 0
M  V30 1036 H 101.552 4.1675 0.266245 0
M  V30 1037 N 101.989 0.842826 1.3317 0
M  V30 1038 C 103.235 0.441099 1.97945 0
M  V30 1039 C 103.568 -0.998024 1.66593 0
M  V30 1040 O 102.843 -1.69839 0.947898 0
M  V30 1041 C 103.126 0.666841 3.53872 0
M  V30 1042 C 102.979 2.15352 3.94897 0
M  V30 1043 C 104.298 0.115544 4.39948 0
M  V30 1044 H 101.417 0.161739 0.719034 0
M  V30 1045 H 104.059 1.05907 1.57746 0
M  V30 1046 H 102.209 0.140828 3.88245 0
M  V30 1047 H 103.881 2.7447 3.70761 0
M  V30 1048 H 102.124 2.63653 3.44484 0
M  V30 1049 H 102.795 2.26221 5.03516 0
M  V30 1050 H 105.271 0.565213 4.12243 0
M  V30 1051 H 104.147 0.303152 5.48062 0
M  V30 1052 H 104.408 -0.980935 4.3108 0
M  V30 1053 N 103.467 -1.45747 0.599634 0
M  V30 1054 C 104.714 -2.02292 0.0917284 0
M  V30 1055 C 105.042 -1.46906 -1.27472 0
M  V30 1056 O 104.297 -0.630652 -1.8526 0
M  V30 1057 C 104.596 -3.57399 -0.00602758 0
M  V30 1058 C 104.262 -4.31902 1.29503 0
M  V30 1059 C 102.924 -4.51974 1.65144 0
M  V30 1060 C 105.276 -4.74551 2.15525 0
M  V30 1061 C 102.604 -5.11949 2.86574 0
M  V30 1062 C 104.956 -5.35868 3.36196 0
M  V30 1063 C 103.62 -5.54165 3.72099 0
M  V30 1064 H 102.89 -0.740239 0.0335658 0
M  V30 1065 H 105.537 -1.7491 0.779661 0
M  V30 1066 H 103.842 -3.84014 -0.777183 0
M  V30 1067 H 105.539 -3.98846 -0.415038 0
M  V30 1068 H 102.129 -4.16588 1.00761 0
M  V30 1069 H 106.313 -4.58784 1.8929 0
M  V30 1070 H 101.569 -5.24305 3.14507 0
M  V30 1071 H 105.743 -5.6787 4.03109 0
M  V30 1072 H 103.37 -6.00406 4.6628 0
M  V30 1073 N 104.945 -0.338344 -1.53925 0
M  V30 1074 C 106.191 0.260143 -2.01125 0
M  V30 1075 C 106.524 1.50617 -1.22589 0
M  V30 1076 O 105.799 1.91979 -0.312113 0
M  V30 1077 C 106.082 0.579499 -3.55407 0
M  V30 1078 C 105.935 -0.678264 -4.44657 0
M  V30 1079 C 107.254 1.39122 -4.17532 0
M  V30 1080 H 104.373 0.0930772 -0.731099 0
M  V30 1081 H 107.015 -0.457852 -1.84401 0
M  V30 1082 H 105.165 1.19118 -3.69788 0
M  V30 1083 H 106.837 -1.31631 -4.42121 0
M  V30 1084 H 105.08 -1.3042 -4.13731 0
M  V30 1085 H 105.751 -0.410143 -5.50474 0
M  V30 1086 H 108.227 0.874035 -4.06817 0
M  V30 1087 H 107.103 1.58342 -5.25565 0
M  V30 1088 H 107.364 2.39178 -3.71815 0
M  V30 1089 N 106.423 1.57458 -0.0668435 0
M  V30 1090 C 107.353 2.15468 0.899764 0
M  V30 1091 C 108.334 1.08042 1.31381 0
M  V30 1092 O 109.519 1.36054 1.38574 0
M  V30 1093 C 106.649 2.71232 2.16911 0
M  V30 1094 C 105.603 3.83781 1.89463 0
M  V30 1095 C 104.929 4.26127 3.22986 0
M  V30 1096 C 106.229 5.08238 1.20381 0
M  V30 1097 H 107.923 2.96488 0.416529 0
M  V30 1098 H 105.469 1.4262 0.198908 0
M  V30 1099 H 107.422 3.10458 2.84945 0
M  V30 1100 H 106.146 1.87426 2.67468 0
M  V30 1101 H 104.805 3.45051 1.23836 0
M  V30 1102 H 104.453 3.39249 3.71374 0
M  V30 1103 H 104.153 5.01993 3.05413 0
M  V30 1104 H 105.677 4.67966 3.92225 0
M  V30 1105 H 107.091 5.44811 1.78475 0
M  V30 1106 H 105.488 5.89349 1.13083 0
M  V30 1107 H 106.558 4.84558 0.182153 0
M  V30 1108 N 107.901 -0.206675 1.56239 0
M  V30 1109 C 108.834 -1.28383 1.88661 0
M  V30 1110 C 109.812 -1.44504 0.745481 0
M  V30 1111 O 110.996 -1.60079 0.995336 0
M  V30 1112 C 108.123 -2.65211 2.10667 0
M  V30 1113 C 107.169 -2.66025 3.33366 0
M  V30 1114 S 108.002 -2.18609 4.88846 0
M  V30 1115 C 109.158 -3.57283 5.13906 0
M  V30 1116 H 109.391 -1.00691 2.7973 0
M  V30 1117 H 106.924 -0.409627 1.48867 0
M  V30 1118 H 108.882 -3.43979 2.24029 0
M  V30 1119 H 107.543 -2.90121 1.20369 0
M  V30 1120 H 106.736 -3.66607 3.45855 0
M  V30 1121 H 106.338 -1.95331 3.18938 0
M  V30 1122 H 108.63 -4.53074 5.03717 0
M  V30 1123 H 109.573 -3.49699 6.15724 0
M  V30 1124 H 109.981 -3.51659 4.41583 0
M  V30 1125 N 109.379 -1.50304 -0.473955 0
M  V30 1126 C 110.626 -1.6115 -1.22625 0
M  V30 1127 C 110.954 -0.310517 -1.92005 0
M  V30 1128 O 110.209 0.703419 -1.82621 0
M  V30 1129 C 110.508 -2.73938 -2.29549 0
M  V30 1130 C 110.174 -4.14519 -1.7744 0
M  V30 1131 C 108.836 -4.5277 -1.62949 0
M  V30 1132 C 111.188 -5.02392 -1.3875 0
M  V30 1133 C 108.516 -5.76639 -1.08187 0
M  V30 1134 C 110.868 -6.26805 -0.854309 0
M  V30 1135 C 109.532 -6.63861 -0.696011 0
M  V30 1136 H 108.802 -0.589691 -0.448715 0
M  V30 1137 H 111.449 -1.84228 -0.522705 0
M  V30 1138 H 109.754 -2.44937 -3.05799 0
M  V30 1139 H 111.451 -2.79534 -2.87509 0
M  V30 1140 H 108.041 -3.8434 -1.89685 0
M  V30 1141 H 112.225 -4.73474 -1.4878 0
M  V30 1142 H 107.481 -6.04027 -0.946666 0
M  V30 1143 H 111.655 -6.94258 -0.545843 0
M  V30 1144 H 109.282 -7.59722 -0.26952 0
M  V30 1145 N 110.857 0.726932 -1.39834 0
M  V30 1146 C 111.787 1.85405 -1.41941 0
M  V30 1147 C 112.768 1.67751 -0.281728 0
M  V30 1148 O 113.953 1.8795 -0.488717 0
M  V30 1149 C 111.083 3.23243 -1.2701 0
M  V30 1150 C 110.037 3.55549 -2.38262 0
M  V30 1151 C 109.363 4.9241 -2.08415 0
M  V30 1152 C 110.663 3.577 -3.80589 0
M  V30 1153 H 112.357 1.83899 -2.36266 0
M  V30 1154 H 109.903 0.883349 -1.13723 0
M  V30 1155 H 111.856 4.01775 -1.27103 0
M  V30 1156 H 110.58 3.25296 -0.291564 0
M  V30 1157 H 109.239 2.79351 -2.37399 0
M  V30 1158 H 108.887 4.91052 -1.0898 0
M  V30 1159 H 108.587 5.14992 -2.82943 0
M  V30 1160 H 110.111 5.73289 -2.10171 0
M  V30 1161 H 111.525 4.26293 -3.83337 0
M  V30 1162 H 109.922 3.91804 -4.54543 0
M  V30 1163 H 110.992 2.57328 -4.10987 0
M  V30 1164 N 112.336 1.25143 0.95797 0
M  V30 1165 C 113.266 1.07711 2.07173 0
M  V30 1166 C 114.247 -0.0128462 1.70095 0
M  V30 1167 O 115.432 0.156061 1.93572 0
M  V30 1168 C 112.562 0.691503 3.40346 0
M  V30 1169 C 111.516 1.73132 3.9142 0
M  V30 1170 C 110.842 1.20049 5.21049 0
M  V30 1171 C 112.142 3.1294 4.1817 0
M  V30 1172 H 113.836 2.00873 2.22014 0
M  V30 1173 H 111.382 0.967191 1.06684 0
M  V30 1174 H 113.335 0.556505 4.17709 0
M  V30 1175 H 112.059 -0.275819 3.25433 0
M  V30 1176 H 110.718 1.8547 3.16222 0
M  V30 1177 H 110.366 0.223499 5.02503 0
M  V30 1178 H 110.066 1.89545 5.56189 0
M  V30 1179 H 111.59 1.07782 6.01012 0
M  V30 1180 H 113.004 3.03775 4.86203 0
M  V30 1181 H 111.401 3.79875 4.64559 0
M  V30 1182 H 112.471 3.6025 3.24573 0
M  V30 1183 N 113.814 -1.1601 1.06675 0
M  V30 1184 C 115.23 -1.38622 0.790948 0
M  V30 1185 C 115.43 -1.92109 -0.607965 0
M  V30 1186 O 114.486 -2.12239 -1.36787 0
M  V30 1187 C 115.799 -2.36347 1.85905 0
M  V30 1188 C 117.347 -2.50023 1.88301 0
M  V30 1189 C 117.822 -3.51033 2.94176 0
M  V30 1190 N 119.313 -3.58563 2.93235 0
M  V30 1191 C 120.048 -4.36521 3.71803 0
M  V30 1192 N 119.544 -5.17869 4.602 0
M  V30 1193 N 121.337 -4.31541 3.60178 0
M  V30 1194 H 113.488 -0.796294 1.96908 0
M  V30 1195 H 115.751 -0.412597 0.853503 0
M  V30 1196 H 115.457 -2.04147 2.86386 0
M  V30 1197 H 115.331 -3.36042 1.71334 0
M  V30 1198 H 117.718 -2.81524 0.884769 0
M  V30 1199 H 117.799 -1.5035 2.06951 0
M  V30 1200 H 117.443 -3.20268 3.94196 0
M  V30 1201 H 117.373 -4.50445 2.72776 0
M  V30 1202 H 119.864 -3.00496 2.29152 0
M  V30 1203 H 120.177 -5.74578 5.16797 0
M  V30 1204 H 118.522 -5.17199 4.64253 0
M  V30 1205 H 121.713 -3.67051 2.90502 0
M  V30 1206 H 121.886 -4.9205 4.21653 0
M  V30 1207 N 115.292 -0.849877 -1.32721 0
M  V30 1208 C 116.239 -0.289033 -2.28983 0
M  V30 1209 C 117.209 0.601324 -1.54833 0
M  V30 1210 O 118.394 0.537253 -1.8308 0
M  V30 1211 C 115.534 0.520623 -3.4115 0
M  V30 1212 C 114.647 -0.394989 -4.3019 0
M  V30 1213 C 113.782 0.426834 -5.29482 0
M  V30 1214 C 112.821 -0.486476 -6.10164 0
M  V30 1215 N 111.958 0.297879 -7.01468 0
M  V30 1216 H 116.798 -1.11519 -2.76347 0
M  V30 1217 H 114.335 -0.56138 -1.35967 0
M  V30 1218 H 116.293 1.00563 -4.04899 0
M  V30 1219 H 114.923 1.31165 -2.9495 0
M  V30 1220 H 113.975 -0.99836 -3.67065 0
M  V30 1221 H 115.287 -1.09612 -4.86607 0
M  V30 1222 H 114.441 0.975205 -5.98811 0
M  V30 1223 H 113.18 1.16136 -4.73671 0
M  V30 1224 H 112.185 -1.04677 -5.39743 0
M  V30 1225 H 113.41 -1.21953 -6.6806 0
M  V30 1226 H 111.356 1.01558 -6.48091 0
M  V30 1227 H 111.273 -0.344318 -7.55216 0
M  V30 1228 H 112.541 0.828131 -7.75089 0
M  V30 1229 N 116.77 1.45427 -0.607355 0
M  V30 1230 C 118.019 2.01452 -0.100036 0
M  V30 1231 C 118.332 1.48159 1.27704 0
M  V30 1232 O 119.538 1.96159 1.87707 0
M  V30 1233 C 117.994 3.59672 -0.128158 0
M  V30 1234 C 117.602 4.21962 -1.50507 0
M  V30 1235 C 119.346 4.23262 0.323932 0
M  V30 1236 C 117.253 5.72333 -1.48959 0
M  V30 1237 H 116.183 0.75325 -0.0336299 0
M  V30 1238 H 118.834 1.66901 -0.76265 0
M  V30 1239 H 117.216 3.91411 0.601105 0
M  V30 1240 H 118.39 4.01796 -2.25602 0
M  V30 1241 H 116.705 3.70565 -1.89923 0
M  V30 1242 H 119.302 5.33522 0.354691 0
M  V30 1243 H 119.645 3.93921 1.34656 0
M  V30 1244 H 120.178 3.96239 -0.352056 0
M  V30 1245 H 116.917 6.06373 -2.48981 0
M  V30 1246 H 116.437 5.94691 -0.781214 0
M  V30 1247 H 118.116 6.35525 -1.21313 0
M  V30 1248 N 118.248 0.346503 1.53744 0
M  V30 1249 C 119.196 -0.52422 2.26616 0
M  V30 1250 C 120.19 -1.09948 1.28871 0
M  V30 1251 O 121.396 -1.04488 1.46568 0
M  V30 1252 H 117.771 -0.187743 0.728187 0
M  V30 1253 H 119.742 0.11239 2.98188 0
M  V30 1254 C 118.491 -1.66186 3.05414 0
M  V30 1255 H 117.814 -1.22848 3.80458 0
M  V30 1256 H 119.254 -2.24622 3.59612 0
M  V30 1257 C 117.713 -2.59302 2.1509 0
M  V30 1258 O 118.243 -3.61628 1.74895 0
M  V30 1259 N 116.449 -2.28055 1.8011 0
M  V30 1260 H 115.996 -1.44883 2.12994 0
M  V30 1261 H 115.954 -2.90615 1.19958 0
M  V30 1262 N 119.726 -1.57421 0.075193 0
M  V30 1263 C 120.951 -1.98364 -0.605515 0
M  V30 1264 C 121.376 -0.953383 -1.62149 0
M  V30 1265 O 120.734 0.0806053 -1.81121 0
M  V30 1266 C 120.782 -3.38332 -1.24756 0
M  V30 1267 O 119.886 -3.37959 -2.36342 0
M  V30 1268 H 119.227 -0.645553 -0.155428 0
M  V30 1269 H 121.757 -2.04044 0.150714 0
M  V30 1270 H 121.767 -3.75591 -1.5936 0
M  V30 1271 H 120.442 -4.12846 -0.503129 0
M  V30 1272 H 119.019 -3.12474 -2.03506 0
M  V30 1273 N 121.204 0.198386 -1.56346 0
M  V30 1274 C 122.114 1.2664 -1.97483 0
M  V30 1275 C 123.13 1.49989 -0.882002 0
M  V30 1276 O 124.306 1.62668 -1.18748 0
M  V30 1277 C 121.371 2.59141 -2.30319 0
M  V30 1278 C 120.432 2.43892 -3.53292 0
M  V30 1279 C 119.665 3.70074 -3.84553 0
M  V30 1280 O 119.888 4.74101 -3.1715 0
M  V30 1281 O 118.822 3.658 -4.7799 0
M  V30 1282 H 122.648 0.947304 -2.88548 0
M  V30 1283 H 120.233 0.403123 -1.43859 0
M  V30 1284 H 122.115 3.37352 -2.5253 0
M  V30 1285 H 120.79 2.90684 -1.42423 0
M  V30 1286 H 119.697 1.63803 -3.36332 0
M  V30 1287 H 121.03 2.17282 -4.41644 0
M  V30 1288 N 122.682 1.50554 0.465978 0
M  V30 1289 C 124.093 1.54599 1.04671 0
M  V30 1290 C 124.444 0.352488 1.93008 0
M  V30 1291 O 123.569 -0.534044 2.09707 0
M  V30 1292 C 124.164 2.80166 1.90505 0
M  V30 1293 C 122.723 2.86876 2.43678 0
M  V30 1294 C 121.87 2.48947 1.22151 0
M  V30 1295 H 124.821 1.56744 0.248384 0
M  V30 1296 H 124.842 2.62311 2.75633 0
M  V30 1297 H 124.354 3.67013 1.26186 0
M  V30 1298 H 122.455 2.04393 3.11536 0
M  V30 1299 H 122.568 3.89885 2.78436 0
M  V30 1300 H 120.932 2.01498 1.5579 0
M  V30 1301 H 121.715 3.38107 0.594866 0
M  V30 1302 N 124.16 -0.719506 1.40217 0
M  V30 1303 C 125.09 -1.8465 1.42922 0
M  V30 1304 C 126.071 -1.67599 0.29062 0
M  V30 1305 O 127.256 -1.87688 0.498677 0
M  V30 1306 C 124.386 -3.22565 1.28722 0
M  V30 1307 C 123.34 -3.54281 2.40144 0
M  V30 1308 C 122.666 -4.91298 2.11023 0
M  V30 1309 C 123.966 -3.55676 3.82481 0
M  V30 1310 H 125.66 -1.82644 2.37237 0
M  V30 1311 H 123.206 -0.877305 1.1419 0
M  V30 1312 H 125.159 -4.01095 1.29232 0
M  V30 1313 H 123.883 -3.25137 0.308811 0
M  V30 1314 H 122.542 -2.78088 2.38877 0
M  V30 1315 H 122.19 -4.90468 1.11582 0
M  V30 1316 H 121.89 -5.13485 2.8567 0
M  V30 1317 H 123.414 -5.72166 2.13209 0
M  V30 1318 H 124.828 -4.24254 3.85592 0
M  V30 1319 H 123.225 -3.89388 4.56614 0
M  V30 1320 H 124.295 -2.55144 4.12346 0
M  V30 1321 N 125.638 -1.25649 -0.95132 0
M  V30 1322 C 126.585 -1.06323 -2.04851 0
M  V30 1323 C 127.555 0.0286491 -1.66075 0
M  V30 1324 O 128.74 -0.12917 -1.90362 0
M  V30 1325 C 125.88 -0.691529 -3.381 0
M  V30 1326 C 124.993 -1.85861 -3.89974 0
M  V30 1327 C 124.128 -1.43096 -5.11563 0
M  V30 1328 C 123.167 -2.56696 -5.55674 0
M  V30 1329 N 122.304 -2.14684 -6.68472 0
M  V30 1330 H 127.144 -2.00222 -2.20715 0
M  V30 1331 H 124.681 -0.997027 -1.08156 0
M  V30 1332 H 126.639 -0.456963 -4.1469 0
M  V30 1333 H 125.269 0.210474 -3.22113 0
M  V30 1334 H 124.321 -2.20639 -3.09875 0
M  V30 1335 H 125.633 -2.71161 -4.18657 0
M  V30 1336 H 124.787 -1.15624 -5.9558 0
M  V30 1337 H 123.526 -0.548722 -4.84603 0
M  V30 1338 H 122.531 -2.84909 -4.7022 0
M  V30 1339 H 123.756 -3.45503 -5.8464 0
M  V30 1340 H 121.702 -1.28881 -6.43215 0
M  V30 1341 H 121.619 -2.9353 -6.96689 0
M  V30 1342 H 122.887 -1.90397 -7.5589 0
M  V30 1343 N 127.117 1.15442 -1.07289 0
M  V30 1344 C 128.394 1.82306 -0.708792 0
M  V30 1345 C 128.774 1.94991 0.808807 0
M  V30 1346 O 128.122 1.50085 1.72298 0
M  V30 1347 C 128.332 3.18695 -1.42247 0
M  V30 1348 C 129.68 3.94341 -1.57417 0
M  V30 1349 O 130.704 3.28247 -1.38319 0
M  V30 1350 O 129.563 5.12839 -1.88834 0
M  V30 1351 H 126.657 0.787628 -0.252132 0
M  V30 1352 H 129.203 1.22559 -1.17377 0
M  V30 1353 H 127.975 3.04557 -2.45684 0
M  V30 1354 H 127.598 3.86128 -0.948223 0
M  V30 1355 N 128.595 0.856903 1.32268 0
M  V30 1356 C 129.505 0.306131 2.32594 0
M  V30 1357 C 130.521 -0.577209 1.64147 0
M  V30 1358 O 131.697 -0.477043 1.95669 0
M  V30 1359 C 128.762 -0.494561 3.43154 0
M  V30 1360 C 127.823 0.415186 4.27288 0
M  V30 1361 C 127.056 -0.347387 5.32568 0
M  V30 1362 O 127.279 -1.57708 5.48165 0
M  V30 1363 O 126.213 0.287982 6.01211 0
M  V30 1364 H 130.039 1.13737 2.81598 0
M  V30 1365 H 127.624 0.619902 1.35932 0
M  V30 1366 H 129.506 -0.948944 4.10576 0
M  V30 1367 H 128.181 -1.30257 2.96336 0
M  V30 1368 H 127.088 0.917793 3.62667 0
M  V30 1369 H 128.421 1.18844 4.77637 0
M  V30 1370 N 130.073 -1.45103 0.615059 0
M  V30 1371 C 131.32 -2.02183 0.113179 0
M  V30 1372 C 131.648 -1.48249 -1.25906 0
M  V30 1373 O 130.903 -0.650265 -1.84581 0
M  V30 1374 C 131.202 -3.57386 0.0318797 0
M  V30 1375 C 130.868 -4.30505 1.34077 0
M  V30 1376 C 129.53 -4.50197 1.69929 0
M  V30 1377 C 131.882 -4.72238 2.20546 0
M  V30 1378 C 129.21 -5.08881 2.91988 0
M  V30 1379 C 131.562 -5.32272 3.41861 0
M  V30 1380 C 130.226 -5.50187 3.77956 0
M  V30 1381 H 129.496 -0.739842 0.0414151 0
M  V30 1382 H 132.143 -1.74073 0.798168 0
M  V30 1383 H 130.448 -3.84817 -0.736409 0
M  V30 1384 H 132.145 -3.99264 -0.372712 0
M  V30 1385 H 128.735 -4.15496 1.05173 0
M  V30 1386 H 132.919 -4.56751 1.94146 0
M  V30 1387 H 128.175 -5.20939 3.2005 0
M  V30 1388 H 132.349 -5.63563 4.09109 0
M  V30 1389 H 129.976 -5.95427 4.72622 0
M  V30 1390 N 131.551 -0.354651 -1.53558 0
M  V30 1391 C 132.498 0.496968 -2.25386 0
M  V30 1392 C 133.468 1.0865 -1.25636 0
M  V30 1393 O 134.653 1.12104 -1.54394 0
M  V30 1394 C 131.793 1.63637 -3.03837 0
M  V30 1395 C 130.906 1.07307 -4.18461 0
M  V30 1396 C 130.041 2.18068 -4.84376 0
M  V30 1397 C 129.08 1.59147 -5.91049 0
M  V30 1398 N 128.217 2.63695 -6.50699 0
M  V30 1399 H 133.057 -0.122075 -2.9775 0
M  V30 1400 H 130.594 -0.0720154 -1.46924 0
M  V30 1401 H 132.552 2.30734 -3.47589 0
M  V30 1402 H 131.182 2.22623 -2.33749 0
M  V30 1403 H 130.234 0.292708 -3.79272 0
M  V30 1404 H 131.546 0.602193 -4.95152 0
M  V30 1405 H 130.7 2.93007 -5.31255 0
M  V30 1406 H 129.439 2.68504 -4.07133 0
M  V30 1407 H 128.444 0.827175 -5.43542 0
M  V30 1408 H 129.669 1.09549 -6.70206 0
M  V30 1409 H 127.615 3.13365 -5.76315 0
M  V30 1410 H 127.532 2.21263 -7.22896 0
M  V30 1411 H 128.8 3.3837 -7.02229 0
M  V30 1412 N 133.029 1.57378 -0.0835403 0
M  V30 1413 C 133.977 2.14602 0.89714 0
M  V30 1414 C 134.971 1.08589 1.30018 0
M  V30 1415 O 136.177 1.26952 1.27606 0
M  V30 1416 H 132.552 0.686346 0.3073 0
M  V30 1417 H 134.523 2.95845 0.38969 0
M  V30 1418 C 133.272 2.73188 2.15089 0
M  V30 1419 H 132.595 3.54442 1.84962 0
M  V30 1420 H 134.035 3.1681 2.81793 0
M  V30 1421 C 132.494 1.68517 2.91725 0
M  V30 1422 O 133.024 1.11718 3.85852 0
M  V30 1423 N 131.23 1.39277 2.55049 0
M  V30 1424 H 130.777 1.85655 1.78577 0
M  V30 1425 H 130.735 0.694791 3.06627 0
M  V30 1426 N 134.507 -0.190092 1.56449 0
M  V30 1427 C 135.735 -0.925772 1.85033 0
M  V30 1428 C 136.15 -1.76638 0.666658 0
M  V30 1429 O 135.507 -1.78822 -0.364565 0
M  V30 1430 C 135.558 -1.81786 3.12468 0
M  V30 1431 O 135.279 -1.01118 4.26271 0
M  V30 1432 C 136.78 -2.6648 3.54265 0
M  V30 1433 H 134 -0.269872 0.614337 0
M  V30 1434 H 136.544 -0.195837 2.0356 0
M  V30 1435 H 134.699 -2.50136 2.95822 0
M  V30 1436 H 135.113 -1.61956 4.98869 0
M  V30 1437 H 136.587 -3.24722 4.46385 0
M  V30 1438 H 137.064 -3.40434 2.77491 0
M  V30 1439 H 137.67 -2.03493 3.73458 0
M  V30 1440 N 135.985 -1.50799 -0.457987 0
M  V30 1441 C 137.233 -1.62121 -1.2067 0
M  V30 1442 C 137.554 -0.329793 -1.92191 0
M  V30 1443 O 136.824 0.653409 -1.84682 0
M  V30 1444 H 135.404 -0.597441 -0.448411 0
M  V30 1445 H 138.066 -1.87637 -0.527096 0
M  V30 1446 H 137.162 -2.43882 -1.94751 0
M  V30 1447 N 137.463 0.71206 -1.40597 0
M  V30 1448 C 138.688 1.50617 -1.42581 0
M  V30 1449 C 139.113 1.88079 -0.0282102 0
M  V30 1450 O 138.471 1.53511 0.964579 0
M  V30 1451 C 138.519 2.7557 -2.3258 0
M  V30 1452 O 137.623 3.72414 -1.77148 0
M  V30 1453 H 136.964 0.453966 -0.484573 0
M  V30 1454 H 139.494 0.876649 -1.84868 0
M  V30 1455 H 139.504 3.2406 -2.47889 0
M  V30 1456 H 138.179 2.47639 -3.34138 0
M  V30 1457 H 136.756 3.31276 -1.71204 0
M  V30 1458 N 138.941 1.26152 0.944643 0
M  V30 1459 C 140.189 1.11271 1.6871 0
M  V30 1460 C 140.51 -0.345166 1.91921 0
M  V30 1461 O 139.78 -1.24387 1.51343 0
M  V30 1462 H 138.36 0.408783 0.625224 0
M  V30 1463 H 141.022 1.58427 1.1352 0
M  V30 1464 H 140.118 1.62879 2.66227 0
M  V30 1465 N 140.419 -1.14872 1.07899 0
M  V30 1466 C 141.349 -2.2193 0.725887 0
M  V30 1467 C 142.33 -1.67622 -0.28927 0
M  V30 1468 O 143.515 -1.93533 -0.160787 0
M  V30 1469 C 140.645 -3.47061 0.128856 0
M  V30 1470 C 139.599 -4.14363 1.07178 0
M  V30 1471 C 138.925 -5.33636 0.337229 0
M  V30 1472 C 140.225 -4.63492 2.40775 0
M  V30 1473 H 141.919 -2.51724 1.62097 0
M  V30 1474 H 139.465 -1.20991 0.780838 0
M  V30 1475 H 141.418 -4.21199 -0.130147 0
M  V30 1476 H 140.142 -3.16617 -0.80134 0
M  V30 1477 H 138.801 -3.42173 1.3158 0
M  V30 1478 H 138.449 -4.99449 -0.596606 0
M  V30 1479 H 138.149 -5.79609 0.965788 0
M  V30 1480 H 139.673 -6.10539 0.0861567 0
M  V30 1481 H 141.087 -5.2913 2.20669 0
M  V30 1482 H 139.484 -5.20148 2.99276 0
M  V30 1483 H 140.554 -3.78834 3.02676 0
M  V30 1484 N 141.898 -0.863906 -1.31812 0
M  V30 1485 C 142.828 -0.330843 -2.31144 0
M  V30 1486 C 143.809 0.575005 -1.60087 0
M  V30 1487 O 144.994 0.493304 -1.8783 0
M  V30 1488 C 142.124 0.47374 -3.44054 0
M  V30 1489 C 141.078 -0.338481 -4.26659 0
M  V30 1490 C 140.404 0.591412 -5.31419 0
M  V30 1491 C 141.704 -1.56926 -4.98168 0
M  V30 1492 H 143.398 -1.16086 -2.75979 0
M  V30 1493 H 140.944 -0.559657 -1.32679 0
M  V30 1494 H 142.897 0.857143 -4.12591 0
M  V30 1495 H 141.621 1.33721 -2.9797 0
M  V30 1496 H 140.28 -0.703754 -3.59782 0
M  V30 1497 H 139.928 1.45199 -4.81587 0
M  V30 1498 H 139.628 0.0519022 -5.87577 0
M  V30 1499 H 141.152 0.97179 -6.02817 0
M  V30 1500 H 142.566 -1.25764 -5.59336 0
M  V30 1501 H 140.963 -2.04739 -5.64094 0
M  V30 1502 H 142.033 -2.32544 -4.25501 0
M  V30 1503 N 143.376 1.44774 -0.622745 0
M  V30 1504 C 144.624 2.01721 -0.123655 0
M  V30 1505 C 144.945 1.49172 1.25589 0
M  V30 1506 O 144.215 0.691974 1.83272 0
M  V30 1507 H 142.795 0.745777 -0.0427225 0
M  V30 1508 H 145.457 1.77382 -0.807559 0
M  V30 1509 H 144.553 3.11984 -0.0849534 0
M  V30 1510 N 144.854 0.36279 1.53368 0
M  V30 1511 C 145.787 -0.528507 2.21996 0
M  V30 1512 C 146.765 -1.0852 1.21087 0
M  V30 1513 O 147.949 -1.14186 1.4998 0
M  V30 1514 C 145.076 -1.72893 2.91249 0
M  V30 1515 C 144.122 -1.29994 4.06207 0
M  V30 1516 S 144.955 -0.303575 5.34639 0
M  V30 1517 C 146.111 -1.51039 6.07403 0
M  V30 1518 H 146.344 0.0543423 2.9725 0
M  V30 1519 H 143.877 0.146889 1.537 0
M  V30 1520 H 145.835 -2.41751 3.31763 0
M  V30 1521 H 144.496 -2.28303 2.15724 0
M  V30 1522 H 143.689 -2.19549 4.53667 0
M  V30 1523 H 143.291 -0.690608 3.67569 0
M  V30 1524 H 145.583 -2.44186 6.31965 0
M  V30 1525 H 146.526 -1.07721 6.99858 0
M  V30 1526 H 146.934 -1.71518 5.37812 0
M  V30 1527 N 146.332 -1.57332 0.0918853 0
M  V30 1528 C 147.295 -2.12708 -0.85369 0
M  V30 1529 C 148.295 -1.05561 -1.213 0
M  V30 1530 O 149.485 -1.31461 -1.14296 0
M  V30 1531 C 146.617 -2.64503 -2.15061 0
M  V30 1532 H 147.81 -2.97573 -0.3729 0
M  V30 1533 H 145.363 -1.55509 -0.157072 0
M  V30 1534 H 146.098 -1.83149 -2.67632 0
M  V30 1535 H 145.883 -3.4284 -1.90272 0
M  V30 1536 H 147.373 -3.07351 -2.82711 0
M  V30 1537 N 147.81 0.181792 -1.56548 0
M  V30 1538 C 148.758 1.24461 -1.965 0
M  V30 1539 C 149.752 1.464 -0.852261 0
M  V30 1540 O 150.958 1.47103 -1.03733 0
M  V30 1541 H 147.333 0.418138 -0.625031 0
M  V30 1542 H 149.304 0.880714 -2.85107 0
M  V30 1543 C 148.053 2.57891 -2.33212 0
M  V30 1544 H 147.376 2.41829 -3.18369 0
M  V30 1545 H 148.816 3.3097 -2.65019 0
M  V30 1546 C 147.275 3.15871 -1.17163 0
M  V30 1547 O 147.805 3.9913 -0.453708 0
M  V30 1548 N 146.011 2.74808 -0.944936 0
M  V30 1549 H 145.558 2.07205 -1.53049 0
M  V30 1550 H 145.516 3.13939 -0.170286 0
M  V30 1551 N 149.288 1.51039 0.449983 0
M  V30 1552 C 150.537 1.62317 1.19733 0
M  V30 1553 C 150.85 0.339101 1.92638 0
M  V30 1554 O 152.056 0.331069 2.69474 0
M  V30 1555 C 150.512 2.86608 2.17678 0
M  V30 1556 C 150.12 4.21972 1.50479 0
M  V30 1557 C 151.864 3.07239 2.92924 0
M  V30 1558 C 149.771 5.37426 2.46834 0
M  V30 1559 H 148.701 0.604532 0.450619 0
M  V30 1560 H 151.352 1.77494 0.465625 0
M  V30 1561 H 149.734 2.65037 2.94231 0
M  V30 1562 H 150.908 4.53878 0.795716 0
M  V30 1563 H 149.223 4.07117 0.874344 0
M  V30 1564 H 151.82 3.90668 3.65079 0
M  V30 1565 H 152.163 2.19807 3.5354 0
M  V30 1566 H 152.696 3.29091 2.23481 0
M  V30 1567 H 149.435 6.27079 1.90926 0
M  V30 1568 H 148.955 5.09912 3.15832 0
M  V30 1569 H 150.634 5.68862 3.08228 0
M  V30 1570 N 150.766 -0.704594 1.40972 0
M  V30 1571 C 152.043 -1.45847 1.30338 0
M  V30 1572 C 152.423 -2.10973 -0.0732344 0
M  V30 1573 O 151.771 -2.00997 -1.08685 0
M  V30 1574 C 151.981 -2.48525 2.45023 0
M  V30 1575 C 153.329 -3.1404 2.8577 0
M  V30 1576 O 154.353 -2.58848 2.44696 0
M  V30 1577 O 153.212 -4.13981 3.56766 0
M  V30 1578 H 150.306 -0.649092 0.512454 0
M  V30 1579 H 152.852 -0.735836 1.52917 0
M  V30 1580 H 151.624 -1.98994 3.36923 0
M  V30 1581 H 151.247 -3.2831 2.24272 0
M  V30 1582 N 152.244 -1.26651 -0.937939 0
M  V30 1583 C 153.174 -1.10993 -2.05433 0
M  V30 1584 C 154.155 -0.0142161 -1.70094 0
M  V30 1585 O 155.34 -0.186837 -1.93299 0
M  V30 1586 C 152.47 -0.745561 -3.39203 0
M  V30 1587 C 151.424 -1.79337 -3.88616 0
M  V30 1588 C 150.75 -1.28324 -5.19073 0
M  V30 1589 C 152.05 -3.19553 -4.13138 0
M  V30 1590 H 153.744 -2.0438 -2.1879 0
M  V30 1591 H 151.29 -0.984041 -1.05131 0
M  V30 1592 H 153.243 -0.622888 -4.16771 0
M  V30 1593 H 151.967 0.22401 -3.25831 0
M  V30 1594 H 150.626 -1.90477 -3.13231 0
M  V30 1595 H 150.274 -0.303414 -5.02084 0
M  V30 1596 H 149.974 -1.98369 -5.53103 0
M  V30 1597 H 151.498 -1.1733 -5.99221 0
M  V30 1598 H 152.912 -3.11471 -4.81309 0
M  V30 1599 H 151.309 -3.87218 -4.58457 0
M  V30 1600 H 152.379 -3.65368 -3.18801 0
M  V30 1601 N 153.722 1.14298 -1.08507 0
M  V30 1602 C 154.632 2.23027 -0.727753 0
M  V30 1603 C 155.648 1.71952 0.26619 0
M  V30 1604 O 156.824 2.011 0.109882 0
M  V30 1605 C 153.889 3.46403 -0.143541 0
M  V30 1606 C 152.95 4.12413 -1.19223 0
M  V30 1607 C 152.183 5.29899 -0.635798 0
M  V30 1608 O 152.406 5.67796 0.544393 0
M  V30 1609 O 151.34 5.85717 -1.38634 0
M  V30 1610 H 155.166 2.55945 -1.63481 0
M  V30 1611 H 152.751 1.22248 -0.858817 0
M  V30 1612 H 154.633 4.21018 0.179404 0
M  V30 1613 H 153.308 3.15206 0.736659 0
M  V30 1614 H 152.215 3.39667 -1.56772 0
M  V30 1615 H 153.548 4.47718 -2.04474 0
M  V30 1616 N 155.201 0.870884 1.31352 0
M  V30 1617 C 156.148 0.325425 2.28494 0
M  V30 1618 C 157.118 -0.576615 1.5577 0
M  V30 1619 O 158.303 -0.508059 1.83911 0
M  V30 1620 C 155.443 -0.466283 3.41935 0
M  V30 1621 C 154.556 0.463378 4.29508 0
M  V30 1622 C 153.691 -0.342544 5.30094 0
M  V30 1623 C 152.73 0.583486 6.09313 0
M  V30 1624 N 151.867 -0.186244 7.01853 0
M  V30 1625 H 156.707 1.15901 2.74538 0
M  V30 1626 H 154.244 0.58294 1.35056 0
M  V30 1627 H 156.202 -0.941085 4.06447 0
M  V30 1628 H 154.832 -1.26456 2.97 0
M  V30 1629 H 153.884 1.05663 3.65431 0
M  V30 1630 H 155.196 1.1734 4.84802 0
M  V30 1631 H 154.35 -0.879816 6.00287 0
M  V30 1632 H 153.089 -1.08585 4.75458 0
M  V30 1633 H 152.094 1.13251 5.3801 0
M  V30 1634 H 153.319 1.32566 6.66035 0
M  V30 1635 H 151.265 -0.912348 6.49625 0
M  V30 1636 H 151.182 0.464422 7.54572 0
M  V30 1637 H 152.45 -0.704716 7.76308 0
M  V30 1638 N 156.679 -1.44442 0.630414 0
M  V30 1639 C 157.904 -2.06927 0.139944 0
M  V30 1640 C 158.329 -1.46795 -1.17613 0
M  V30 1641 O 157.687 -0.569144 -1.72135 0
M  V30 1642 C 157.735 -3.6058 0.0379581 0
M  V30 1643 O 156.839 -3.99937 -1.0062 0
M  V30 1644 H 156.18 -0.658608 0.0844483 0
M  V30 1645 H 158.71 -1.85327 0.866891 0
M  V30 1646 H 158.72 -4.07714 -0.152856 0
M  V30 1647 H 157.395 -4.03728 0.998809 0
M  V30 1648 H 155.972 -3.64436 -0.79001 0
M  V30 1649 N 158.157 -0.370918 -1.53173 0
M  V30 1650 C 159.573 -0.0200818 -1.59587 0
M  V30 1651 C 159.773 1.46279 -1.38581 0
M  V30 1652 O 158.829 2.22506 -1.19363 0
M  V30 1653 C 160.142 -0.4808 -2.96831 0
M  V30 1654 C 161.69 -0.435477 -3.09956 0
M  V30 1655 C 162.165 -0.872092 -4.4962 0
M  V30 1656 N 163.656 -0.827364 -4.55751 0
M  V30 1657 C 164.391 -1.13683 -5.62018 0
M  V30 1658 N 163.887 -1.51584 -6.76014 0
M  V30 1659 N 165.68 -1.05927 -5.52029 0
M  V30 1660 H 157.831 -1.33652 -1.65079 0
M  V30 1661 H 160.094 -0.546634 -0.774529 0
M  V30 1662 H 159.8 -1.51577 -3.1736 0
M  V30 1663 H 159.674 0.129796 -3.76977 0
M  V30 1664 H 162.061 0.590371 -2.89134 0
M  V30 1665 H 162.142 -1.08164 -2.31806 0
M  V30 1666 H 161.786 -1.89608 -4.71181 0
M  V30 1667 H 161.716 -0.203127 -5.26208 0
M  V30 1668 H 164.207 -0.548216 -3.73902 0
M  V30 1669 H 164.52 -1.73609 -7.53047 0
M  V30 1670 H 162.865 -1.55454 -6.77391 0
M  V30 1671 H 166.056 -0.762321 -4.61851 0
M  V30 1672 H 166.229 -1.30378 -6.34749 0
M  V30 1673 N 159.635 1.57281 -0.100228 0
M  V30 1674 C 160.863 1.98879 0.570509 0
M  V30 1675 C 161.278 0.979476 1.61405 0
M  V30 1676 O 160.635 -0.0302288 1.82475 0
M  V30 1677 C 160.686 3.4052 1.2136 0
M  V30 1678 O 160.407 4.37588 0.211786 0
M  V30 1679 C 161.908 3.97149 1.96945 0
M  V30 1680 H 159.128 0.653428 0.152555 0
M  V30 1681 H 161.672 2.03697 -0.18103 0
M  V30 1682 H 159.827 3.367 1.91603 0
M  V30 1683 H 160.241 5.20118 0.676607 0
M  V30 1684 H 161.715 4.98393 2.37294 0
M  V30 1685 H 162.192 3.3525 2.83733 0
M  V30 1686 H 162.798 4.04458 1.31506 0
M  V30 1687 N 161.113 -0.173488 1.56642 0
M  V30 1688 C 162.361 -0.888706 1.81512 0
M  V30 1689 C 162.682 -1.82875 0.676872 0
M  V30 1690 O 161.952 -1.93536 -0.303414 0
M  V30 1691 H 160.532 -0.331164 0.669582 0
M  V30 1692 H 163.194 -0.173823 1.94123 0
M  V30 1693 H 162.29 -1.46691 2.75478 0
M  V30 1694 N 162.591 -1.51276 -0.441967 0
M  V30 1695 C 163.868 -1.54252 -1.20273 0
M  V30 1696 C 164.248 -0.30408 -2.08898 0
M  V30 1697 O 163.596 0.711084 -2.17154 0
M  V30 1698 C 163.806 -2.85406 -2.00859 0
M  V30 1699 C 165.154 -3.37181 -2.58059 0
M  V30 1700 O 166.178 -2.86925 -2.11074 0
M  V30 1701 O 165.037 -4.24858 -3.43741 0
M  V30 1702 H 162.131 -0.619969 -0.547328 0
M  V30 1703 H 164.677 -1.63586 -0.451413 0
M  V30 1704 H 163.449 -3.67003 -1.35736 0
M  V30 1705 H 163.072 -2.79213 -2.83065 0
M  V30 1706 N 164.069 0.697108 -1.41344 0
M  V30 1707 C 164.979 1.84088 -1.45427 0
M  V30 1708 C 165.995 1.70545 -0.34501 0
M  V30 1709 O 167.171 1.92488 -0.592492 0
M  V30 1710 C 164.236 3.20056 -1.33286 0
M  V30 1711 C 163.297 3.45718 -2.54514 0
M  V30 1712 C 162.53 4.75199 -2.42944 0
M  V30 1713 O 162.753 5.51579 -1.45318 0
M  V30 1714 O 161.687 5.0161 -3.32672 0
M  V30 1715 H 165.513 1.836 -2.41919 0
M  V30 1716 H 163.098 0.849966 -1.22866 0
M  V30 1717 H 164.98 4.01236 -1.28794 0
M  V30 1718 H 163.655 3.2123 -0.39909 0
M  V30 1719 H 162.562 2.64474 -2.64583 0
M  V30 1720 H 163.895 3.49356 -3.46715 0
M  V30 1721 N 165.547 1.27147 0.931209 0
M  V30 1722 C 166.796 1.12664 1.67302 0
M  V30 1723 C 167.109 -0.327718 1.92835 0
M  V30 1724 O 168.315 -0.593392 2.64936 0
M  V30 1725 C 166.771 1.9683 3.01307 0
M  V30 1726 C 166.379 3.46901 2.83485 0
M  V30 1727 C 168.123 1.90985 3.79111 0
M  V30 1728 C 166.03 4.23279 4.13024 0
M  V30 1729 H 164.96 0.41803 0.627509 0
M  V30 1730 H 167.611 1.51539 1.03481 0
M  V30 1731 H 165.993 1.50797 3.66164 0
M  V30 1732 H 167.167 4.00773 2.27415 0
M  V30 1733 H 165.482 3.54088 2.19113 0
M  V30 1734 H 168.079 2.45328 4.75098 0
M  V30 1735 H 168.422 0.882718 4.06834 0
M  V30 1736 H 168.955 2.34895 3.21044 0
M  V30 1737 H 165.694 5.26503 3.90481 0
M  V30 1738 H 165.214 3.74186 4.6877 0
M  V30 1739 H 166.893 4.32265 4.81411 0
M  V30 1740 N 167.025 -1.13721 1.09112 0
M  V30 1741 C 168.274 -1.84275 0.82009 0
M  V30 1742 C 168.587 -1.84253 -0.656509 0
M  V30 1743 O 169.793 -2.50668 -1.04296 0
M  V30 1744 C 168.249 -3.30825 1.41714 0
M  V30 1745 C 167.857 -3.39244 2.92605 0
M  V30 1746 C 169.601 -4.06443 1.22492 0
M  V30 1747 C 167.508 -4.80047 3.45411 0
M  V30 1748 H 166.438 -0.690387 0.30312 0
M  V30 1749 H 169.089 -1.28146 1.31343 0
M  V30 1750 H 167.471 -3.86737 0.851498 0
M  V30 1751 H 168.645 -2.93344 3.55367 0
M  V30 1752 H 166.96 -2.77088 3.10823 0
M  V30 1753 H 169.557 -5.10387 1.59402 0
M  V30 1754 H 169.9 -4.15972 0.165299 0
M  V30 1755 H 170.433 -3.56852 1.75788 0
M  V30 1756 H 167.172 -4.75709 4.50978 0
M  V30 1757 H 166.692 -5.26455 2.87411 0
M  V30 1758 H 168.371 -5.48957 3.42425 0
M  V30 1759 N 168.503 -0.877838 -1.30888 0
M  V30 1760 C 169.433 -0.35534 -2.3078 0
M  V30 1761 C 170.414 0.557994 -1.60687 0
M  V30 1762 O 171.599 0.473355 -1.88343 0
M  V30 1763 C 168.729 0.437221 -3.44537 0
M  V30 1764 C 167.683 -0.383715 -4.26276 0
M  V30 1765 C 167.009 0.535014 -5.32017 0
M  V30 1766 C 168.309 -1.62201 -4.96476 0
M  V30 1767 H 170.003 -1.19007 -2.74732 0
M  V30 1768 H 167.549 -0.573698 -1.32078 0
M  V30 1769 H 169.502 0.813334 -4.13477 0
M  V30 1770 H 168.226 1.30553 -2.99372 0
M  V30 1771 H 166.885 -0.741874 -3.59015 0
M  V30 1772 H 166.533 1.40083 -4.831 0
M  V30 1773 H 166.233 -0.0104211 -5.87599 0
M  V30 1774 H 167.757 0.907799 -6.03814 0
M  V30 1775 H 169.171 -1.31689 -5.5797 0
M  V30 1776 H 167.568 -2.10711 -5.61891 0
M  V30 1777 H 168.638 -2.37044 -4.23011 0
M  V30 1778 N 169.982 1.44106 -0.638065 0
M  V30 1779 C 171.393 1.85316 -0.226894 0
M  V30 1780 C 171.744 1.53399 1.22324 0
M  V30 1781 O 170.869 0.975463 1.93167 0
M  V30 1782 C 171.464 3.3637 -0.405013 0
M  V30 1783 C 170.023 3.76369 -0.0482902 0
M  V30 1784 C 169.17 2.67921 -0.715108 0
M  V30 1785 H 172.121 1.34474 -0.842764 0
M  V30 1786 H 172.142 3.7885 0.354 0
M  V30 1787 H 171.654 3.59569 -1.46053 0
M  V30 1788 H 169.755 3.58784 1.00522 0
M  V30 1789 H 169.868 4.76856 -0.463187 0
M  V30 1790 H 168.232 2.54259 -0.149753 0
M  V30 1791 H 169.015 2.93951 -1.77335 0
M  V30 1792 N 171.46 0.379036 1.52974 0
M  V30 1793 C 172.876 0.0285448 1.59574 0
M  V30 1794 C 173.076 -1.45542 1.39355 0
M  V30 1795 O 172.132 -2.2187 1.20541 0
M  V30 1796 C 173.445 0.496535 2.96572 0
M  V30 1797 C 174.993 0.451909 3.0972 0
M  V30 1798 C 175.468 0.895924 4.49152 0
M  V30 1799 N 176.959 0.851522 4.55306 0
M  V30 1800 C 177.694 1.16661 5.61407 0
M  V30 1801 N 177.19 1.55166 6.752 0
M  V30 1802 N 178.983 1.08853 5.51459 0
M  V30 1803 H 171.134 1.34525 1.64367 0
M  V30 1804 H 173.397 0.550733 0.771619 0
M  V30 1805 H 173.103 1.53258 3.16552 0
M  V30 1806 H 172.977 -0.109802 3.7704 0
M  V30 1807 H 175.364 -0.575029 2.89443 0
M  V30 1808 H 175.445 1.09392 2.3123 0
M  V30 1809 H 175.089 1.92104 4.70168 0
M  V30 1810 H 175.019 0.23103 5.26093 0
M  V30 1811 H 177.51 0.568038 3.73606 0
M  V30 1812 H 177.823 1.776 7.52116 0
M  V30 1813 H 176.168 1.59044 6.76557 0
M  V30 1814 H 179.359 0.786803 4.6144 0
M  V30 1815 H 179.532 1.33742 6.34048 0
M  V30 1816 N 172.938 -1.57226 0.108567 0
M  V30 1817 C 174.186 -1.94448 -0.550853 0
M  V30 1818 C 174.507 -0.992074 -1.67878 0
M  V30 1819 O 173.777 -0.0465 -1.95845 0
M  V30 1820 H 172.357 -0.717897 -0.206479 0
M  V30 1821 H 175.019 -1.94112 0.175062 0
M  V30 1822 H 174.115 -2.97218 -0.952259 0
M  V30 1823 N 174.416 0.165178 -1.56732 0
M  V30 1824 C 175.346 1.20651 -1.99914 0
M  V30 1825 C 176.327 1.45827 -0.875705 0
M  V30 1826 O 177.512 1.57057 -1.14223 0
M  V30 1827 C 174.642 2.54401 -2.36427 0
M  V30 1828 C 173.596 2.43782 -3.51787 0
M  V30 1829 C 172.922 3.82078 -3.7406 0
M  V30 1830 C 174.222 1.93732 -4.85041 0
M  V30 1831 H 175.916 0.847534 -2.87154 0
M  V30 1832 H 173.462 0.40625 -1.38151 0
M  V30 1833 H 175.415 3.27458 -2.65234 0
M  V30 1834 H 174.139 2.92098 -1.46103 0
M  V30 1835 H 172.798 1.73178 -3.23117 0
M  V30 1836 H 172.446 4.17179 -2.81017 0
M  V30 1837 H 172.146 3.7584 -4.51684 0
M  V30 1838 H 173.67 4.56712 -4.05274 0
M  V30 1839 H 175.084 2.56569 -5.12684 0
M  V30 1840 H 173.481 1.98428 -5.66345 0
M  V30 1841 H 174.551 0.891962 -4.76626 0
M  V30 1842 N 175.894 1.51508 0.433938 0
M  V30 1843 C 176.804 1.75917 1.5521 0
M  V30 1844 C 177.82 0.643545 1.61662 0
M  V30 1845 O 178.996 0.926183 1.7884 0
M  V30 1846 C 176.061 1.88213 2.91164 0
M  V30 1847 C 175.122 3.12074 2.94802 0
M  V30 1848 C 174.355 3.23774 4.24271 0
M  V30 1849 O 174.578 2.4133 5.16833 0
M  V30 1850 O 173.512 4.16774 4.34262 0
M  V30 1851 H 177.338 2.70777 1.37527 0
M  V30 1852 H 174.923 1.36051 0.617293 0
M  V30 1853 H 176.805 1.98267 3.71845 0
M  V30 1854 H 175.48 0.965413 3.08968 0
M  V30 1855 H 174.387 3.07497 2.13065 0
M  V30 1856 H 175.72 4.03446 2.81943 0
M  V30 1857 N 177.372 -0.689602 1.41712 0
M  V30 1858 C 178.602 -1.47613 1.44548 0
M  V30 1859 C 179.01 -1.89132 0.0509034 0
M  V30 1860 O 178.353 -1.57741 -0.94146 0
M  V30 1861 C 178.415 -2.76596 2.2964 0
M  V30 1862 C 178.079 -2.57245 3.77722 0
M  V30 1863 C 179.076 -2.22804 4.69739 0
M  V30 1864 C 176.761 -2.727 4.2183 0
M  V30 1865 C 178.755 -2.04064 6.03851 0
M  V30 1866 C 176.442 -2.53576 5.56006 0
M  V30 1867 C 177.44 -2.1931 6.46832 0
M  V30 1868 O 177.128 -2.00359 7.78532 0
M  V30 1869 H 176.86 -0.461227 0.494212 0
M  V30 1870 H 179.414 -0.856045 1.86711 0
M  V30 1871 H 177.644 -3.41033 1.82301 0
M  V30 1872 H 179.333 -3.38424 2.24107 0
M  V30 1873 H 180.099 -2.10473 4.36951 0
M  V30 1874 H 175.978 -2.98353 3.51435 0
M  V30 1875 H 179.522 -1.77241 6.74708 0
M  V30 1876 H 175.419 -2.65499 5.88371 0
M  V30 1877 H 176.187 -2.15075 7.89737 0
M  V30 1878 N 178.85 -1.27639 -0.924453 0
M  V30 1879 C 180.078 -1.16989 -1.70649 0
M  V30 1880 C 180.493 0.272869 -1.86818 0
M  V30 1881 O 179.85 1.18549 -1.38753 0
M  V30 1882 C 179.901 -1.85229 -3.10439 0
M  V30 1883 O 179.622 -3.23868 -2.95028 0
M  V30 1884 C 181.123 -1.80746 -4.04779 0
M  V30 1885 H 178.343 -0.406595 -0.53378 0
M  V30 1886 H 180.887 -1.68569 -1.15778 0
M  V30 1887 H 179.042 -1.37545 -3.6216 0
M  V30 1888 H 179.456 -3.57889 -3.83426 0
M  V30 1889 H 180.93 -2.33101 -5.00368 0
M  V30 1890 H 181.407 -0.777499 -4.32263 0
M  V30 1891 H 182.013 -2.28059 -3.58984 0
M  V30 1892 N 180.328 1.1314 -1.09713 0
M  V30 1893 C 181.574 1.84757 -0.836224 0
M  V30 1894 C 181.907 1.8347 0.636598 0
M  V30 1895 O 181.182 1.27491 1.46889 0
M  V30 1896 C 181.465 3.32782 -1.37578 0
M  V30 1897 C 181.318 3.42567 -2.91493 0
M  V30 1898 C 182.637 4.28307 -1.01198 0
M  V30 1899 H 179.756 0.67082 -0.305236 0
M  V30 1900 H 182.398 1.3278 -1.35903 0
M  V30 1901 H 180.548 3.77177 -0.931097 0
M  V30 1902 H 182.22 3.06862 -3.44432 0
M  V30 1903 H 180.463 2.83349 -3.28475 0
M  V30 1904 H 181.134 4.46674 -3.24324 0
M  V30 1905 H 183.61 3.91999 -1.39556 0
M  V30 1906 H 182.486 5.30307 -1.41653 0
M  V30 1907 H 182.747 4.42029 0.0794833 0
M  V30 1908 N 181.806 0.884767 1.30421 0
M  V30 1909 C 182.716 0.355398 2.31892 0
M  V30 1910 C 183.732 -0.542261 1.65335 0
M  V30 1911 O 184.908 -0.435432 1.96637 0
M  V30 1912 C 181.973 -0.421661 3.44126 0
M  V30 1913 C 181.034 0.505727 4.26311 0
M  V30 1914 C 180.267 -0.234343 5.33185 0
M  V30 1915 O 180.49 -1.46045 5.51386 0
M  V30 1916 O 179.424 0.415443 6.00465 0
M  V30 1917 H 183.25 1.19685 2.79122 0
M  V30 1918 H 180.835 0.648596 1.34587 0
M  V30 1919 H 182.717 -0.861641 4.12497 0
M  V30 1920 H 181.392 -1.23942 2.99032 0
M  V30 1921 H 180.299 0.994513 3.60639 0
M  V30 1922 H 181.632 1.28948 4.75009 0
M  V30 1923 N 183.284 -1.43765 0.645699 0
M  V30 1924 C 184.194 -2.34544 -0.0512957 0
M  V30 1925 C 185.21 -1.53455 -0.82022 0
M  V30 1926 O 186.386 -1.86133 -0.769176 0
M  V30 1927 C 183.451 -3.31636 -1.01087 0
M  V30 1928 C 182.512 -4.2863 -0.239712 0
M  V30 1929 C 181.745 -5.21084 -1.15358 0
M  V30 1930 O 181.968 -5.1779 -2.39269 0
M  V30 1931 O 180.902 -5.98593 -0.630038 0
M  V30 1932 H 184.728 -2.95624 0.695718 0
M  V30 1933 H 182.313 -1.43781 0.405882 0
M  V30 1934 H 184.195 -3.9136 -1.56254 0
M  V30 1935 H 182.87 -2.73069 -1.73824 0
M  V30 1936 H 181.777 -3.72408 0.355356 0
M  V30 1937 H 183.11 -4.90157 0.447936 0
M  V30 1938 N 184.763 -0.387143 -1.52771 0
M  V30 1939 C 186.003 0.195537 -2.03463 0
M  V30 1940 C 186.367 1.44222 -1.26744 0
M  V30 1941 O 187.568 2.10192 -1.67549 0
M  V30 1942 C 185.839 0.459097 -3.54439 0
M  V30 1943 S 187.398 1.01237 -4.26962 0
M  V30 1944 H 184.216 0.0552675 -0.708849 0
M  V30 1945 H 186.818 -0.534992 -1.88037 0
M  V30 1946 H 185.522 -0.455382 -4.07866 0
M  V30 1947 H 185.053 1.21811 -3.74066 0
M  V30 1948 H 187.068 2.29492 -4.39941 0
M  V30 1949 N 186.241 1.57166 -0.116904 0
M  V30 1950 C 187.469 1.99473 0.549383 0
M  V30 1951 C 187.884 0.996541 1.60357 0
M  V30 1952 O 187.241 -0.0108731 1.82497 0
M  V30 1953 C 187.292 3.41788 1.17741 0
M  V30 1954 O 187.013 4.37788 0.165362 0
M  V30 1955 C 188.514 3.99216 1.92722 0
M  V30 1956 H 185.734 0.655009 0.145616 0
M  V30 1957 H 188.278 2.03494 -0.202625 0
M  V30 1958 H 186.433 3.38713 1.88021 0
M  V30 1959 H 186.847 5.20806 0.621403 0
M  V30 1960 H 188.321 5.00882 2.31995 0
M  V30 1961 H 188.798 3.3824 2.80161 0
M  V30 1962 H 189.404 4.0583 1.27209 0
M  V30 1963 N 187.719 -0.156864 1.56817 0
M  V30 1964 C 188.959 -0.877453 1.84608 0
M  V30 1965 C 189.323 -1.78791 0.699845 0
M  V30 1966 O 190.524 -2.5472 0.858553 0
M  V30 1967 C 188.795 -1.63992 3.17555 0
M  V30 1968 S 190.354 -2.40729 3.66872 0
M  V30 1969 H 187.172 -0.293612 0.647544 0
M  V30 1970 H 189.774 -0.138099 1.95012 0
M  V30 1971 H 188.478 -0.962363 3.98957 0
M  V30 1972 H 188.009 -2.42038 3.10131 0
M  V30 1973 H 190.024 -3.65725 3.3535 0
M  V30 1974 N 189.197 -1.51736 -0.425897 0
M  V30 1975 C 190.107 -1.76738 -1.54275 0
M  V30 1976 C 191.123 -0.65211 -1.61318 0
M  V30 1977 O 192.299 -0.935654 -1.78346 0
M  V30 1978 C 189.364 -1.89755 -2.90162 0
M  V30 1979 C 188.425 -3.13633 -2.93143 0
M  V30 1980 C 187.658 -3.2602 -4.22548 0
M  V30 1981 O 187.881 -2.44067 -5.15546 0
M  V30 1982 O 186.815 -4.19071 -4.32046 0
M  V30 1983 H 190.641 -2.71502 -1.36089 0
M  V30 1984 H 188.226 -1.36376 -0.610069 0
M  V30 1985 H 190.108 -2.00236 -3.70788 0
M  V30 1986 H 188.783 -0.981785 -3.08452 0
M  V30 1987 H 187.69 -3.08622 -2.11431 0
M  V30 1988 H 189.023 -4.04936 -2.798 0
M  V30 1989 N 190.675 0.682077 -1.42076 0
M  V30 1990 C 191.952 1.43755 -1.32642 0
M  V30 1991 C 192.332 2.11063 0.0396611 0
M  V30 1992 O 191.68 2.02701 1.05474 0
M  V30 1993 C 191.89 2.44596 -2.48946 0
M  V30 1994 C 193.238 3.09454 -2.9073 0
M  V30 1995 O 194.262 2.54922 -2.48783 0
M  V30 1996 O 193.121 4.08253 -3.63307 0
M  V30 1997 H 190.215 0.640857 -0.522715 0
M  V30 1998 H 192.761 0.711415 -1.54068 0
M  V30 1999 H 191.533 1.93609 -3.40046 0
M  V30 2000 H 191.156 3.24701 -2.29467 0
M  V30 2001 N 192.153 1.28127 0.917671 0
M  V30 2002 C 193.393 1.163 1.68088 0
M  V30 2003 C 193.757 -0.284515 1.8988 0
M  V30 2004 O 194.958 -0.525413 2.63615 0
M  V30 2005 C 193.229 1.93546 3.00457 0
M  V30 2006 S 194.788 1.98048 3.91564 0
M  V30 2007 H 191.606 0.415005 0.577315 0
M  V30 2008 H 194.208 1.62173 1.09179 0
M  V30 2009 H 192.912 2.97888 2.82295 0
M  V30 2010 H 192.443 1.48207 3.64415 0
M  V30 2011 H 194.458 1.08415 4.84211 0
M  V30 2012 N 193.631 -1.12557 1.10312 0
M  V30 2013 C 194.88 -1.83395 0.839588 0
M  V30 2014 C 195.193 -1.84939 -0.636929 0
M  V30 2015 O 196.399 -2.51761 -1.01631 0
M  V30 2016 C 194.855 -3.29303 1.45215 0
M  V30 2017 C 194.463 -3.36122 2.96186 0
M  V30 2018 C 196.207 -4.05121 1.26796 0
M  V30 2019 C 194.114 -4.76357 3.50483 0
M  V30 2020 H 193.044 -0.687133 0.310425 0
M  V30 2021 H 195.695 -1.26746 1.32694 0
M  V30 2022 H 194.077 -3.85812 0.892469 0
M  V30 2023 H 195.251 -2.89559 3.58458 0
M  V30 2024 H 193.566 -2.73776 3.13745 0
M  V30 2025 H 196.163 -5.08668 1.64806 0
M  V30 2026 H 196.506 -4.15773 0.209409 0
M  V30 2027 H 197.039 -3.54967 1.79563 0
M  V30 2028 H 193.778 -4.70899 4.55998 0
M  V30 2029 H 193.298 -5.23377 2.92978 0
M  V30 2030 H 194.977 -5.45294 3.48228 0
M  V30 2031 N 195.109 -0.891671 -1.2995 0
M  V30 2032 C 196.056 -0.361736 -2.27948 0
M  V30 2033 C 197.026 0.551761 -1.56668 0
M  V30 2034 O 198.211 0.478736 -1.84696 0
M  V30 2035 C 195.351 0.411825 -3.42634 0
M  V30 2036 C 194.464 -0.531651 -4.28716 0
M  V30 2037 C 193.599 0.258167 -5.30572 0
M  V30 2038 C 192.638 -0.680349 -6.08307 0
M  V30 2039 N 191.775 0.0745613 -7.0206 0
M  V30 2040 H 196.615 -1.20254 -2.72659 0
M  V30 2041 H 194.152 -0.604352 -1.34112 0
M  V30 2042 H 196.11 0.876304 -4.07893 0
M  V30 2043 H 194.74 1.21715 -2.98974 0
M  V30 2044 H 193.792 -1.11463 -3.63703 0
M  V30 2045 H 195.104 -1.25038 -4.82874 0
M  V30 2046 H 194.258 0.784204 -6.0161 0
M  V30 2047 H 192.997 1.01008 -4.77126 0
M  V30 2048 H 192.002 -1.21796 -5.3614 0
M  V30 2049 H 193.227 -1.43145 -6.63842 0
M  V30 2050 H 191.173 0.808883 -6.50994 0
M  V30 2051 H 191.09 -0.584409 -7.53738 0
M  V30 2052 H 192.358 0.581123 -7.77331 0
M  V30 2053 N 196.587 1.43421 -0.653314 0
M  V30 2054 C 197.812 2.06678 -0.172846 0
M  V30 2055 C 198.237 1.48648 1.15262 0
M  V30 2056 O 197.595 0.596457 1.71208 0
M  V30 2057 C 197.643 3.60474 -0.0953184 0
M  V30 2058 O 196.747 4.01487 0.942442 0
M  V30 2059 H 196.088 0.657181 -0.0949155 0
M  V30 2060 H 198.618 1.83925 -0.896265 0
M  V30 2061 H 198.628 4.07905 0.0879728 0
M  V30 2062 H 197.303 4.02088 -1.06291 0
M  V30 2063 H 195.88 3.65646 0.731932 0
M  V30 2064 N 198.065 0.39524 1.52563 0
M  V30 2065 C 199.012 -0.437036 2.26624 0
M  V30 2066 C 199.982 -1.05281 1.28472 0
M  V30 2067 O 201.167 -1.07971 1.57311 0
M  V30 2068 C 198.307 -1.55524 3.08069 0
M  V30 2069 C 197.42 -0.961745 4.21158 0
M  V30 2070 C 196.555 -2.05149 4.89987 0
M  V30 2071 C 195.594 -1.4342 5.95061 0
M  V30 2072 N 194.731 -2.46351 6.57462 0
M  V30 2073 H 199.571 0.200976 2.97322 0
M  V30 2074 H 197.108 0.110944 1.46681 0
M  V30 2075 H 199.066 -2.21437 3.53584 0
M  V30 2076 H 197.696 -2.16348 2.3957 0
M  V30 2077 H 196.748 -0.192048 3.79915 0
M  V30 2078 H 198.06 -0.470701 4.96574 0
M  V30 2079 H 197.214 -2.78819 5.38837 0
M  V30 2080 H 195.953 -2.57615 4.14109 0
M  V30 2081 H 194.958 -0.682774 5.45544 0
M  V30 2082 H 196.183 -0.917416 6.72875 0
M  V30 2083 H 194.129 -2.97975 5.8442 0
M  V30 2084 H 194.046 -2.02019 7.28508 0
M  V30 2085 H 195.314 -3.19633 7.10954 0
M  V30 2086 N 199.544 -1.57102 0.125237 0
M  V30 2087 C 200.955 -1.82384 -0.399142 0
M  V30 2088 C 201.306 -1.04276 -1.66195 0
M  V30 2089 O 200.431 -0.281269 -2.14564 0
M  V30 2090 C 201.026 -3.30821 -0.730932 0
M  V30 2091 C 199.585 -3.56762 -1.19992 0
M  V30 2092 C 198.732 -2.7649 -0.211792 0
M  V30 2093 H 201.683 -1.54786 0.350277 0
M  V30 2094 H 201.704 -3.4579 -1.58775 0
M  V30 2095 H 201.216 -3.87643 0.188345 0
M  V30 2096 H 199.317 -3.05305 -2.13588 0
M  V30 2097 H 199.43 -4.65317 -1.14093 0
M  V30 2098 H 197.794 -2.4489 -0.700085 0
M  V30 2099 H 198.577 -3.36073 0.700691 0
M  V30 2100 N 201.022 0.148545 -1.56898 0
M  V30 2101 C 201.969 1.18345 -1.98149 0
M  V30 2102 C 202.939 1.42772 -0.848848 0
M  V30 2103 O 204.124 1.55132 -1.11079 0
M  V30 2104 C 201.264 2.51231 -2.36594 0
M  V30 2105 C 200.377 2.33991 -3.63142 0
M  V30 2106 C 199.512 3.59902 -3.90697 0
M  V30 2107 C 198.551 3.37692 -5.1052 0
M  V30 2108 N 197.688 4.5573 -5.34092 0
M  V30 2109 H 202.528 0.82467 -2.86362 0
M  V30 2110 H 200.065 0.395756 -1.41676 0
M  V30 2111 H 202.023 3.28713 -2.56912 0
M  V30 2112 H 200.653 2.85059 -1.51463 0
M  V30 2113 H 199.705 1.47572 -3.50609 0
M  V30 2114 H 201.017 2.13539 -4.5078 0
M  V30 2115 H 200.171 4.45813 -4.11505 0
M  V30 2116 H 198.91 3.83357 -3.01477 0
M  V30 2117 H 197.915 2.5017 -4.89587 0
M  V30 2118 H 199.14 3.15637 -6.0129 0
M  V30 2119 H 197.086 4.79361 -4.47827 0
M  V30 2120 H 197.003 4.38274 -6.15996 0
M  V30 2121 H 198.271 5.42858 -5.59397 0
M  V30 2122 N 202.5 1.5196 0.417844 0
M  V30 2123 C 203.746 1.65836 1.16732 0
M  V30 2124 C 204.079 0.382881 1.90388 0
M  V30 2125 O 203.354 -0.618368 1.84408 0
M  V30 2126 C 203.637 2.87466 2.16876 0
M  V30 2127 C 203.49 4.25041 1.47174 0
M  V30 2128 C 204.809 3.04613 3.17646 0
M  V30 2129 H 201.928 0.603515 0.423011 0
M  V30 2130 H 204.57 1.84494 0.454105 0
M  V30 2131 H 202.72 2.71689 2.777 0
M  V30 2132 H 204.392 4.52527 0.895376 0
M  V30 2133 H 202.635 4.26843 0.773806 0
M  V30 2134 H 203.306 5.06176 2.20204 0
M  V30 2135 H 205.782 3.1923 2.66892 0
M  V30 2136 H 204.658 3.91247 3.8499 0
M  V30 2137 H 204.919 2.17541 3.84874 0
M  V30 2138 N 203.978 -0.674533 1.42435 0
M  V30 2139 C 205.255 -1.4305 1.33402 0
M  V30 2140 C 205.635 -2.11081 -0.0284674 0
M  V30 2141 O 204.983 -2.03257 -1.04397 0
M  V30 2142 C 205.193 -2.43272 2.50239 0
M  V30 2143 C 206.541 -3.07907 2.92367 0
M  V30 2144 O 207.565 -2.53599 2.50132 0
M  V30 2145 O 206.424 -4.0632 3.65467 0
M  V30 2146 H 203.518 -0.638076 0.526106 0
M  V30 2147 H 206.064 -0.703235 1.54443 0
M  V30 2148 H 204.836 -1.91803 3.41068 0
M  V30 2149 H 204.459 -3.23479 2.31186 0
M  V30 2150 N 205.456 -1.28612 -0.910864 0
M  V30 2151 C 206.681 -1.1891 -1.69927 0
M  V30 2152 C 207.106 0.248372 -1.86453 0
M  V30 2153 O 206.464 1.17961 -1.37676 0
M  V30 2154 C 206.512 -1.89578 -3.06745 0
M  V30 2155 O 205.616 -1.20521 -3.94396 0
M  V30 2156 H 204.957 -0.412632 -0.520222 0
M  V30 2157 H 207.487 -1.69985 -1.1387 0
M  V30 2158 H 207.497 -1.97597 -3.56958 0
M  V30 2159 H 206.172 -2.94136 -2.94035 0
M  V30 2160 H 204.749 -1.20684 -3.52831 0
M  V30 2161 N 206.934 1.1197 -1.10907 0
M  V30 2162 C 208.211 1.79959 -0.766432 0
M  V30 2163 C 208.591 1.97466 0.746363 0
M  V30 2164 O 207.939 1.55491 1.67436 0
M  V30 2165 C 208.149 3.14009 -1.52314 0
M  V30 2166 C 209.497 3.89134 -1.69883 0
M  V30 2167 O 210.521 3.2368 -1.48692 0
M  V30 2168 O 209.38 5.06572 -2.05054 0
M  V30 2169 H 206.474 0.779208 -0.277062 0
M  V30 2170 H 209.02 1.18762 -1.21217 0
M  V30 2171 H 207.792 2.96587 -2.55249 0
M  V30 2172 H 207.415 3.82915 -1.07059 0
M  V30 2173 N 208.412 0.89855 1.29475 0
M  V30 2174 C 209.362 0.346767 2.25348 0
M  V30 2175 C 210.346 -0.532509 1.51833 0
M  V30 2176 O 211.538 -0.374714 1.72988 0
M  V30 2177 C 208.667 -0.425681 3.40651 0
M  V30 2178 C 207.753 0.46845 4.21505 0
M  V30 2179 N 208.144 1.57514 4.80648 0
M  V30 2180 C 206.442 0.26603 4.45206 0
M  V30 2181 C 207.143 2.12889 5.41344 0
M  V30 2182 N 206.119 1.42208 5.24669 0
M  V30 2183 H 209.921 1.19219 2.68634 0
M  V30 2184 H 207.435 0.749473 1.44072 0
M  V30 2185 H 209.432 -0.837716 4.08397 0
M  V30 2186 H 208.092 -1.26838 2.98902 0
M  V30 2187 H 209.103 1.95789 4.79465 0
M  V30 2188 H 205.78 -0.538394 4.14014 0
M  V30 2189 H 207.17 3.05901 5.98226 0
M  V30 2190 N 209.89 -1.43072 0.660911 0
M  V30 2191 C 211.13 -2.03596 0.181146 0
M  V30 2192 C 211.494 -1.51057 -1.18515 0
M  V30 2193 O 212.695 -2.03275 -1.75877 0
M  V30 2194 C 210.966 -3.56845 0.19911 0
M  V30 2195 S 212.525 -4.38289 -0.211684 0
M  V30 2196 H 209.343 -0.706954 0.0757479 0
M  V30 2197 H 211.945 -1.75027 0.870965 0
M  V30 2198 H 210.649 -3.92583 1.1961 0
M  V30 2199 H 210.18 -3.90067 -0.510996 0
M  V30 2200 H 212.195 -4.74583 -1.44863 0
M  V30 2201 N 211.368 -0.403325 -1.52352 0
M  V30 2202 C 212.615 0.174347 -2.01748 0
M  V30 2203 C 212.943 1.45636 -1.2892 0
M  V30 2204 O 212.198 1.9193 -0.382258 0
M  V30 2205 C 212.497 0.474665 -3.54234 0
M  V30 2206 C 212.163 -0.717458 -4.45155 0
M  V30 2207 C 210.825 -1.04447 -4.69728 0
M  V30 2208 C 213.177 -1.51432 -4.98716 0
M  V30 2209 C 210.505 -2.16963 -5.45109 0
M  V30 2210 C 212.857 -2.6302 -5.75329 0
M  V30 2211 C 211.521 -2.96213 -5.98175 0
M  V30 2212 H 210.791 0.0637981 -0.738248 0
M  V30 2213 H 213.438 -0.543553 -1.83624 0
M  V30 2214 H 211.743 1.27406 -3.70506 0
M  V30 2215 H 213.44 0.934496 -3.89959 0
M  V30 2216 H 210.03 -0.452596 -4.26204 0
M  V30 2217 H 214.214 -1.27491 -4.79645 0
M  V30 2218 H 209.47 -2.43034 -5.61021 0
M  V30 2219 H 213.644 -3.25158 -6.15829 0
M  V30 2220 H 211.271 -3.83516 -6.56368 0
M  V30 2221 N 212.846 1.57033 -0.133567 0
M  V30 2222 C 214.257 1.82593 0.389464 0
M  V30 2223 C 214.608 1.05156 1.6564 0
M  V30 2224 O 213.733 0.292644 2.14412 0
M  V30 2225 C 214.328 3.31204 0.713377 0
M  V30 2226 C 212.887 3.57393 1.18098 0
M  V30 2227 C 212.034 2.76598 0.197126 0
M  V30 2228 H 214.985 1.54598 -0.358481 0
M  V30 2229 H 215.006 3.46627 1.56939 0
M  V30 2230 H 214.518 3.87537 -0.2089 0
M  V30 2231 H 212.619 3.06433 2.11966 0
M  V30 2232 H 212.732 4.65915 1.11624 0
M  V30 2233 H 211.096 2.45257 0.687088 0
M  V30 2234 H 211.879 3.35697 -0.718504 0
M  V30 2235 N 214.325 -0.140222 1.56975 0
M  V30 2236 C 215.255 -1.17456 2.01808 0
M  V30 2237 C 216.236 -1.44415 0.898794 0
M  V30 2238 O 217.421 -1.5522 1.16707 0
M  V30 2239 C 214.551 -2.50607 2.40444 0
M  V30 2240 C 213.505 -2.38155 3.55621 0
M  V30 2241 C 212.831 -3.76078 3.80091 0
M  V30 2242 C 214.131 -1.85991 4.88062 0
M  V30 2243 H 215.825 -0.801743 2.88466 0
M  V30 2244 H 213.371 -0.38422 1.38779 0
M  V30 2245 H 215.324 -3.23197 2.7041 0
M  V30 2246 H 214.048 -2.89737 1.50732 0
M  V30 2247 H 212.707 -1.68016 3.25832 0
M  V30 2248 H 212.355 -4.12656 2.87618 0
M  V30 2249 H 212.055 -3.68606 4.57606 0
M  V30 2250 H 213.579 -4.50206 4.12488 0
M  V30 2251 H 214.993 -2.4838 5.16701 0
M  V30 2252 H 213.39 -1.89393 5.6943 0
M  V30 2253 H 214.46 -0.816023 4.77984 0
M  V30 2254 N 215.803 -1.52179 -0.40978 0
M  V30 2255 C 217.214 -1.58377 -0.988615 0
M  V30 2256 C 217.565 -0.423879 -1.91566 0
M  V30 2257 O 216.69 0.455844 -2.11544 0
M  V30 2258 C 217.285 -2.87044 -1.79976 0
M  V30 2259 C 215.844 -2.95722 -2.32863 0
M  V30 2260 C 214.991 -2.53309 -1.12828 0
M  V30 2261 H 217.942 -1.57558 -0.190039 0
M  V30 2262 H 217.963 -2.7236 -2.65707 0
M  V30 2263 H 217.475 -3.71444 -1.12478 0
M  V30 2264 H 215.576 -2.15814 -3.03735 0
M  V30 2265 H 215.689 -3.99951 -2.63773 0
M  V30 2266 H 214.053 -2.07142 -1.48204 0
M  V30 2267 H 214.836 -3.40082 -0.46897 0
M  V30 2268 N 217.281 0.66697 -1.42791 0
M  V30 2269 C 218.244 1.76211 -1.46568 0
M  V30 2270 C 219.244 1.56896 -0.352196 0
M  V30 2271 O 220.434 1.63044 -0.613364 0
M  V30 2272 C 217.566 3.14935 -1.30494 0
M  V30 2273 H 218.759 1.74247 -2.44086 0
M  V30 2274 H 216.312 0.877342 -1.29354 0
M  V30 2275 H 217.047 3.2252 -0.339301 0
M  V30 2276 H 216.832 3.30359 -2.11199 0
M  V30 2277 H 218.322 3.94821 -1.36038 0
M  V30 2278 N 218.759 1.29093 0.90403 0
M  V30 2279 C 219.692 1.08176 2.00931 0
M  V30 2280 C 220.67 -0.005083 1.62599 0
M  V30 2281 O 221.854 0.144765 1.87943 0
M  V30 2282 C 218.981 0.645897 3.32484 0
M  V30 2283 C 218.027 1.73081 3.89801 0
M  V30 2284 S 218.86 3.32905 4.19446 0
M  V30 2285 C 220.016 2.91176 5.54046 0
M  V30 2286 H 220.249 2.01752 2.18365 0
M  V30 2287 H 217.782 1.13191 1.0501 0
M  V30 2288 H 219.74 0.401131 4.08535 0
M  V30 2289 H 218.401 -0.270188 3.12936 0
M  V30 2290 H 217.594 1.37768 4.84805 0
M  V30 2291 H 217.196 1.92888 3.20422 0
M  V30 2292 H 219.488 2.37952 6.34338 0
M  V30 2293 H 220.431 3.85014 5.94281 0
M  V30 2294 H 220.839 2.296 5.15698 0
M  V30 2295 N 220.237 -1.11381 1.11499 0
M  V30 2296 C 221.147 -2.21019 0.786628 0
M  V30 2297 C 222.163 -1.72597 -0.220507 0
M  V30 2298 O 223.339 -2.01321 -0.0565251 0
M  V30 2299 C 220.404 -3.459 0.235333 0
M  V30 2300 C 219.465 -4.09107 1.30115 0
M  V30 2301 C 218.698 -5.28027 0.776068 0
M  V30 2302 O 218.921 -5.6904 -0.393661 0
M  V30 2303 O 217.855 -5.81835 1.54114 0
M  V30 2304 H 221.681 -2.51521 1.70209 0
M  V30 2305 H 219.266 -1.19928 0.890928 0
M  V30 2306 H 221.148 -4.21346 -0.067715 0
M  V30 2307 H 219.823 -3.17049 -0.652828 0
M  V30 2308 H 218.73 -3.35391 1.65722 0
M  V30 2309 H 220.063 -4.42139 2.16273 0
M  V30 2310 N 221.715 -0.905404 -1.28997 0
M  V30 2311 C 222.625 -0.392246 -2.31298 0
M  V30 2312 C 223.641 0.515889 -1.66176 0
M  V30 2313 O 224.817 0.404093 -1.97304 0
M  V30 2314 C 221.882 0.36686 -3.44754 0
M  V30 2315 C 220.943 -0.573485 -4.25452 0
M  V30 2316 C 220.176 0.149488 -5.33491 0
M  V30 2317 O 220.399 1.37255 -5.5364 0
M  V30 2318 O 219.333 -0.510919 -5.99728 0
M  V30 2319 H 223.159 -1.2411 -2.77183 0
M  V30 2320 H 220.744 -0.669926 -1.33538 0
M  V30 2321 H 222.626 0.795907 -4.13816 0
M  V30 2322 H 221.301 1.19169 -3.00966 0
M  V30 2323 H 220.208 -1.05176 -3.59011 0
M  V30 2324 H 221.541 -1.36489 -4.72897 0
M  V30 2325 N 223.193 1.4272 -0.668489 0
M  V30 2326 C 224.441 2.01226 -0.187769 0
M  V30 2327 C 224.762 1.53092 1.2078 0
M  V30 2328 O 224.032 0.74993 1.80977 0
M  V30 2329 H 222.612 0.744041 -0.0664272 0
M  V30 2330 H 225.274 1.74723 -0.863583 0
M  V30 2331 H 224.37 3.11556 -0.184166 0
M  V30 2332 N 224.671 0.411399 1.52136 0
M  V30 2333 C 225.634 -0.401089 2.25663 0
M  V30 2334 C 226.634 -0.971732 1.28117 0
M  V30 2335 O 227.824 -0.850254 1.52041 0
M  V30 2336 C 224.956 -1.56483 3.02863 0
M  V30 2337 H 226.149 0.24295 2.98914 0
M  V30 2338 H 223.702 0.163968 1.55438 0
M  V30 2339 H 224.437 -2.24567 2.33967 0
M  V30 2340 H 224.222 -1.16211 3.74483 0
M  V30 2341 H 225.712 -2.13951 3.58629 0
M  V30 2342 N 226.149 -1.5696 0.141893 0
M  V30 2343 C 227.377 -2.00322 -0.517579 0
M  V30 2344 C 227.792 -1.02193 -1.58752 0
M  V30 2345 O 227.149 -0.0181619 -1.82491 0
M  V30 2346 C 227.2 -3.43618 -1.12289 0
M  V30 2347 O 226.921 -4.37995 -0.0956929 0
M  V30 2348 C 228.422 -4.02231 -1.86347 0
M  V30 2349 H 225.642 -0.657243 -0.135177 0
M  V30 2350 H 228.186 -2.03146 0.234973 0
M  V30 2351 H 226.341 -3.41662 -1.82609 0
M  V30 2352 H 226.755 -5.21729 -0.538469 0
M  V30 2353 H 228.229 -5.04509 -2.23997 0
M  V30 2354 H 228.706 -3.42655 -2.74744 0
M  V30 2355 H 229.312 -4.07802 -1.20737 0
M  V30 2356 N 227.627 0.131896 -1.57047 0
M  V30 2357 C 228.876 0.84044 -1.83356 0
M  V30 2358 C 229.189 1.81646 -0.725535 0
M  V30 2359 O 230.395 2.57025 -0.874659 0
M  V30 2360 C 228.851 1.54528 -3.25037 0
M  V30 2361 C 228.459 0.610902 -4.43815 0
M  V30 2362 C 230.203 2.23972 -3.60606 0
M  V30 2363 C 228.11 1.31823 -5.76521 0
M  V30 2364 H 227.04 0.317599 -0.683847 0
M  V30 2365 H 229.691 0.0931561 -1.83263 0
M  V30 2366 H 228.073 2.33873 -3.19561 0
M  V30 2367 H 229.247 -0.148407 -4.60561 0
M  V30 2368 H 227.562 0.0241016 -4.16393 0
M  V30 2369 H 230.159 2.77558 -4.57018 0
M  V30 2370 H 230.502 3.01173 -2.87403 0
M  V30 2371 H 231.035 1.51529 -3.6781 0
M  V30 2372 H 227.774 0.587771 -6.52859 0
M  V30 2373 H 227.294 2.04987 -5.63685 0
M  V30 2374 H 228.973 1.855 -6.19838 0
M  V30 2375 N 229.106 1.52395 0.401703 0
M  V30 2376 C 230.036 1.79231 1.49661 0
M  V30 2377 C 231.017 0.643654 1.57452 0
M  V30 2378 O 232.202 0.889989 1.72606 0
M  V30 2379 C 229.332 1.94971 2.87409 0
M  V30 2380 C 228.286 3.10604 2.94465 0
M  V30 2381 C 227.612 3.11577 4.34538 0
M  V30 2382 C 228.912 4.49921 2.6527 0
M  V30 2383 H 230.606 2.70917 1.27454 0
M  V30 2384 H 228.152 1.30362 0.6117 0
M  V30 2385 H 230.105 2.12328 3.63999 0
M  V30 2386 H 228.829 0.999632 3.10926 0
M  V30 2387 H 227.488 2.93009 2.20321 0
M  V30 2388 H 227.136 2.14277 4.55076 0
M  V30 2389 H 226.836 3.89247 4.40183 0
M  V30 2390 H 228.36 3.31073 5.13053 0
M  V30 2391 H 229.774 4.67683 3.31581 0
M  V30 2392 H 228.171 5.29564 2.82281 0
M  V30 2393 H 229.241 4.57507 1.60671 0
M  V30 2394 N 230.584 -0.659388 1.43143 0
M  V30 2395 C 231.83 -1.42145 1.44647 0
M  V30 2396 C 232.163 -1.9408 0.0681907 0
M  V30 2397 O 231.438 -1.71899 -0.910007 0
M  V30 2398 C 231.721 -2.60735 2.48373 0
M  V30 2399 C 231.574 -2.14332 3.95451 0
M  V30 2400 C 232.893 -3.62951 2.48906 0
M  V30 2401 H 230.012 -0.51552 0.526696 0
M  V30 2402 H 232.654 -0.748069 1.74654 0
M  V30 2403 H 230.804 -3.18184 2.22916 0
M  V30 2404 H 232.476 -1.61932 4.31944 0
M  V30 2405 H 230.719 -1.4576 4.08578 0
M  V30 2406 H 231.39 -2.99583 4.63631 0
M  V30 2407 H 233.866 -3.1525 2.71582 0
M  V30 2408 H 232.742 -4.43487 3.23435 0
M  V30 2409 H 233.003 -4.15126 1.52061 0
M  V30 2410 N 232.062 -1.29571 -0.897171 0
M  V30 2411 C 233.29 -1.20583 -1.68129 0
M  V30 2412 C 233.705 0.233181 -1.87354 0
M  V30 2413 O 233.062 1.15579 -1.41236 0
M  V30 2414 C 233.113 -1.91772 -3.06441 0
M  V30 2415 O 232.834 -3.30053 -2.88091 0
M  V30 2416 C 234.335 -1.89291 -4.00854 0
M  V30 2417 H 231.555 -0.417826 -0.525036 0
M  V30 2418 H 234.099 -1.70987 -1.12177 0
M  V30 2419 H 232.254 -1.45196 -3.59161 0
M  V30 2420 H 232.668 -3.65942 -3.75748 0
M  V30 2421 H 234.142 -2.43662 -4.95311 0
M  V30 2422 H 234.619 -0.869014 -4.30517 0
M  V30 2423 H 235.225 -2.35622 -3.54066 0
M  V30 2424 N 233.54 1.10788 -1.12088 0
M  V30 2425 C 234.768 1.86461 -0.896651 0
M  V30 2426 C 235.183 1.80492 0.553912 0
M  V30 2427 O 234.54 1.19102 1.38278 0
M  V30 2428 C 234.591 3.35006 -1.35843 0
M  V30 2429 O 234.312 3.40866 -2.75213 0
M  V30 2430 C 235.813 4.27565 -1.1706 0
M  V30 2431 H 233.033 0.589425 -0.320654 0
M  V30 2432 H 235.577 1.40076 -1.48993 0
M  V30 2433 H 233.732 3.7887 -0.808458 0
M  V30 2434 H 234.146 4.33411 -2.9539 0
M  V30 2435 H 235.62 5.30007 -1.54263 0
M  V30 2436 H 236.097 4.3906 -0.110814 0
M  V30 2437 H 236.703 3.89501 -1.70789 0
M  V30 2438 N 235.018 0.912232 1.28515 0
M  V30 2439 C 235.965 0.397954 2.27343 0
M  V30 2440 C 236.935 -0.526766 1.57526 0
M  V30 2441 O 238.12 -0.449292 1.85435 0
M  V30 2442 C 235.26 -0.357263 3.43246 0
M  V30 2443 C 234.373 0.599788 4.27816 0
M  V30 2444 C 233.508 -0.173725 5.30916 0
M  V30 2445 C 232.547 0.777039 6.07148 0
M  V30 2446 N 231.684 0.0371398 7.0209 0
M  V30 2447 H 236.524 1.24577 2.70711 0
M  V30 2448 H 234.061 0.625612 1.33133 0
M  V30 2449 H 236.019 -0.8113 4.09236 0
M  V30 2450 H 234.649 -1.16943 3.00872 0
M  V30 2451 H 233.701 1.17235 3.61884 0
M  V30 2452 H 235.013 1.32704 4.80823 0
M  V30 2453 H 234.167 -0.688394 6.02782 0
M  V30 2454 H 232.906 -0.934041 4.78672 0
M  V30 2455 H 231.911 1.3031 5.34134 0
M  V30 2456 H 233.136 1.53689 6.61481 0
M  V30 2457 H 231.082 -0.705213 6.52198 0
M  V30 2458 H 230.999 0.704249 7.52713 0
M  V30 2459 H 232.267 -0.457383 7.78157 0
M  V30 2460 N 236.496 -1.42363 0.676048 0
M  V30 2461 C 237.724 -2.05859 0.207268 0
M  V30 2462 C 238.139 -1.50796 -1.13605 0
M  V30 2463 O 237.496 -0.648265 -1.70598 0
M  V30 2464 C 237.547 -3.61248 0.134975 0
M  V30 2465 O 237.268 -4.1427 1.42521 0
M  V30 2466 C 238.769 -4.41859 -0.357151 0
M  V30 2467 H 235.989 -0.663431 0.100503 0
M  V30 2468 H 238.533 -1.82479 0.923136 0
M  V30 2469 H 236.688 -3.83735 -0.531588 0
M  V30 2470 H 237.102 -5.0815 1.29939 0
M  V30 2471 H 238.576 -5.50847 -0.356641 0
M  V30 2472 H 239.053 -4.16536 -1.39264 0
M  V30 2473 H 239.659 -4.24392 0.27772 0
M  V30 2474 N 237.974 -0.419461 -1.51915 0
M  V30 2475 C 238.922 0.415502 -2.28859 0
M  V30 2476 C 239.916 1.03674 -1.3397 0
M  V30 2477 O 241.122 0.973757 -1.51387 0
M  V30 2478 H 237.497 0.152786 -0.736315 0
M  V30 2479 H 239.468 -0.254531 -2.97312 0
M  V30 2480 C 238.217 1.51425 -3.12995 0
M  V30 2481 H 237.54 1.04556 -3.85886 0
M  V30 2482 H 238.98 2.07208 -3.6992 0
M  V30 2483 C 237.439 2.48745 -2.27217 0
M  V30 2484 O 237.969 3.52871 -1.9195 0
M  V30 2485 N 236.175 2.19202 -1.90785 0
M  V30 2486 H 235.722 1.34556 -2.19664 0
M  V30 2487 H 235.68 2.84561 -1.33687 0
M  V30 2488 N 239.452 1.56882 -0.150215 0
M  V30 2489 C 240.729 1.87844 0.545327 0
M  V30 2490 C 241.109 1.0567 1.82749 0
M  V30 2491 O 240.457 0.144442 2.28043 0
M  V30 2492 C 240.667 3.39526 0.80767 0
M  V30 2493 C 242.015 4.08814 1.14703 0
M  V30 2494 O 243.039 3.44723 0.896917 0
M  V30 2495 O 241.898 5.22004 1.61784 0
M  V30 2496 H 238.992 0.778677 0.278553 0
M  V30 2497 H 241.538 1.68666 -0.187068 0
M  V30 2498 H 240.31 3.91173 -0.0996096 0
M  V30 2499 H 239.933 3.64243 1.59413 0
M  V30 2500 N 240.93 -0.123565 1.57115 0
M  V30 2501 C 242.16 -0.845233 1.88519 0
M  V30 2502 C 242.568 -1.74168 0.739064 0
M  V30 2503 O 241.911 -1.81244 -0.299355 0
M  V30 2504 C 241.973 -1.73452 3.14888 0
M  V30 2505 C 241.637 -1.01285 4.45635 0
M  V30 2506 C 242.634 -0.355774 5.18681 0
M  V30 2507 C 240.319 -0.99538 4.92339 0
M  V30 2508 C 242.313 0.309114 6.3665 0
M  V30 2509 C 240 -0.32669 6.10226 0
M  V30 2510 C 240.998 0.324406 6.82229 0
M  V30 2511 O 240.686 0.982437 7.97874 0
M  V30 2512 H 240.418 -0.248534 0.628655 0
M  V30 2513 H 242.972 -0.113907 2.05084 0
M  V30 2514 H 241.202 -2.50737 2.94394 0
M  V30 2515 H 242.891 -2.33021 3.32349 0
M  V30 2516 H 243.657 -0.360918 4.83655 0
M  V30 2517 H 239.536 -1.49159 4.36202 0
M  V30 2518 H 243.08 0.8179 6.92789 0
M  V30 2519 H 238.977 -0.319294 6.4471 0
M  V30 2520 H 239.745 0.886454 8.13686 0
M  V30 2521 N 242.408 -1.52605 -0.393616 0
M  V30 2522 C 243.648 -1.6911 -1.1481 0
M  V30 2523 C 244.012 -0.41969 -1.87357 0
M  V30 2524 O 245.213 -0.461034 -2.64817 0
M  V30 2525 C 243.484 -2.88909 -2.10395 0
M  V30 2526 S 245.043 -3.25977 -2.93742 0
M  V30 2527 H 241.861 -0.595337 -0.38871 0
M  V30 2528 H 244.463 -1.90641 -0.433178 0
M  V30 2529 H 243.167 -3.79672 -1.55812 0
M  V30 2530 H 242.698 -2.69698 -2.86403 0
M  V30 2531 H 244.713 -2.75806 -4.12487 0
M  V30 2532 N 243.887 0.651787 -1.4349 0
M  V30 2533 C 244.834 1.76462 -1.4876 0
M  V30 2534 C 245.804 1.62641 -0.337189 0
M  V30 2535 O 246.989 1.82864 -0.544544 0
M  V30 2536 C 244.129 3.14623 -1.41796 0
M  V30 2537 C 243.242 3.39568 -2.67053 0
M  V30 2538 C 242.377 4.67585 -2.52068 0
M  V30 2539 C 241.416 4.85639 -3.72587 0
M  V30 2540 N 240.553 6.04915 -3.56402 0
M  V30 2541 H 245.393 1.71293 -2.43849 0
M  V30 2542 H 242.93 0.835889 -1.21043 0
M  V30 2543 H 244.888 3.94496 -1.35753 0
M  V30 2544 H 243.518 3.18859 -0.50288 0
M  V30 2545 H 242.57 2.53783 -2.8337 0
M  V30 2546 H 243.882 3.48795 -3.56572 0
M  V30 2547 H 243.036 5.55586 -2.4374 0
M  V30 2548 H 241.775 4.60681 -1.60075 0
M  V30 2549 H 240.78 3.96073 -3.81321 0
M  V30 2550 H 242.005 4.94372 -4.65589 0
M  V30 2551 H 239.951 5.9914 -2.67146 0
M  V30 2552 H 239.868 6.15106 -4.39524 0
M  V30 2553 H 241.136 6.95533 -3.51929 0
M  V30 2554 N 245.365 1.30045 0.890287 0
M  V30 2555 C 246.59 1.21598 1.68014 0
M  V30 2556 C 247.015 -0.218678 1.86825 0
M  V30 2557 O 246.373 -1.15756 1.39536 0
M  V30 2558 C 246.421 1.94434 3.03691 0
M  V30 2559 O 245.525 1.2678 3.92429 0
M  V30 2560 H 244.866 0.420856 0.513592 0
M  V30 2561 H 247.396 1.71775 1.11151 0
M  V30 2562 H 247.406 2.03251 3.5377 0
M  V30 2563 H 246.081 2.98777 2.89318 0
M  V30 2564 H 244.658 1.26282 3.50866 0
M  V30 2565 N 246.843 -1.10192 1.12674 0
M  V30 2566 C 247.773 -2.18652 0.819362 0
M  V30 2567 C 248.754 -1.68698 -0.217915 0
M  V30 2568 O 249.939 -1.94041 -0.0785581 0
M  V30 2569 C 247.069 -3.46202 0.27594 0
M  V30 2570 C 246.023 -4.09444 1.24656 0
M  V30 2571 C 245.349 -5.31725 0.563258 0
M  V30 2572 C 246.649 -4.52863 2.60217 0
M  V30 2573 H 248.343 -2.44622 1.72628 0
M  V30 2574 H 245.889 -1.17571 0.831451 0
M  V30 2575 H 247.842 -4.21372 0.0486149 0
M  V30 2576 H 246.566 -3.1973 -0.666331 0
M  V30 2577 H 245.225 -3.36284 1.45974 0
M  V30 2578 H 244.873 -5.0153 -0.384235 0
M  V30 2579 H 244.573 -5.74991 1.21075 0
M  V30 2580 H 246.097 -6.09624 0.34503 0
M  V30 2581 H 247.511 -5.19294 2.42913 0
M  V30 2582 H 245.908 -5.06986 3.21068 0
M  V30 2583 H 246.978 -3.65656 3.18471 0
M  V30 2584 N 248.321 -0.919034 -1.28029 0
M  V30 2585 C 249.732 -0.600735 -1.76771 0
M  V30 2586 C 250.083 0.884024 -1.75156 0
M  V30 2587 O 249.208 1.69163 -1.34956 0
M  V30 2588 C 249.803 -1.08372 -3.21 0
M  V30 2589 C 248.362 -0.816248 -3.67443 0
M  V30 2590 C 247.509 -1.24742 -2.47658 0
M  V30 2591 H 250.46 -1.09974 -1.14418 0
M  V30 2592 H 250.481 -0.427512 -3.78091 0
M  V30 2593 H 249.993 -2.16437 -3.22144 0
M  V30 2594 H 248.094 0.250968 -3.71754 0
M  V30 2595 H 248.207 -1.4277 -4.57333 0
M  V30 2596 H 246.571 -0.666083 -2.45836 0
M  V30 2597 H 247.354 -2.33653 -2.51518 0
M  V30 2598 N 249.799 1.42003 -0.683588 0
M  V30 2599 C 250.762 2.29191 -0.0198243 0
M  V30 2600 C 251.762 1.43773 0.72013 0
M  V30 2601 O 252.952 1.65061 0.556815 0
M  V30 2602 C 250.084 3.26435 0.982487 0
M  V30 2603 H 251.277 2.8938 -0.787345 0
M  V30 2604 H 248.83 1.49789 -0.446418 0
M  V30 2605 H 249.565 2.71203 1.77819 0
M  V30 2606 H 249.35 3.89449 0.455182 0
M  V30 2607 H 250.84 3.918 1.44508 0
M  V30 2608 N 251.277 0.427512 1.51691 0
M  V30 2609 C 252.24 -0.377132 2.26076 0
M  V30 2610 C 253.24 -0.958089 1.29141 0
M  V30 2611 O 254.43 -0.83408 1.52934 0
M  V30 2612 C 251.562 -1.53262 3.04506 0
M  V30 2613 H 252.755 0.27464 2.9864 0
M  V30 2614 H 250.308 0.180445 1.55255 0
M  V30 2615 H 251.043 -2.22072 2.36335 0
M  V30 2616 H 250.828 -1.12232 3.75694 0
M  V30 2617 H 252.318 -2.10135 3.60878 0
M  V30 2618 N 252.755 -1.56801 0.158532 0
M  V30 2619 C 253.685 -2.20347 -0.772609 0
M  V30 2620 C 254.666 -1.15518 -1.24859 0
M  V30 2621 O 255.851 -1.43902 -1.30406 0
M  V30 2622 C 252.981 -2.83417 -2.00729 0
M  V30 2623 C 251.935 -3.94174 -1.66765 0
M  V30 2624 C 251.261 -4.44233 -2.97592 0
M  V30 2625 C 252.561 -5.14392 -0.905447 0
M  V30 2626 H 254.255 -2.98413 -0.242959 0
M  V30 2627 H 251.801 -1.43537 -0.115419 0
M  V30 2628 H 253.754 -3.26543 -2.6636 0
M  V30 2629 H 252.478 -2.02701 -2.56086 0
M  V30 2630 H 251.137 -3.51684 -1.03508 0
M  V30 2631 H 250.785 -3.60325 -3.50963 0
M  V30 2632 H 250.485 -5.18945 -2.75626 0
M  V30 2633 H 252.009 -4.90037 -3.64274 0
M  V30 2634 H 253.423 -5.5429 -1.46408 0
M  V30 2635 H 251.82 -5.9494 -0.7853 0
M  V30 2636 H 252.89 -4.84795 0.100668 0
M  V30 2637 N 254.233 0.115231 -1.57178 0
M  V30 2638 C 255.458 0.840354 -1.89612 0
M  V30 2639 C 255.883 1.72464 -0.750845 0
M  V30 2640 O 255.241 1.78826 0.298478 0
M  V30 2641 C 255.289 1.64654 -3.20814 0
M  V30 2642 O 254.393 2.7538 -3.06985 0
M  V30 2643 H 253.734 0.232158 -0.622092 0
M  V30 2644 H 256.264 0.0964977 -2.04372 0
M  V30 2645 H 256.274 2.03499 -3.53627 0
M  V30 2646 H 254.949 0.997416 -4.03763 0
M  V30 2647 H 253.526 2.3971 -2.85646 0
M  V30 2648 N 255.711 1.52812 0.385517 0
M  V30 2649 C 256.674 1.77188 1.45386 0
M  V30 2650 C 257.674 0.641953 1.4743 0
M  V30 2651 O 258.864 0.910033 1.4854 0
M  V30 2652 C 255.996 1.87582 2.8465 0
M  V30 2653 H 257.189 2.72583 1.25054 0
M  V30 2654 H 254.742 1.43586 0.617467 0
M  V30 2655 H 255.477 0.941849 3.10322 0
M  V30 2656 H 255.262 2.69748 2.84567 0
M  V30 2657 H 256.752 2.08102 3.62054 0
M  V30 2658 N 257.189 -0.644168 1.43834 0
M  V30 2659 C 258.417 -1.43147 1.49387 0
M  V30 2660 C 258.832 -1.88452 0.114583 0
M  V30 2661 O 258.189 -1.60047 -0.876989 0
M  V30 2662 C 258.24 -2.66046 2.44748 0
M  V30 2663 O 257.961 -2.22633 3.77314 0
M  V30 2664 C 259.462 -3.59311 2.59635 0
M  V30 2665 H 256.682 -0.439447 0.507077 0
M  V30 2666 H 259.226 -0.78895 1.88669 0
M  V30 2667 H 257.381 -3.26418 2.08638 0
M  V30 2668 H 257.795 -3.02216 4.28679 0
M  V30 2669 H 259.269 -4.42187 3.30416 0
M  V30 2670 H 259.746 -4.07259 1.64427 0
M  V30 2671 H 260.352 -3.04816 2.96593 0
M  V30 2672 N 258.668 -1.30515 -0.883378 0
M  V30 2673 C 259.578 -1.18959 -2.02203 0
M  V30 2674 C 260.594 -0.109172 -1.73657 0
M  V30 2675 O 261.77 -0.324413 -1.9877 0
M  V30 2676 C 258.835 -0.883871 -3.35244 0
M  V30 2677 C 257.896 -2.04982 -3.77201 0
M  V30 2678 C 257.129 -1.75859 -5.03894 0
M  V30 2679 O 257.352 -0.687276 -5.66244 0
M  V30 2680 O 256.286 -2.61146 -5.42297 0
M  V30 2681 H 260.112 -2.14616 -2.1488 0
M  V30 2682 H 257.697 -1.10124 -1.0096 0
M  V30 2683 H 259.579 -0.728644 -4.15053 0
M  V30 2684 H 258.254 0.0427798 -3.23672 0
M  V30 2685 H 257.161 -2.26038 -2.9809 0
M  V30 2686 H 258.494 -2.95825 -3.93381 0
M  V30 2687 N 260.146 1.09593 -1.13257 0
M  V30 2688 C 261.395 1.81105 -0.887917 0
M  V30 2689 C 261.708 1.86563 0.587672 0
M  V30 2690 O 262.914 2.54367 0.949204 0
M  V30 2691 C 261.37 3.25338 -1.53895 0
M  V30 2692 C 260.978 3.28151 -3.04994 0
M  V30 2693 C 262.722 4.01617 -1.37492 0
M  V30 2694 C 260.629 4.66897 -3.6299 0
M  V30 2695 H 259.559 0.678661 -0.328534 0
M  V30 2696 H 262.21 1.23183 -1.36008 0
M  V30 2697 H 260.592 3.8331 -0.994446 0
M  V30 2698 H 261.766 2.79953 -3.66009 0
M  V30 2699 H 260.081 2.65361 -3.20893 0
M  V30 2700 H 262.678 5.04119 -1.78235 0
M  V30 2701 H 263.021 4.15072 -0.31957 0
M  V30 2702 H 263.554 3.50082 -1.88912 0
M  V30 2703 H 260.293 4.58643 -4.68323 0
M  V30 2704 H 259.813 5.15426 -3.06752 0
M  V30 2705 H 261.492 5.3587 -3.62563 0
M  V30 2706 N 261.624 0.925811 1.2754 0
M  V30 2707 C 262.534 0.428993 2.30644 0
M  V30 2708 C 263.55 -0.489387 1.66976 0
M  V30 2709 O 264.726 -0.372653 1.97922 0
M  V30 2710 C 261.791 -0.311967 3.45294 0
M  V30 2711 C 260.852 0.641098 4.24486 0
M  V30 2712 C 260.085 -0.0645955 5.33661 0
M  V30 2713 O 260.308 -1.28429 5.55754 0
M  V30 2714 O 259.242 0.606265 5.98839 0
M  V30 2715 H 263.068 1.28504 2.75173 0
M  V30 2716 H 260.653 0.691086 1.32455 0
M  V30 2717 H 262.535 -0.729972 4.15029 0
M  V30 2718 H 261.21 -1.14365 3.02824 0
M  V30 2719 H 260.117 1.10874 3.57292 0
M  V30 2720 H 261.45 1.43995 4.70666 0
M  V30 2721 N 263.102 -1.41638 0.69111 0
M  V30 2722 C 264.049 -2.30789 0.0229705 0
M  V30 2723 C 265.019 -1.46863 -0.775911 0
M  V30 2724 O 266.204 -1.75661 -0.74485 0
M  V30 2725 C 263.344 -3.32868 -0.910666 0
M  V30 2726 C 262.457 -4.31875 -0.103874 0
M  V30 2727 C 261.592 -5.21024 -1.03475 0
M  V30 2728 C 260.631 -6.11702 -0.220598 0
M  V30 2729 N 259.768 -6.93349 -1.10504 0
M  V30 2730 H 264.608 -2.87366 0.788978 0
M  V30 2731 H 262.145 -1.41535 0.400794 0
M  V30 2732 H 264.103 -3.90596 -1.46597 0
M  V30 2733 H 262.733 -2.77851 -1.64312 0
M  V30 2734 H 261.785 -3.76131 0.568285 0
M  V30 2735 H 263.097 -4.96003 0.527504 0
M  V30 2736 H 262.251 -5.83565 -1.65943 0
M  V30 2737 H 260.99 -4.57112 -1.69999 0
M  V30 2738 H 259.995 -5.48215 0.417187 0
M  V30 2739 H 261.22 -6.77668 0.440784 0
M  V30 2740 H 259.166 -6.3205 -1.75638 0
M  V30 2741 H 259.083 -7.54146 -0.529125 0
M  V30 2742 H 260.351 -7.60362 -1.71667 0
M  V30 2743 N 264.58 -0.43555 -1.51462 0
M  V30 2744 C 265.805 0.132627 -2.06976 0
M  V30 2745 C 266.23 1.35848 -1.30104 0
M  V30 2746 O 265.588 1.78112 -0.338493 0
M  V30 2747 C 265.636 0.43523 -3.57964 0
M  V30 2748 O 264.74 1.52198 -3.83288 0
M  V30 2749 H 264.081 0.00265 -0.663995 0
M  V30 2750 H 266.611 -0.616369 -1.95095 0
M  V30 2751 H 266.621 0.686206 -4.02188 0
M  V30 2752 H 265.296 -0.460739 -4.1334 0
M  V30 2753 H 263.873 1.2611 -3.50928 0
M  V30 2754 N 266.058 1.56714 -0.166846 0
M  V30 2755 C 267.307 1.95922 0.479318 0
M  V30 2756 C 267.62 1.05529 1.6469 0
M  V30 2757 O 268.826 1.34399 2.35901 0
M  V30 2758 C 267.282 3.48359 0.90412 0
M  V30 2759 C 266.89 4.47369 -0.237621 0
M  V30 2760 C 268.634 3.96394 1.51896 0
M  V30 2761 C 266.541 5.91039 0.206561 0
M  V30 2762 H 265.471 0.731495 0.18284 0
M  V30 2763 H 268.122 1.81728 -0.254363 0
M  V30 2764 H 266.504 3.57955 1.69365 0
M  V30 2765 H 267.678 4.49485 -1.01489 0
M  V30 2766 H 265.993 4.09366 -0.762128 0
M  V30 2767 H 268.59 5.01186 1.86325 0
M  V30 2768 H 268.933 3.39075 2.41524 0
M  V30 2769 H 269.466 3.89796 0.79395 0
M  V30 2770 H 266.205 6.52221 -0.654834 0
M  V30 2771 H 265.725 5.9224 0.949282 0
M  V30 2772 H 267.404 6.43707 0.651939 0
M  V30 2773 N 267.536 -0.106894 1.57237 0
M  V30 2774 C 268.761 -0.830287 1.90055 0
M  V30 2775 C 269.186 -1.72064 0.75998 0
M  V30 2776 O 268.544 -1.78982 -0.288991 0
M  V30 2777 C 268.592 -1.6295 3.21683 0
M  V30 2778 O 267.696 -2.73748 3.08441 0
M  V30 2779 H 267.037 -0.228855 0.623315 0
M  V30 2780 H 269.567 -0.085658 2.04421 0
M  V30 2781 H 269.577 -2.01621 3.54701 0
M  V30 2782 H 268.252 -0.975989 4.04286 0
M  V30 2783 H 266.829 -2.38192 2.86913 0
M  V30 2784 N 269.014 -1.53014 -0.377408 0
M  V30 2785 C 269.977 -1.77957 -1.44444 0
M  V30 2786 C 270.977 -0.649763 -1.47087 0
M  V30 2787 O 272.167 -0.917897 -1.48055 0
M  V30 2788 C 269.299 -1.89089 -2.83651 0
M  V30 2789 H 270.492 -2.73243 -1.23606 0
M  V30 2790 H 268.045 -1.43912 -0.609844 0
M  V30 2791 H 268.78 -0.958293 -3.09818 0
M  V30 2792 H 268.565 -2.71254 -2.83132 0
M  V30 2793 H 270.055 -2.1002 -3.60945 0
M  V30 2794 N 270.492 0.636531 -1.44174 0
M  V30 2795 C 271.908 0.954104 -1.27941 0
M  V30 2796 C 272.108 2.0039 -0.211248 0
M  V30 2797 O 271.164 2.49236 0.404695 0
M  V30 2798 C 272.477 1.4225 -2.64925 0
M  V30 2799 C 274.025 1.53827 -2.72592 0
M  V30 2800 C 274.5 2.04053 -4.10032 0
M  V30 2801 N 275.991 2.11331 -4.12182 0
M  V30 2802 C 276.726 2.51352 -5.15374 0
M  V30 2803 N 276.222 2.90549 -6.2893 0
M  V30 2804 N 278.015 2.51438 -5.02728 0
M  V30 2805 H 270.166 -0.0578386 -2.12321 0
M  V30 2806 H 272.429 0.0367406 -0.947288 0
M  V30 2807 H 272.135 0.725466 -3.44136 0
M  V30 2808 H 272.009 2.39451 -2.9145 0
M  V30 2809 H 274.396 2.22628 -1.93702 0
M  V30 2810 H 274.477 0.550154 -2.49814 0
M  V30 2811 H 274.121 1.35848 -4.89395 0
M  V30 2812 H 274.051 3.03726 -4.30184 0
M  V30 2813 H 276.542 1.83745 -3.30222 0
M  V30 2814 H 276.855 3.19884 -7.03487 0
M  V30 2815 H 275.2 2.88313 -6.32377 0
M  V30 2816 H 278.391 2.20203 -4.13072 0
M  V30 2817 H 278.564 2.82304 -5.83274 0
M  V30 2818 O 272.009 1.41421 0.779892 0
M  V30 2819 H 272.7 1.31013 1.42672 0
M  V30 END ATOM
M  V30 BEGIN BOND
M  V30 END BOND
M  V30 END CTAB
M  END
$$$$
