drugbank_target|Q02224 Centromere-associated protein E (DB06097)
 OpenBabel12092120323D

  0  0  0     0  0            999 V3000
M  V30 BEGIN CTAB
M  V30 COUNTS 44679 44885 0 0 0
M  V30 BEGIN ATOM
M  V30 1 H -0.908 1.98254 -0.117106 0
M  V30 2 N 0 1.576 0 0
M  V30 3 C 0.933 2.03868 1.02534 0
M  V30 4 C 1.911 0.928543 1.3348 0
M  V30 5 O 3.095 1.19667 1.45644 0
M  V30 6 C 0.222 2.43627 2.35294 0
M  V30 7 C -0.732 3.65373 2.2001 0
M  V30 8 S 0.101 5.13292 1.52614 0
M  V30 9 C 1.257 5.56322 2.86805 0
M  V30 10 H 1.49 2.90518 0.631377 0
M  V30 11 H -0.977 1.52953 0.210867 0
M  V30 12 H 0.981 2.67203 3.11629 0
M  V30 13 H -0.358 1.57376 2.7183 0
M  V30 14 H -1.165 3.90944 3.18086 0
M  V30 15 H -1.563 3.418 1.51819 0
M  V30 16 H 0.729 5.58782 3.83104 0
M  V30 17 H 1.672 6.56266 2.65933 0
M  V30 18 H 2.08 4.83886 2.90714 0
M  V30 19 N 1.4781 -0.272755 1.55222 0
M  V30 20 C 2.4411 -1.32041 1.87344 0
M  V30 21 C 3.4411 -1.42342 0.74803 0
M  V30 22 O 4.6311 -1.41488 1.0162 0
M  V30 23 C 1.7631 -2.70173 2.07893 0
M  V30 24 H 2.9561 -1.04789 2.80997 0
M  V30 25 H 0.5091 -0.51083 1.47717 0
M  V30 26 H 1.2441 -3.02605 1.16622 0
M  V30 27 H 1.0291 -2.64082 2.89833 0
M  V30 28 H 2.5191 -3.45869 2.34017 0
M  V30 29 N 2.9562 -1.48159 -0.537278 0
M  V30 30 C 3.8662 -1.64807 -1.6696 0
M  V30 31 C 4.8822 -0.530651 -1.65711 0
M  V30 32 O 6.0582 -0.800784 -1.84796 0
M  V30 33 C 3.1232 -1.67708 -3.03438 0
M  V30 34 C 2.1842 -2.91025 -3.156 0
M  V30 35 C 1.4172 -2.93778 -4.45567 0
M  V30 36 O 1.6402 -2.05153 -5.3223 0
M  V30 37 O 0.5742 -3.85868 -4.61941 0
M  V30 38 H 4.4002 -2.6066 -1.55853 0
M  V30 39 H 1.9852 -1.31475 -0.709549 0
M  V30 40 H 3.8672 -1.7218 -3.84619 0
M  V30 41 H 2.5422 -0.750278 -3.14885 0
M  V30 42 H 1.4492 -2.92089 -2.33741 0
M  V30 43 H 2.7822 -3.83065 -3.09066 0
M  V30 44 N 4.4343 0.785586 -1.36625 0
M  V30 45 C 5.3443 1.92964 -1.33425 0
M  V30 46 C 6.3603 1.72394 -0.235851 0
M  V30 47 O 7.5363 1.95866 -0.468878 0
M  V30 48 C 4.6013 3.27884 -1.12662 0
M  V30 49 C 3.6623 3.61204 -2.32013 0
M  V30 50 C 2.8953 4.89687 -2.12231 0
M  V30 51 O 3.1183 5.59704 -1.09945 0
M  V30 52 O 2.0523 5.21752 -3.00098 0
M  V30 53 H 5.8783 1.98613 -2.29753 0
M  V30 54 H 3.4633 0.926384 -1.17211 0
M  V30 55 H 5.3453 4.08614 -1.03016 0
M  V30 56 H 4.0203 3.23118 -0.193991 0
M  V30 57 H 2.9273 2.80765 -2.47228 0
M  V30 58 H 4.2603 3.70698 -3.23796 0
M  V30 59 N 5.9124 1.20967 1.01018 0
M  V30 60 C 7.1604 1.02172 1.74371 0
M  V30 61 C 7.4814 -0.446414 1.89821 0
M  V30 62 O 6.7514 -1.32234 1.44537 0
M  V30 63 H 5.3314 0.375066 0.646014 0
M  V30 64 H 7.9934 1.52187 1.21758 0
M  V30 65 H 7.0894 1.48538 2.74487 0
M  V30 66 N 7.3905 -1.2043 1.01659 0
M  V30 67 C 8.3535 -2.21433 0.591616 0
M  V30 68 C 9.3535 -1.57203 -0.338226 0
M  V30 69 O 10.5435 -1.73737 -0.126918 0
M  V30 70 C 7.6755 -3.40628 -0.136058 0
M  V30 71 H 8.8685 -2.60545 1.48514 0
M  V30 72 H 6.4215 -1.33893 0.806379 0
M  V30 73 H 7.1565 -3.07019 -1.04449 0
M  V30 74 H 6.9415 -3.88475 0.531917 0
M  V30 75 H 8.4315 -4.15475 -0.420735 0
M  V30 76 N 8.8686 -0.792821 -1.36206 0
M  V30 77 C 10.1146 -0.36733 -1.99446 0
M  V30 78 C 10.4476 1.05917 -1.62774 0
M  V30 79 O 9.7226 1.7324 -0.88421 0
M  V30 80 C 10.0056 -0.535044 -3.56103 0
M  V30 81 C 9.8586 -2.00548 -4.02617 0
M  V30 82 C 11.1776 0.0478191 -4.40074 0
M  V30 83 H 8.2966 -0.134941 -0.724541 0
M  V30 84 H 10.9386 -0.999794 -1.61568 0
M  V30 85 H 9.0886 0.00336329 -3.885 0
M  V30 86 H 10.7606 -2.60521 -3.80692 0
M  V30 87 H 9.0036 -2.50686 -3.54032 0
M  V30 88 H 9.6746 -2.07377 -5.11565 0
M  V30 89 H 12.1506 -0.411822 -4.14057 0
M  V30 90 H 11.0266 -0.0995336 -5.4881 0
M  V30 91 H 11.2876 1.14025 -4.27142 0
M  V30 92 N 10.3467 1.47872 -0.545128 0
M  V30 93 C 11.3097 2.28337 0.198717 0
M  V30 94 C 12.3097 1.36255 0.853888 0
M  V30 95 O 13.4997 1.59003 0.711606 0
M  V30 96 C 10.6317 3.15585 1.28915 0
M  V30 97 H 11.8247 2.95567 -0.507941 0
M  V30 98 H 9.3777 1.53362 -0.301616 0
M  V30 99 H 10.1127 2.53019 2.02859 0
M  V30 100 H 9.8977 3.83337 0.824309 0
M  V30 101 H 11.3877 3.76243 1.81194 0
M  V30 102 N 11.8248 0.280983 1.55075 0
M  V30 103 C 13.0708 -0.33461 2.00021 0
M  V30 104 C 13.4038 -1.55063 1.16915 0
M  V30 105 O 12.6788 -1.93006 0.240646 0
M  V30 106 C 12.9618 -0.711007 3.53011 0
M  V30 107 C 12.8148 0.512766 4.46868 0
M  V30 108 C 14.1338 -1.54522 4.12081 0
M  V30 109 H 11.2528 -0.120147 0.727141 0
M  V30 110 H 13.8948 0.389097 1.85973 0
M  V30 111 H 12.0448 -1.32761 3.65112 0
M  V30 112 H 13.7168 1.15131 4.46702 0
M  V30 113 H 11.9598 1.14975 4.18286 0
M  V30 114 H 12.6308 0.205556 5.51617 0
M  V30 115 H 15.1068 -1.02442 4.03293 0
M  V30 116 H 13.9828 -1.77739 5.19327 0
M  V30 117 H 14.2438 -2.52813 3.62682 0
M  V30 118 N 13.3029 -1.57598 0.00835791 0
M  V30 119 C 14.5429 -1.92788 -0.679136 0
M  V30 120 C 14.9069 -0.883378 -1.70471 0
M  V30 121 O 16.1079 -1.12079 -2.44319 0
M  V30 122 C 14.3789 -3.32994 -1.29807 0
M  V30 123 S 15.9379 -3.90082 -2.00952 0
M  V30 124 H 12.7559 -0.67475 -0.224127 0
M  V30 125 H 15.3579 -1.95385 0.0670497 0
M  V30 126 H 14.0619 -4.06846 -0.538922 0
M  V30 127 H 13.5929 -3.33791 -2.082 0
M  V30 128 H 15.6079 -3.71834 -3.28563 0
M  V30 129 N 14.781 0.264519 -1.55364 0
M  V30 130 C 16.027 0.99646 -1.76631 0
M  V30 131 C 16.36 1.85632 -0.570478 0
M  V30 132 O 15.635 1.89647 0.43175 0
M  V30 133 C 15.918 1.87187 -3.07625 0
M  V30 134 C 15.771 1.04138 -4.37579 0
M  V30 135 C 17.09 2.85749 -3.34717 0
M  V30 136 H 14.209 0.360841 -0.642622 0
M  V30 137 H 16.851 0.268218 -1.88097 0
M  V30 138 H 15.001 2.49279 -2.9798 0
M  V30 139 H 16.673 0.440517 -4.59192 0
M  V30 140 H 14.916 0.345115 -4.32425 0
M  V30 141 H 15.587 1.68729 -5.2558 0
M  V30 142 H 18.063 2.33793 -3.4421 0
M  V30 143 H 16.939 3.44136 -4.27623 0
M  V30 144 H 17.2 3.61311 -2.54768 0
M  V30 145 N 16.2591 1.48442 0.529413 0
M  V30 146 C 17.6751 1.34575 0.858004 0
M  V30 147 C 17.8751 0.3572 1.98309 0
M  V30 148 O 16.9311 -0.221379 2.51528 0
M  V30 149 C 18.2441 2.74617 1.22499 0
M  V30 150 C 19.7921 2.83109 1.33484 0
M  V30 151 C 20.2671 4.23854 1.73526 0
M  V30 152 N 21.7581 4.2653 1.80628 0
M  V30 153 C 22.4931 5.32372 2.12997 0
M  V30 154 N 21.9891 6.48491 2.43786 0
M  V30 155 N 23.7821 5.19766 2.14008 0
M  V30 156 H 15.9331 2.1133 -0.212925 0
M  V30 157 H 18.1961 0.947439 -0.0326199 0
M  V30 158 H 17.9021 3.4852 0.471905 0
M  V30 159 H 17.7761 3.08177 2.17501 0
M  V30 160 H 20.1631 2.09462 2.0787 0
M  V30 161 H 20.2441 2.53168 0.366027 0
M  V30 162 H 19.8881 4.98018 0.997013 0
M  V30 163 H 19.8181 4.5124 2.71459 0
M  V30 164 H 22.3091 3.42772 1.59108 0
M  V30 165 H 22.6221 7.24993 2.67592 0
M  V30 166 H 20.9671 6.51765 2.41304 0
M  V30 167 H 24.1581 4.28066 1.89412 0
M  V30 168 H 24.3311 6.02354 2.38902 0
M  V30 169 N 17.7372 -0.778329 1.37039 0
M  V30 170 C 18.9832 -1.53892 1.32079 0
M  V30 171 C 19.3162 -1.9396 -0.0965386 0
M  V30 172 O 18.5912 -1.63568 -1.05242 0
M  V30 173 C 18.8742 -2.80847 2.25382 0
M  V30 174 C 18.7272 -2.47076 3.75864 0
M  V30 175 C 20.0462 -3.82741 2.1725 0
M  V30 176 H 17.1652 -0.558303 0.48111 0
M  V30 177 H 19.8072 -0.893397 1.67685 0
M  V30 178 H 17.9572 -3.35931 1.95148 0
M  V30 179 H 19.6292 -1.97957 4.16666 0
M  V30 180 H 17.8722 -1.79863 3.94755 0
M  V30 181 H 18.5432 -3.37798 4.36574 0
M  V30 182 H 21.0192 -3.37133 2.43887 0
M  V30 183 H 19.8952 -4.69303 2.84686 0
M  V30 184 H 20.1562 -4.2652 1.16331 0
M  V30 185 N 19.2153 -1.21501 -1.00376 0
M  V30 186 C 20.6313 -0.972629 -1.26539 0
M  V30 187 C 20.8313 0.340257 -1.98606 0
M  V30 188 O 19.8873 1.06561 -2.28913 0
M  V30 189 C 21.2003 -2.16404 -2.08781 0
M  V30 190 C 22.7483 -2.20643 -2.22004 0
M  V30 191 C 23.2233 -3.39306 -3.07629 0
M  V30 192 N 24.7143 -3.39401 -3.15217 0
M  V30 193 C 25.4493 -4.27867 -3.81729 0
M  V30 194 N 24.9453 -5.26533 -4.5026 0
M  V30 195 N 26.7383 -4.15672 -3.78382 0
M  V30 196 H 18.8893 -2.05929 -0.520281 0
M  V30 197 H 21.1523 -0.901803 -0.292328 0
M  V30 198 H 20.8583 -3.11554 -1.63178 0
M  V30 199 H 20.7323 -2.15567 -3.09533 0
M  V30 200 H 23.1193 -1.26048 -2.66825 0
M  V30 201 H 23.2003 -2.25523 -1.20718 0
M  V30 202 H 22.8443 -4.34195 -2.63509 0
M  V30 203 H 22.7743 -3.31665 -4.09031 0
M  V30 204 H 25.2653 -2.67997 -2.66432 0
M  V30 205 H 25.5783 -5.90337 -4.98721 0
M  V30 206 H 23.9233 -5.30457 -4.49044 0
M  V30 207 H 27.1143 -3.3785 -3.23998 0
M  V30 208 H 27.2873 -4.84825 -4.2994 0
M  V30 209 N 20.6934 1.19889 -1.02296 0
M  V30 210 C 22.1044 1.71124 -0.746568 0
M  V30 211 C 22.4554 1.81939 0.734335 0
M  V30 212 O 21.5804 1.48639 1.57275 0
M  V30 213 C 22.1754 3.10804 -1.34857 0
M  V30 214 C 20.7344 3.59323 -1.1209 0
M  V30 215 C 19.8814 2.3635 -1.45031 0
M  V30 216 H 22.8324 1.04813 -1.19163 0
M  V30 217 H 22.8534 3.73186 -0.742437 0
M  V30 218 H 22.3654 3.029 -2.42638 0
M  V30 219 H 20.4664 3.7255 -0.0610337 0
M  V30 220 H 20.5794 4.4378 -1.80544 0
M  V30 221 H 18.9434 2.39399 -0.869487 0
M  V30 222 H 19.7264 2.31081 -2.53883 0
M  V30 223 N 22.1715 0.800033 1.35784 0
M  V30 224 C 23.1015 0.220184 2.3246 0
M  V30 225 C 24.0825 -0.65073 1.57161 0
M  V30 226 O 25.2675 -0.582359 1.85263 0
M  V30 227 C 22.3975 -0.637353 3.41402 0
M  V30 228 C 21.3515 0.134531 4.27789 0
M  V30 229 C 20.6775 -0.844285 5.27992 0
M  V30 230 C 21.9775 1.32979 5.05088 0
M  V30 231 H 23.6715 1.02787 2.81203 0
M  V30 232 H 21.2175 0.495717 1.35199 0
M  V30 233 H 23.1705 -1.05302 4.08031 0
M  V30 234 H 21.8945 -1.47785 2.91251 0
M  V30 235 H 20.5535 0.531296 3.6273 0
M  V30 236 H 20.2015 -1.68011 4.74111 0
M  V30 237 H 19.9015 -0.332184 5.8666 0
M  V30 238 H 21.4255 -1.2583 5.97494 0
M  V30 239 H 22.8395 0.98934 5.64699 0
M  V30 240 H 21.2365 1.77593 5.7322 0
M  V30 241 H 22.3065 2.11978 4.36111 0
M  V30 242 N 23.6496 -1.47581 0.552962 0
M  V30 243 C 24.5976 -2.31648 -0.21023 0
M  V30 244 C 25.5916 -1.42663 -0.913432 0
M  V30 245 O 26.7976 -1.5945 -0.835201 0
M  V30 246 H 23.1726 -0.746989 -0.0866676 0
M  V30 247 H 25.1436 -2.93869 0.518051 0
M  V30 248 C 23.8926 -3.25226 -1.22976 0
M  V30 249 H 23.2156 -3.93658 -0.698077 0
M  V30 250 H 24.6556 -3.86889 -1.73473 0
M  V30 251 C 23.1146 -2.48448 -2.27542 0
M  V30 252 O 23.6446 -2.22585 -3.34393 0
M  V30 253 N 21.8506 -2.09532 -2.01357 0
M  V30 254 H 21.3976 -2.30765 -1.14478 0
M  V30 255 H 21.3556 -1.58476 -2.71538 0
M  V30 256 N 25.1277 -0.289203 -1.54924 0
M  V30 257 C 26.3527 0.329299 -2.04769 0
M  V30 258 C 26.7777 1.4763 -1.16564 0
M  V30 259 O 26.1357 1.80527 -0.167186 0
M  V30 260 C 26.1837 0.774438 -3.52186 0
M  V30 261 O 25.2877 1.88038 -3.67036 0
M  V30 262 H 24.6287 0.0659259 -0.660719 0
M  V30 263 H 27.1587 -0.42761 -2.00082 0
M  V30 264 H 27.1687 1.06642 -3.93816 0
M  V30 265 H 25.8437 -0.0646707 -4.1585 0
M  V30 266 H 24.4207 1.58985 -3.3731 0
M  V30 267 N 26.6058 1.57591 -0.0167156 0
M  V30 268 C 28.0218 1.55946 0.339557 0
M  V30 269 C 28.2218 1.02109 1.73713 0
M  V30 270 O 27.2778 0.662303 2.43659 0
M  V30 271 C 28.5908 3.00037 0.199499 0
M  V30 272 C 30.1388 3.11805 0.273193 0
M  V30 273 C 30.6138 4.57713 0.162068 0
M  V30 274 N 32.1048 4.6268 0.219444 0
M  V30 275 C 32.8398 5.73185 0.157054 0
M  V30 276 N 32.3358 6.92786 0.0442936 0
M  V30 277 N 34.1288 5.61707 0.21014 0
M  V30 278 H 26.2798 1.90921 -0.930758 0
M  V30 279 H 28.5428 0.877674 -0.358319 0
M  V30 280 H 28.2488 3.4333 -0.76273 0
M  V30 281 H 28.1228 3.64387 0.974786 0
M  V30 282 H 30.5098 2.68433 1.22587 0
M  V30 283 H 30.5908 2.50201 -0.532256 0
M  V30 284 H 30.2348 5.01763 -0.78714 0
M  V30 285 H 30.1648 5.17283 0.986222 0
M  V30 286 H 32.6558 3.76649 0.307246 0
M  V30 287 H 32.9688 7.728 0.00304069 0
M  V30 288 H 31.3138 6.94999 0.00968457 0
M  V30 289 H 34.5048 4.6716 0.296546 0
M  V30 290 H 34.6778 6.47807 0.158054 0
M  V30 291 N 28.0839 -0.256276 1.55502 0
M  V30 292 C 28.9939 -1.33882 1.92647 0
M  V30 293 C 30.0099 -1.53159 0.825727 0
M  V30 294 O 31.1859 -1.66963 1.12629 0
M  V30 295 C 28.2509 -2.6751 2.20543 0
M  V30 296 C 27.3119 -2.56836 3.43997 0
M  V30 297 C 26.5449 -3.84092 3.70553 0
M  V30 298 O 26.7679 -4.85545 2.99336 0
M  V30 299 O 25.7019 -3.83288 4.64084 0
M  V30 300 H 29.5279 -1.05374 2.84833 0
M  V30 301 H 27.1129 -0.456237 1.42263 0
M  V30 302 H 28.9949 -3.46492 2.39835 0
M  V30 303 H 27.6699 -2.9577 1.31536 0
M  V30 304 H 26.5769 -1.76172 3.30021 0
M  V30 305 H 27.9099 -2.33523 4.33275 0
M  V30 306 N 29.562 -1.4872 -0.521534 0
M  V30 307 C 30.472 -1.66569 -1.65203 0
M  V30 308 C 31.488 -0.548197 -1.65139 0
M  V30 309 O 32.664 -0.820339 -1.83936 0
M  V30 310 C 29.729 -1.70917 -3.01642 0
M  V30 311 C 28.79 -2.94356 -3.12495 0
M  V30 312 C 28.023 -2.98487 -4.42426 0
M  V30 313 O 28.246 -2.10786 -5.30024 0
M  V30 314 O 27.18 -3.90746 -4.57822 0
M  V30 315 H 31.006 -2.62298 -1.5308 0
M  V30 316 H 28.591 -1.3222 -0.695565 0
M  V30 317 H 30.473 -1.7625 -3.82771 0
M  V30 318 H 29.148 -0.783633 -3.14071 0
M  V30 319 H 28.055 -2.94552 -2.3063 0
M  V30 320 H 29.388 -3.86322 -3.04986 0
M  V30 321 N 31.0401 0.771051 -1.3745 0
M  V30 322 C 32.2651 1.56529 -1.36065 0
M  V30 323 C 32.6901 1.88029 0.0515859 0
M  V30 324 O 32.0481 1.49282 1.02882 0
M  V30 325 C 32.0961 2.85187 -2.20683 0
M  V30 326 O 31.2001 3.79593 -1.61193 0
M  V30 327 H 30.5411 0.47411 -0.464883 0
M  V30 328 H 33.0711 0.954269 -1.80983 0
M  V30 329 H 33.0811 3.34283 -2.33921 0
M  V30 330 H 31.7561 2.61588 -3.23334 0
M  V30 331 H 30.3331 3.38239 -1.56999 0
M  V30 332 N 32.5182 1.22032 0.997298 0
M  V30 333 C 33.4482 1.01065 2.10495 0
M  V30 334 C 34.4292 -0.0669542 1.69968 0
M  V30 335 O 35.6142 0.0943987 1.9397 0
M  V30 336 C 32.7442 0.582874 3.42374 0
M  V30 337 C 31.6982 1.60592 3.96729 0
M  V30 338 C 31.0242 1.03412 5.24605 0
M  V30 339 C 32.3242 2.99478 4.27914 0
M  V30 340 H 34.0182 1.93708 2.28292 0
M  V30 341 H 31.5642 0.932761 1.09707 0
M  V30 342 H 33.5172 0.423332 4.19268 0
M  V30 343 H 32.2412 -0.379213 3.24391 0
M  V30 344 H 30.9002 1.75316 3.21963 0
M  V30 345 H 30.5482 0.063518 5.0296 0
M  V30 346 H 30.2482 1.71754 5.61938 0
M  V30 347 H 31.7722 0.886066 6.04137 0
M  V30 348 H 33.1862 2.88153 4.95622 0
M  V30 349 H 31.5832 3.64903 4.76409 0
M  V30 350 H 32.6532 3.49742 3.3587 0
M  V30 351 N 33.9963 -1.19345 1.0293 0
M  V30 352 C 35.2443 -1.88665 0.724574 0
M  V30 353 C 35.5653 -1.80036 -0.749144 0
M  V30 354 O 34.8353 -1.2111 -1.53978 0
M  V30 355 H 33.4153 -0.698406 0.265025 0
M  V30 356 H 36.0773 -1.44885 1.30362 0
M  V30 357 H 35.1733 -2.94987 1.01926 0
M  V30 358 N 35.4744 -0.807222 -1.35358 0
M  V30 359 C 36.3844 -0.219594 -2.3357 0
M  V30 360 C 37.4004 0.637734 -1.61892 0
M  V30 361 O 38.5764 0.549336 -1.93763 0
M  V30 362 C 35.6414 0.62158 -3.41083 0
M  V30 363 C 34.7024 -0.256315 -4.28534 0
M  V30 364 C 33.9354 0.544807 -5.30912 0
M  V30 365 O 34.1584 1.77944 -5.41934 0
M  V30 366 O 33.0924 -0.0646478 -6.01865 0
M  V30 367 H 36.9184 -1.03208 -2.85625 0
M  V30 368 H 34.5034 -0.569025 -1.38139 0
M  V30 369 H 36.3854 1.10067 -4.06772 0
M  V30 370 H 35.0604 1.41165 -2.91297 0
M  V30 371 H 33.9674 -0.782559 -3.65823 0
M  V30 372 H 35.3004 -1.01034 -4.81719 0
M  V30 373 N 36.9525 1.47285 -0.560781 0
M  V30 374 C 38.1805 2.06855 -0.0430262 0
M  V30 375 C 38.5955 1.41291 1.25229 0
M  V30 376 O 37.9525 0.510648 1.7521 0
M  V30 377 C 38.0035 3.61178 0.152518 0
M  V30 378 O 37.7245 4.24285 -1.0915 0
M  V30 379 C 39.2255 4.37624 0.707145 0
M  V30 380 H 36.4455 0.669319 -0.0474652 0
M  V30 381 H 38.9895 1.89237 -0.77521 0
M  V30 382 H 37.1445 3.78298 0.834843 0
M  V30 383 H 37.5585 5.16868 -0.891482 0
M  V30 384 H 39.0325 5.46271 0.793244 0
M  V30 385 H 39.5095 4.04152 1.71923 0
M  V30 386 H 40.1155 4.25257 0.0604027 0
M  V30 387 N 38.4306 0.297415 1.54768 0
M  V30 388 C 39.3936 -0.567375 2.22066 0
M  V30 389 C 40.3936 -1.06409 1.20556 0
M  V30 390 O 41.5836 -0.960691 1.45315 0
M  V30 391 C 38.7156 -1.78517 2.90421 0
M  V30 392 H 39.9086 0.0205534 2.99893 0
M  V30 393 H 37.4616 0.0482163 1.56226 0
M  V30 394 H 38.1966 -2.41303 2.16664 0
M  V30 395 H 37.9816 -1.43669 3.64831 0
M  V30 396 H 39.4716 -2.39964 3.41771 0
M  V30 397 N 39.9087 -1.5758 0.0250728 0
M  V30 398 C 40.8407 -2.06869 -0.986796 0
M  V30 399 C 41.8537 -0.991332 -1.29137 0
M  V30 400 O 43.0427 -1.26761 -1.25674 0
M  V30 401 C 40.1427 -2.47486 -2.31525 0
M  V30 402 C 39.3157 -3.78253 -2.19643 0
M  V30 403 C 38.3747 -4.05464 -3.35388 0
M  V30 404 O 37.4007 -4.75774 -3.12454 0
M  V30 405 N 38.6027 -3.55321 -4.59051 0
M  V30 406 H 41.3677 -2.94302 -0.566276 0
M  V30 407 H 38.9287 -1.6109 -0.161776 0
M  V30 408 H 40.9207 -2.62785 -3.07776 0
M  V30 409 H 39.4907 -1.65441 -2.65232 0
M  V30 410 H 38.7107 -3.7279 -1.28144 0
M  V30 411 H 39.9987 -4.63936 -2.08903 0
M  V30 412 H 39.3967 -2.98431 -4.80578 0
M  V30 413 H 37.9537 -3.75905 -5.32483 0
M  V30 414 N 41.3868 0.248026 -1.55636 0
M  V30 415 C 42.6328 0.97767 -1.77678 0
M  V30 416 C 42.9658 1.85016 -0.590135 0
M  V30 417 O 42.2408 1.90095 0.411611 0
M  V30 418 C 42.5238 1.83914 -3.09593 0
M  V30 419 C 42.3768 0.99491 -4.38659 0
M  V30 420 C 43.6958 2.82183 -3.37729 0
M  V30 421 H 40.8148 0.354005 -0.646413 0
M  V30 422 H 43.4568 0.248253 -1.88371 0
M  V30 423 H 41.6068 2.46104 -3.00608 0
M  V30 424 H 43.2788 0.391789 -4.59633 0
M  V30 425 H 41.5218 0.299231 -4.32767 0
M  V30 426 H 42.1928 1.63145 -5.2734 0
M  V30 427 H 44.6688 2.30129 -3.4667 0
M  V30 428 H 43.5448 3.39582 -4.31249 0
M  V30 429 H 43.8058 3.58588 -2.58586 0
M  V30 430 N 42.8649 1.48995 0.513639 0
M  V30 431 C 44.0949 1.61297 1.291 0
M  V30 432 C 44.5029 0.278656 1.87137 0
M  V30 433 O 43.8459 -0.744325 1.67945 0
M  V30 434 C 43.9079 2.61326 2.46879 0
M  V30 435 C 43.5719 4.05993 2.09807 0
M  V30 436 C 44.5689 4.93183 1.64519 0
M  V30 437 C 42.2539 4.51642 2.19829 0
M  V30 438 C 44.2479 6.24056 1.2974 0
M  V30 439 C 41.9349 5.82532 1.84662 0
M  V30 440 C 42.9329 6.68562 1.3969 0
M  V30 441 O 42.6209 7.97014 1.04992 0
M  V30 442 H 42.3529 0.546236 0.39825 0
M  V30 443 H 44.9069 1.95673 0.62459 0
M  V30 444 H 43.1369 2.22104 3.16554 0
M  V30 445 H 44.8259 2.6329 3.08923 0
M  V30 446 H 45.5919 4.59147 1.56233 0
M  V30 447 H 41.4709 3.84855 2.53786 0
M  V30 448 H 45.0149 6.91161 0.945659 0
M  V30 449 H 40.9119 6.16099 1.92594 0
M  V30 450 H 41.6799 8.09913 1.18249 0
M  V30 451 N 44.343 -0.763751 1.37857 0
M  V30 452 C 45.589 -1.52396 1.3471 0
M  V30 453 C 45.944 -1.92288 -0.0656435 0
M  V30 454 O 45.237 -1.6181 -1.02606 0
M  V30 455 C 45.431 -2.79499 2.22745 0
M  V30 456 C 45.26 -2.52031 3.72438 0
M  V30 457 C 44.03 -2.45759 4.4151 0
M  V30 458 C 46.228 -2.19489 4.65112 0
M  V30 459 N 44.21 -2.1046 5.76697 0
M  V30 460 C 45.581 -1.94396 5.88736 0
M  V30 461 C 47.636 -2.05712 4.53417 0
M  V30 462 C 46.339 -1.56917 7.01975 0
M  V30 463 C 48.365 -1.69634 5.66549 0
M  V30 464 C 47.727 -1.45407 6.89229 0
M  V30 465 H 43.826 -0.55765 0.548225 0
M  V30 466 H 46.41 -0.890302 1.73152 0
M  V30 467 H 44.581 -3.4069 1.86507 0
M  V30 468 H 46.313 -3.45465 2.10798 0
M  V30 469 H 43.068 -2.61885 3.94605 0
M  V30 470 H 43.492 -1.95484 6.48163 0
M  V30 471 H 48.134 -2.23123 3.59133 0
M  V30 472 H 45.852 -1.38246 7.96187 0
M  V30 473 H 49.438 -1.59621 5.59475 0
M  V30 474 H 48.318 -1.17904 7.75286 0
M  V30 475 N 45.8211 -1.22559 -0.990812 0
M  V30 476 C 46.7681 -0.997519 -2.0813 0
M  V30 477 C 47.7381 0.0814702 -1.659 0
M  V30 478 O 48.9231 -0.0685424 -1.90677 0
M  V30 479 C 46.0631 -0.583615 -3.40129 0
M  V30 480 C 45.1761 -1.7336 -3.9569 0
M  V30 481 C 44.3111 -1.26748 -5.15857 0
M  V30 482 C 43.3501 -2.38888 -5.63559 0
M  V30 483 N 42.4871 -1.93308 -6.74964 0
M  V30 484 H 47.3271 -1.93099 -2.26973 0
M  V30 485 H 44.8641 -0.962114 -1.11273 0
M  V30 486 H 46.8221 -0.324801 -4.15934 0
M  V30 487 H 45.4521 0.312845 -3.2128 0
M  V30 488 H 44.5041 -2.10669 -3.16738 0
M  V30 489 H 45.8161 -2.57704 -4.27071 0
M  V30 490 H 44.9701 -0.966173 -5.98957 0
M  V30 491 H 43.7091 -0.394272 -4.86104 0
M  V30 492 H 42.7141 -2.69805 -4.79046 0
M  V30 493 H 43.9391 -3.26728 -5.95336 0
M  V30 494 H 41.8851 -1.08352 -6.4699 0
M  V30 495 H 41.8021 -2.71217 -7.05675 0
M  V30 496 H 43.0701 -1.66252 -7.61564 0
M  V30 497 N 47.2992 1.18797 -1.03562 0
M  V30 498 C 48.5272 1.92599 -0.755869 0
M  V30 499 C 48.9422 1.75886 0.686271 0
M  V30 500 O 48.2992 1.08517 1.46732 0
M  V30 501 C 48.3502 3.44159 -1.10619 0
M  V30 502 O 48.0712 3.60341 -2.4917 0
M  V30 503 C 49.5722 4.3507 -0.850214 0
M  V30 504 H 46.7922 0.611587 -0.276048 0
M  V30 505 H 49.3362 1.50742 -1.38192 0
M  V30 506 H 47.4912 3.83823 -0.525194 0
M  V30 507 H 47.9052 4.54128 -2.62427 0
M  V30 508 H 49.3792 5.39989 -1.14523 0
M  V30 509 H 49.8562 4.38673 0.215176 0
M  V30 510 H 50.4622 4.01097 -1.41426 0
M  V30 511 N 48.7773 0.814389 1.34928 0
M  V30 512 C 50.0543 0.321363 1.92942 0
M  V30 513 C 50.4343 -1.19014 1.74353 0
M  V30 514 O 49.7823 -1.99328 1.11716 0
M  V30 515 C 49.9923 0.741323 3.41036 0
M  V30 516 C 51.3403 0.735266 4.18185 0
M  V30 517 O 52.3643 0.68336 3.49584 0
M  V30 518 O 51.2233 0.800703 5.40602 0
M  V30 519 H 48.3173 0.0858893 0.822528 0
M  V30 520 H 50.8633 0.898609 1.43955 0
M  V30 521 H 49.6353 1.78276 3.4833 0
M  V30 522 H 49.2583 0.139307 3.97356 0
M  V30 523 N 50.2554 -1.46986 0.568584 0
M  V30 524 C 51.2034 -2.31858 -0.185649 0
M  V30 525 C 52.1974 -1.43624 -0.898249 0
M  V30 526 O 53.4034 -1.60327 -0.818242 0
M  V30 527 H 49.7784 -0.747866 -0.0787399 0
M  V30 528 H 51.7494 -2.93303 0.549191 0
M  V30 529 C 50.4984 -3.26513 -1.19519 0
M  V30 530 H 49.8214 -3.94377 -0.656285 0
M  V30 531 H 51.2614 -3.88707 -1.6936 0
M  V30 532 C 49.7204 -2.50847 -2.24894 0
M  V30 533 O 50.2504 -2.26119 -3.32014 0
M  V30 534 N 48.4564 -2.11656 -1.99124 0
M  V30 535 H 48.0034 -2.31966 -1.12024 0
M  V30 536 H 47.9614 -1.61347 -2.69842 0
M  V30 537 N 51.7335 -0.305618 -1.54608 0
M  V30 538 C 52.6815 0.584119 -2.25146 0
M  V30 539 C 53.6755 1.13326 -1.25911 0
M  V30 540 O 54.8815 1.08337 -1.43747 0
M  V30 541 H 51.2565 0.206983 -0.722954 0
M  V30 542 H 53.2275 -0.033291 -2.98381 0
M  V30 543 C 51.9765 1.74225 -3.009 0
M  V30 544 H 51.2995 1.32892 -3.77067 0
M  V30 545 H 52.7395 2.34077 -3.53531 0
M  V30 546 C 51.1985 2.64914 -2.0814 0
M  V30 547 O 51.7285 3.66137 -1.65246 0
M  V30 548 N 49.9345 2.3275 -1.74 0
M  V30 549 H 49.4815 1.50479 -2.09078 0
M  V30 550 H 49.4395 2.93694 -1.12211 0
M  V30 551 N 53.2116 1.57565 -0.0334293 0
M  V30 552 C 54.4576 1.92262 0.645226 0
M  V30 553 C 54.7906 0.910543 1.71531 0
M  V30 554 O 54.0656 -0.066099 1.94388 0
M  V30 555 C 54.3486 3.37422 1.2577 0
M  V30 556 C 54.2016 4.49369 0.196891 0
M  V30 557 C 55.5206 3.82628 2.17449 0
M  V30 558 H 52.6396 0.699171 0.233085 0
M  V30 559 H 55.2816 1.89779 -0.0915694 0
M  V30 560 H 53.4316 3.39669 1.88566 0
M  V30 561 H 55.1036 4.59254 -0.433962 0
M  V30 562 H 53.3466 4.31168 -0.477137 0
M  V30 563 H 54.0176 5.47978 0.665124 0
M  V30 564 H 56.4936 3.82145 1.64634 0
M  V30 565 H 55.3696 4.84883 2.57254 0
M  V30 566 H 55.6306 3.18376 3.0674 0
M  V30 567 N 54.6897 -0.239769 1.55765 0
M  V30 568 C 55.9387 -0.964754 1.77131 0
M  V30 569 C 56.2517 -1.86213 0.59868 0
M  V30 570 O 57.4577 -2.6244 0.695522 0
M  V30 571 C 55.9137 -1.76552 3.1362 0
M  V30 572 C 55.5217 -0.915185 4.38553 0
M  V30 573 C 57.2657 -2.48281 3.44321 0
M  V30 574 C 55.1727 -1.71225 5.66071 0
M  V30 575 H 54.1027 -0.363953 0.660344 0
M  V30 576 H 56.7537 -0.219181 1.82186 0
M  V30 577 H 55.1357 -2.55331 3.02691 0
M  V30 578 H 56.3097 -0.169217 4.60489 0
M  V30 579 H 54.6247 -0.310889 4.15238 0
M  V30 580 H 57.2217 -3.08382 4.36812 0
M  V30 581 H 57.5647 -3.20256 2.65973 0
M  V30 582 H 58.0977 -1.76507 3.56497 0
M  V30 583 H 54.8367 -1.03612 6.4726 0
M  V30 584 H 54.3567 -2.43331 5.48224 0
M  V30 585 H 56.0357 -2.27758 6.05587 0
M  V30 586 N 56.1678 -1.49265 -0.50573 0
M  V30 587 C 57.3978 -1.61979 -1.28243 0
M  V30 588 C 57.8058 -0.288576 -1.86986 0
M  V30 589 O 57.1488 0.735408 -1.68337 0
M  V30 590 C 57.2108 -2.62632 -2.45489 0
M  V30 591 C 56.8748 -4.071 -2.07651 0
M  V30 592 C 57.8718 -4.94049 -1.61901 0
M  V30 593 C 55.5568 -4.52801 -2.17431 0
M  V30 594 C 57.5508 -6.24736 -1.26428 0
M  V30 595 C 55.2378 -5.83503 -1.8157 0
M  V30 596 C 56.2358 -6.69294 -1.36142 0
M  V30 597 O 55.9238 -7.9756 -1.00764 0
M  V30 598 H 55.6558 -0.54834 -0.395347 0
M  V30 599 H 58.2098 -1.96002 -0.614204 0
M  V30 600 H 56.4398 -2.2378 -3.15372 0
M  V30 601 H 58.1288 -2.64925 -3.07522 0
M  V30 602 H 58.8948 -4.5997 -1.53795 0
M  V30 603 H 54.7738 -3.86196 -2.51742 0
M  V30 604 H 58.3178 -6.91652 -0.908992 0
M  V30 605 H 54.2148 -6.17112 -1.89324 0
M  V30 606 H 54.9828 -8.10529 -1.13952 0
M  V30 607 N 57.6459 0.756429 -1.3826 0
M  V30 608 C 58.5779 1.87971 -1.31147 0
M  V30 609 C 59.5909 1.61248 -0.224239 0
M  V30 610 O 60.7799 1.71881 -0.481581 0
M  V30 611 C 57.8799 3.23545 -1.00857 0
M  V30 612 C 57.0529 3.77794 -2.20432 0
M  V30 613 C 56.1119 4.91877 -1.86931 0
M  V30 614 O 55.1379 5.06659 -2.59395 0
M  V30 615 N 56.3399 5.74643 -0.822568 0
M  V30 616 H 59.1049 1.94585 -2.2794 0
M  V30 617 H 56.6659 0.936234 -1.32084 0
M  V30 618 H 58.6579 3.97403 -0.765021 0
M  V30 619 H 57.2279 3.12335 -0.128687 0
M  V30 620 H 56.4479 2.95534 -2.6087 0
M  V30 621 H 57.7359 4.10771 -3.00241 0
M  V30 622 H 57.1339 5.65266 -0.221575 0
M  V30 623 H 55.6909 6.48661 -0.638899 0
M  V30 624 N 59.124 1.23083 0.984299 0
M  V30 625 C 60.37 1.06214 1.72761 0
M  V30 626 C 60.703 -0.400584 1.90024 0
M  V30 627 O 59.978 -1.29672 1.44967 0
M  V30 628 C 60.261 1.78375 3.12817 0
M  V30 629 C 60.114 3.32296 3.03149 0
M  V30 630 C 61.433 1.54309 4.12161 0
M  V30 631 H 58.552 0.387251 0.627061 0
M  V30 632 H 61.194 1.51536 1.14616 0
M  V30 633 H 59.344 1.39848 3.62457 0
M  V30 634 H 61.016 3.8032 2.61064 0
M  V30 635 H 59.259 3.6153 2.39747 0
M  V30 636 H 59.93 3.77972 4.02295 0
M  V30 637 H 62.406 1.87791 3.71314 0
M  V30 638 H 61.282 2.07281 5.08258 0
M  V30 639 H 61.543 0.477572 4.39513 0
M  V30 640 N 60.6021 -1.18246 1.0419 0
M  V30 641 C 61.8791 -1.84121 0.660208 0
M  V30 642 C 62.2591 -1.92778 -0.860221 0
M  V30 643 O 61.6071 -1.45464 -1.76217 0
M  V30 644 C 61.8171 -3.22355 1.33747 0
M  V30 645 C 63.1651 -3.98376 1.46906 0
M  V30 646 O 64.1891 -3.31799 1.29568 0
M  V30 647 O 63.0481 -5.17665 1.75171 0
M  V30 648 H 60.1421 -0.794036 0.231161 0
M  V30 649 H 62.6881 -1.25628 1.14087 0
M  V30 650 H 61.4601 -3.10964 2.37522 0
M  V30 651 H 61.0831 -3.88506 0.845515 0
M  V30 652 N 62.0802 -0.821533 -1.34494 0
M  V30 653 C 63.3282 -0.408139 -1.97936 0
M  V30 654 C 63.6492 1.03193 -1.65457 0
M  V30 655 O 62.9192 1.71622 -0.944595 0
M  V30 656 H 61.4992 -0.147928 -0.732206 0
M  V30 657 H 64.1612 -1.05067 -1.64155 0
M  V30 658 H 63.2572 -0.52601 -3.07635 0
M  V30 659 N 63.5583 1.46682 -0.576371 0
M  V30 660 C 64.7833 2.07304 -0.0630475 0
M  V30 661 C 65.2083 1.42329 1.2298 0
M  V30 662 O 64.5663 0.504865 1.74129 0
M  V30 663 C 64.6143 3.60472 0.095895 0
M  V30 664 O 63.7183 3.95927 1.15394 0
M  V30 665 H 63.0593 0.661288 -0.0599463 0
M  V30 666 H 65.5893 1.88417 -0.797511 0
M  V30 667 H 65.5993 4.06865 0.304071 0
M  V30 668 H 64.2743 4.07157 -0.84828 0
M  V30 669 H 62.8513 3.61252 0.924724 0
M  V30 670 N 65.0364 0.313813 1.54444 0
M  V30 671 C 65.9834 -0.55655 2.23989 0
M  V30 672 C 66.9534 -1.11943 1.22711 0
M  V30 673 O 68.1384 -1.16158 1.51367 0
M  V30 674 C 65.2784 -1.71635 2.99392 0
M  V30 675 C 64.3914 -1.18364 4.15468 0
M  V30 676 C 63.5264 -2.30834 4.78424 0
M  V30 677 C 62.5654 -1.74762 5.86622 0
M  V30 678 N 61.7024 -2.80855 6.43479 0
M  V30 679 H 66.5424 0.0430893 2.97969 0
M  V30 680 H 64.0794 0.0330359 1.47063 0
M  V30 681 H 66.0374 -2.39868 3.41349 0
M  V30 682 H 64.6674 -2.28742 2.27765 0
M  V30 683 H 63.7194 -0.393163 3.78363 0
M  V30 684 H 65.0314 -0.733262 4.93381 0
M  V30 685 H 64.1854 -3.0699 5.23299 0
M  V30 686 H 62.9244 -2.79204 3.99871 0
M  V30 687 H 61.9294 -0.970995 5.41158 0
M  V30 688 H 63.1544 -1.2728 6.67066 0
M  V30 689 H 61.1004 -3.28535 5.67804 0
M  V30 690 H 61.0174 -2.40351 7.16776 0
M  V30 691 H 62.2854 -3.5687 6.93011 0
M  V30 692 N 66.5145 -1.57545 0.0417849 0
M  V30 693 C 67.7395 -1.97035 -0.647455 0
M  V30 694 C 68.1645 -0.918775 -1.64135 0
M  V30 695 O 67.5225 0.119006 -1.80909 0
M  V30 696 C 67.5705 -3.35609 -1.31905 0
M  V30 697 O 66.6745 -3.3287 -2.43457 0
M  V30 698 H 66.0155 -0.64211 -0.169086 0
M  V30 699 H 68.5455 -2.04318 0.107399 0
M  V30 700 H 68.5555 -3.72126 -1.67291 0
M  V30 701 H 67.2305 -4.11685 -0.590586 0
M  V30 702 H 65.8075 -3.08087 -2.10088 0
M  V30 703 N 67.9926 0.231505 -1.5589 0
M  V30 704 C 69.2396 0.957352 -1.78441 0
M  V30 705 C 69.5676 1.84726 -0.60882 0
M  V30 706 O 68.8226 1.91416 0.40725 0
M  V30 707 C 69.1216 1.83577 -3.0665 0
M  V30 708 C 68.7876 1.09993 -4.37278 0
M  V30 709 C 67.4496 0.896629 -4.72773 0
M  V30 710 C 69.8016 0.579558 -5.17968 0
M  V30 711 C 67.1296 0.160896 -5.86479 0
M  V30 712 C 69.4816 -0.142783 -6.32439 0
M  V30 713 C 68.1456 -0.357427 -6.66542 0
M  V30 714 H 67.4156 0.35032 -0.65296 0
M  V30 715 H 70.0626 0.226259 -1.90159 0
M  V30 716 H 68.3676 2.63441 -2.90011 0
M  V30 717 H 70.0646 2.39934 -3.21298 0
M  V30 718 H 66.6546 1.26835 -4.09403 0
M  V30 719 H 70.8386 0.724125 -4.90989 0
M  V30 720 H 66.0946 -0.0157293 -6.11398 0
M  V30 721 H 70.2686 -0.553559 -6.94196 0
M  V30 722 H 67.8956 -0.929466 -7.54497 0
M  V30 723 N 69.4707 1.49531 0.497807 0
M  V30 724 C 70.4187 1.66926 1.61983 0
M  V30 725 C 71.4127 0.535167 1.60724 0
M  V30 726 O 72.6187 0.714896 1.65195 0
M  V30 727 H 68.9937 0.526415 0.537021 0
M  V30 728 H 70.9647 2.61098 1.44465 0
M  V30 729 C 69.7137 1.75602 3.00099 0
M  V30 730 H 69.0367 2.62244 3.01775 0
M  V30 731 H 70.4767 1.91807 3.78135 0
M  V30 732 C 68.9357 0.501543 3.33146 0
M  V30 733 O 69.4657 -0.371342 3.9998 0
M  V30 734 N 67.6717 0.363531 2.88317 0
M  V30 735 H 67.2187 1.07485 2.34104 0
M  V30 736 H 67.1767 -0.474728 3.10795 0
M  V30 737 N 70.9488 -0.749086 1.3866 0
M  V30 738 C 72.1958 -1.50833 1.35114 0
M  V30 739 C 72.5238 -1.94415 -0.0574049 0
M  V30 740 O 71.7788 -1.66065 -1.03541 0
M  V30 741 C 72.0778 -2.7712 2.25697 0
M  V30 742 C 71.7438 -2.52477 3.73585 0
M  V30 743 C 70.4058 -2.45466 4.13884 0
M  V30 744 C 72.7578 -2.31066 4.67181 0
M  V30 745 C 70.0858 -2.15064 5.45861 0
M  V30 746 C 72.4378 -2.02183 5.9942 0
M  V30 747 C 71.1018 -1.93631 6.38798 0
M  V30 748 H 70.3718 -0.551936 0.494416 0
M  V30 749 H 73.0188 -0.860979 1.71054 0
M  V30 750 H 71.3238 -3.46528 1.82827 0
M  V30 751 H 73.0208 -3.35096 2.20254 0
M  V30 752 H 69.6108 -2.58807 3.41638 0
M  V30 753 H 73.7948 -2.35459 4.3689 0
M  V30 754 H 69.0508 -2.06954 5.75308 0
M  V30 755 H 73.2248 -1.8462 6.71482 0
M  V30 756 H 70.8518 -1.69839 7.40985 0
M  V30 757 N 72.4269 -1.23603 -0.977757 0
M  V30 758 C 73.7039 -0.977897 -1.69401 0
M  V30 759 C 74.0839 0.502738 -2.05026 0
M  V30 760 O 73.4319 1.47459 -1.74551 0
M  V30 761 C 73.6419 -1.89077 -2.93345 0
M  V30 762 C 74.9899 -2.15579 -3.65802 0
M  V30 763 O 76.0139 -1.86648 -3.03383 0
M  V30 764 O 74.8729 -2.64658 -4.78141 0
M  V30 765 H 71.9669 -0.369025 -0.740101 0
M  V30 766 H 74.5129 -1.34657 -1.03274 0
M  V30 767 H 73.2849 -2.89158 -2.63634 0
M  V30 768 H 72.9079 -1.52463 -3.67207 0
M  V30 769 N 73.905 1.17692 -1.04816 0
M  V30 770 C 75.321 1.39863 -0.768794 0
M  V30 771 C 75.521 1.91118 0.638451 0
M  V30 772 O 74.577 2.10036 1.40146 0
M  V30 773 C 75.89 2.39274 -1.82122 0
M  V30 774 C 77.438 2.52987 -1.843 0
M  V30 775 C 77.913 3.55669 -2.88555 0
M  V30 776 N 79.404 3.63183 -2.87493 0
M  V30 777 C 80.139 4.42381 -3.64811 0
M  V30 778 N 79.635 5.25125 -4.51903 0
M  V30 779 N 81.428 4.37217 -3.53267 0
M  V30 780 H 73.579 0.82752 -1.95617 0
M  V30 781 H 75.842 0.426123 -0.846831 0
M  V30 782 H 75.548 2.08678 -2.83102 0
M  V30 783 H 75.422 3.38725 -1.65967 0
M  V30 784 H 77.809 2.82896 -0.839869 0
M  V30 785 H 77.89 1.53623 -2.04532 0
M  V30 786 H 77.534 3.26499 -3.89051 0
M  V30 787 H 77.464 4.54728 -2.65575 0
M  V30 788 H 79.955 3.04103 -2.24343 0
M  V30 789 H 80.268 5.82728 -5.07591 0
M  V30 790 H 78.613 5.24519 -4.55966 0
M  V30 791 H 81.804 3.71626 -2.84625 0
M  V30 792 H 81.977 4.98696 -4.13771 0
M  V30 793 N 75.3831 0.828654 1.34056 0
M  V30 794 C 76.6291 0.42008 1.98402 0
M  V30 795 C 76.9621 -1.01564 1.65525 0
M  V30 796 O 76.2371 -1.70834 0.929831 0
M  V30 797 C 76.5201 0.62927 3.54559 0
M  V30 798 C 76.3731 2.11152 3.97159 0
M  V30 799 C 77.6921 0.0688756 4.40046 0
M  V30 800 H 74.8111 0.154104 0.720709 0
M  V30 801 H 77.4531 1.04228 1.5886 0
M  V30 802 H 75.6031 0.0996418 3.88372 0
M  V30 803 H 77.2751 2.70522 3.73651 0
M  V30 804 H 75.5181 2.59985 3.47261 0
M  V30 805 H 76.1891 2.20868 5.05887 0
M  V30 806 H 78.6651 0.521458 4.1282 0
M  V30 807 H 77.5411 0.245006 5.48353 0
M  V30 808 H 77.8021 -1.0266 4.30015 0
M  V30 809 N 76.8612 -1.46375 0.584142 0
M  V30 810 C 78.1082 -2.02378 0.0702675 0
M  V30 811 C 78.4362 -1.45545 -1.29023 0
M  V30 812 O 77.6912 -0.610967 -1.85918 0
M  V30 813 C 77.9902 -3.57373 -0.0439342 0
M  V30 814 C 77.6562 -4.33252 1.24915 0
M  V30 815 C 76.3182 -4.53701 1.60341 0
M  V30 816 C 78.6702 -4.7681 2.1048 0
M  V30 817 C 75.9982 -5.1496 2.81128 0
M  V30 818 C 78.3502 -5.39404 3.30494 0
M  V30 819 C 77.0142 -5.5808 3.66201 0
M  V30 820 H 76.2842 -0.740554 0.0257127 0
M  V30 821 H 78.9312 -1.75727 0.761065 0
M  V30 822 H 77.2362 -3.83169 -0.817869 0
M  V30 823 H 78.9332 -3.98384 -0.457318 0
M  V30 824 H 75.5232 -4.17633 0.963364 0
M  V30 825 H 79.7072 -4.60766 1.84414 0
M  V30 826 H 74.9632 -5.27611 3.08928 0
M  V30 827 H 79.1372 -5.72114 3.97063 0
M  V30 828 H 76.7642 -6.05318 4.59885 0
M  V30 829 N 78.3393 -0.321999 -1.54275 0
M  V30 830 C 79.2893 0.560185 -2.21011 0
M  V30 831 C 80.2733 1.08283 -1.19011 0
M  V30 832 O 81.4653 1.02011 -1.44647 0
M  V30 833 C 78.5943 1.72137 -2.97025 0
M  V30 834 C 77.6803 1.21369 -4.06363 0
M  V30 835 N 78.0713 0.425566 -5.04007 0
M  V30 836 C 76.3693 1.49255 -4.20284 0
M  V30 837 C 77.0703 0.152601 -5.815 0
M  V30 838 N 76.0463 0.738294 -5.38563 0
M  V30 839 H 79.8483 -0.049265 -2.93859 0
M  V30 840 H 77.3623 -0.127779 -1.61897 0
M  V30 841 H 79.3593 2.36512 -3.43319 0
M  V30 842 H 78.0193 2.33431 -2.25699 0
M  V30 843 H 79.0303 0.068551 -5.17855 0
M  V30 844 H 75.7073 2.11145 -3.60172 0
M  V30 845 H 77.0973 -0.481764 -6.70171 0
M  V30 846 N 79.8174 1.5752 -0.0501392 0
M  V30 847 C 81.0654 1.9227 0.622642 0
M  V30 848 C 81.3864 0.929083 1.71444 0
M  V30 849 O 80.6564 -0.0262186 1.95882 0
M  V30 850 H 79.2364 0.709739 0.232981 0
M  V30 851 H 81.8984 1.94628 -0.102898 0
M  V30 852 H 80.9944 2.93479 1.06191 0
M  V30 853 N 81.2955 -0.223234 1.56011 0
M  V30 854 C 82.2435 -1.29627 1.93131 0
M  V30 855 C 83.2375 -1.48608 0.813146 0
M  V30 856 O 84.4435 -1.49802 0.997966 0
M  V30 857 H 80.8185 -0.434563 0.613726 0
M  V30 858 H 82.7895 -0.955995 2.82672 0
M  V30 859 C 81.5385 -2.63983 2.26292 0
M  V30 860 H 80.8615 -2.50185 3.11846 0
M  V30 861 H 82.3015 -3.3788 2.56151 0
M  V30 862 C 80.7605 -3.18866 1.08747 0
M  V30 863 O 81.2905 -4.00192 0.347727 0
M  V30 864 N 79.4965 -2.77217 0.871743 0
M  V30 865 H 79.0435 -2.1119 1.47501 0
M  V30 866 H 79.0015 -3.1428 0.0869905 0
M  V30 867 N 82.7736 -1.49793 -0.48987 0
M  V30 868 C 83.6836 -1.70036 -1.61632 0
M  V30 869 C 84.6996 -0.583102 -1.63939 0
M  V30 870 O 85.8756 -0.859169 -1.82154 0
M  V30 871 C 82.9406 -1.77277 -2.97949 0
M  V30 872 C 82.0016 -3.00918 -3.06181 0
M  V30 873 C 81.2346 -3.07804 -4.35996 0
M  V30 874 O 81.4576 -2.21982 -5.25433 0
M  V30 875 O 80.3916 -4.00369 -4.49431 0
M  V30 876 H 84.2176 -2.65486 -1.47482 0
M  V30 877 H 81.8026 -1.33666 -0.667362 0
M  V30 878 H 83.6846 -1.84329 -3.78947 0
M  V30 879 H 82.3596 -0.850076 -3.12339 0
M  V30 880 H 81.2666 -2.99377 -2.2433 0
M  V30 881 H 82.5996 -3.92704 -2.96723 0
M  V30 882 N 84.2517 0.741722 -1.39055 0
M  V30 883 C 85.4797 1.53098 -1.39171 0
M  V30 884 C 85.8947 1.88794 0.0155099 0
M  V30 885 O 85.2517 1.53626 0.985159 0
M  V30 886 C 85.3027 2.82274 -2.2584 0
M  V30 887 O 85.0237 2.48097 -3.61081 0
M  V30 888 C 86.5247 3.76343 -2.34266 0
M  V30 889 H 83.7447 0.473335 -0.4756 0
M  V30 890 H 86.2887 0.917045 -1.82785 0
M  V30 891 H 84.4437 3.40015 -1.85656 0
M  V30 892 H 84.8577 3.31029 -4.06842 0
M  V30 893 H 86.3317 4.63898 -2.9917 0
M  V30 894 H 86.8087 4.17619 -1.35982 0
M  V30 895 H 87.4147 3.24523 -2.74891 0
M  V30 896 N 85.7298 1.2412 0.971189 0
M  V30 897 C 86.9578 1.10575 1.74874 0
M  V30 898 C 87.3728 -0.342017 1.85676 0
M  V30 899 O 86.7298 -1.23617 1.34258 0
M  V30 900 C 86.7808 1.73579 3.171 0
M  V30 901 O 86.5018 3.12695 3.06844 0
M  V30 902 C 88.0028 1.65598 4.11208 0
M  V30 903 H 85.2228 0.386504 0.548503 0
M  V30 904 H 87.7668 1.64156 1.21955 0
M  V30 905 H 85.9218 1.24009 3.67016 0
M  V30 906 H 86.3358 3.43412 3.96445 0
M  V30 907 H 87.8098 2.1437 5.08674 0
M  V30 908 H 88.2868 0.616532 4.34851 0
M  V30 909 H 88.8928 2.14578 3.67201 0
M  V30 910 N 87.2079 -1.17134 1.05439 0
M  V30 911 C 88.1549 -2.21235 0.657539 0
M  V30 912 C 89.1249 -1.62551 -0.341543 0
M  V30 913 O 90.3099 -1.89379 -0.232393 0
M  V30 914 C 87.4499 -3.45076 0.0410575 0
M  V30 915 C 86.5629 -4.18042 1.08927 0
M  V30 916 C 85.6979 -5.29376 0.439848 0
M  V30 917 C 84.7369 -5.94132 1.4722 0
M  V30 918 N 83.8739 -6.96975 0.846756 0
M  V30 919 H 88.7139 -2.54534 1.54972 0
M  V30 920 H 86.2509 -1.25028 0.775006 0
M  V30 921 H 88.2089 -4.15862 -0.33383 0
M  V30 922 H 86.8389 -3.12353 -0.814568 0
M  V30 923 H 85.8909 -3.45945 1.58196 0
M  V30 924 H 87.2029 -4.62306 1.87282 0
M  V30 925 H 86.3569 -6.06699 0.0115125 0
M  V30 926 H 85.0959 -4.86251 -0.375656 0
M  V30 927 H 84.1009 -5.15538 1.91052 0
M  V30 928 H 85.3259 -6.39337 2.28965 0
M  V30 929 H 83.2719 -6.5598 0.0518075 0
M  V30 930 H 83.1889 -7.39565 1.5678 0
M  V30 931 H 84.4569 -7.78239 0.443277 0
M  V30 932 N 88.686 -0.835752 -1.33615 0
M  V30 933 C 89.634 -0.255238 -2.31195 0
M  V30 934 C 90.628 0.61107 -1.57995 0
M  V30 935 O 91.834 0.500979 -1.72888 0
M  V30 936 H 88.209 -0.0638085 -0.749288 0
M  V30 937 H 90.18 -1.09283 -2.77669 0
M  V30 938 C 88.929 0.55754 -3.43201 0
M  V30 939 H 88.252 -0.0997553 -3.99676 0
M  V30 940 H 89.692 0.929622 -4.13683 0
M  V30 941 C 88.151 1.73515 -2.88781 0
M  V30 942 O 88.681 2.83376 -2.84712 0
M  V30 943 N 86.887 1.55603 -2.4543 0
M  V30 944 H 86.434 0.662354 -2.48939 0
M  V30 945 H 86.392 2.34545 -2.09371 0
M  V30 946 N 90.1641 1.46063 -0.591896 0
M  V30 947 C 91.4101 2.02638 -0.0811191 0
M  V30 948 C 91.7431 1.4613 1.27905 0
M  V30 949 O 91.0181 0.629908 1.84017 0
M  V30 950 C 91.3011 3.60091 -0.0252436 0
M  V30 951 C 91.1541 4.26965 -1.41496 0
M  V30 952 C 92.4731 4.3496 0.670685 0
M  V30 953 H 89.5921 0.73635 -0.0309524 0
M  V30 954 H 92.2341 1.741 -0.760859 0
M  V30 955 H 90.3841 3.84535 0.553624 0
M  V30 956 H 92.0561 4.13756 -2.0397 0
M  V30 957 H 90.2991 3.85971 -1.98011 0
M  V30 958 H 90.9701 5.35781 -1.32825 0
M  V30 959 H 93.4461 4.15716 0.178825 0
M  V30 960 H 92.3221 5.44686 0.678837 0
M  V30 961 H 92.5831 4.06685 1.73379 0
M  V30 962 N 91.6422 0.330177 1.54103 0
M  V30 963 C 92.8722 -0.271784 2.04805 0
M  V30 964 C 93.2802 -1.45816 1.20559 0
M  V30 965 O 92.6232 -1.82247 0.2306 0
M  V30 966 C 92.6852 -0.763238 3.51305 0
M  V30 967 C 92.3492 0.301705 4.56003 0
M  V30 968 C 93.3462 1.13999 5.07248 0
M  V30 969 C 91.0312 0.451793 5.00264 0
M  V30 970 C 93.0252 2.11402 6.01322 0
M  V30 971 C 90.7122 1.42924 5.94151 0
M  V30 972 C 91.7102 2.25882 6.44567 0
M  V30 973 O 91.3982 3.21965 7.3661 0
M  V30 974 H 91.1302 -0.058693 0.673447 0
M  V30 975 H 93.6842 0.476395 1.99799 0
M  V30 976 H 91.9142 -1.56244 3.5373 0
M  V30 977 H 93.6032 -1.28427 3.85047 0
M  V30 978 H 94.3692 1.03505 4.73827 0
M  V30 979 H 90.2482 -0.184044 4.60632 0
M  V30 980 H 93.7922 2.76192 6.40596 0
M  V30 981 H 89.6892 1.53479 6.26988 0
M  V30 982 H 90.4572 3.17281 7.54503 0
M  V30 983 N 93.1203 -1.57491 0.0584922 0
M  V30 984 C 94.0303 -2.15448 -0.928414 0
M  V30 985 C 95.0463 -1.11416 -1.3365 0
M  V30 986 O 96.2223 -1.4362 -1.41193 0
M  V30 987 C 93.2873 -2.69393 -2.18239 0
M  V30 988 C 92.3483 -3.88249 -1.83196 0
M  V30 989 C 91.5813 -4.39613 -3.02616 0
M  V30 990 O 91.8043 -3.90023 -4.16219 0
M  V30 991 O 90.7383 -5.31111 -2.83204 0
M  V30 992 H 94.5643 -3.00112 -0.465483 0
M  V30 993 H 92.1493 -1.48499 -0.163826 0
M  V30 994 H 94.0313 -3.04026 -2.91798 0
M  V30 995 H 92.7063 -1.87796 -2.63656 0
M  V30 996 H 91.6133 -3.58492 -1.06931 0
M  V30 997 H 92.9463 -4.71098 -1.42573 0
M  V30 998 N 94.5984 0.214957 -1.56127 0
M  V30 999 C 95.5084 1.28727 -1.96129 0
M  V30 1000 C 96.5244 1.50916 -0.866044 0
M  V30 1001 O 97.7004 1.63918 -1.17016 0
M  V30 1002 C 94.7654 2.61569 -2.27558 0
M  V30 1003 C 93.8264 2.47625 -3.50685 0
M  V30 1004 C 93.0594 3.74132 -3.80606 0
M  V30 1005 O 93.2824 4.77438 -3.12104 0
M  V30 1006 O 92.2164 3.70849 -4.74083 0
M  V30 1007 H 96.0424 0.977855 -2.87527 0
M  V30 1008 H 93.6274 0.418358 -1.43423 0
M  V30 1009 H 95.5094 3.40012 -2.48938 0
M  V30 1010 H 94.1844 2.92178 -1.39332 0
M  V30 1011 H 93.0914 1.67361 -3.34576 0
M  V30 1012 H 94.4244 2.21954 -4.39315 0
M  V30 1013 N 96.0765 1.50051 0.48192 0
M  V30 1014 C 97.3255 1.59741 1.23149 0
M  V30 1015 C 97.6385 0.298163 1.93314 0
M  V30 1016 O 98.8445 0.273835 2.70116 0
M  V30 1017 C 97.3005 2.81926 2.23708 0
M  V30 1018 C 96.9085 4.18685 1.59396 0
M  V30 1019 C 98.6525 3.00956 2.99375 0
M  V30 1020 C 96.5595 5.3207 2.58178 0
M  V30 1021 H 95.4895 0.594838 0.46334 0
M  V30 1022 H 98.1405 1.76467 0.503169 0
M  V30 1023 H 96.5225 2.58736 2.99786 0
M  V30 1024 H 97.6965 4.52088 0.891811 0
M  V30 1025 H 96.0115 4.05171 0.960503 0
M  V30 1026 H 98.6085 3.82836 3.73283 0
M  V30 1027 H 98.9515 2.12258 3.58123 0
M  V30 1028 H 99.4845 3.24277 2.30411 0
M  V30 1029 H 96.2235 6.22888 2.04184 0
M  V30 1030 H 95.7435 5.03098 3.26577 0
M  V30 1031 H 97.4225 5.62196 3.20225 0
M  V30 1032 N 97.5546 -0.734337 1.39446 0
M  V30 1033 C 98.5176 -1.83004 1.37994 0
M  V30 1034 C 99.5176 -1.58397 0.276938 0
M  V30 1035 O 100.708 -1.65785 0.534875 0
M  V30 1036 C 97.8396 -3.20802 1.1532 0
M  V30 1037 H 99.0326 -1.85694 2.35494 0
M  V30 1038 H 96.5856 -0.938059 1.25021 0
M  V30 1039 H 97.3206 -3.23772 0.185036 0
M  V30 1040 H 97.1056 -3.4006 1.95197 0
M  V30 1041 H 98.5956 -4.00862 1.17046 0
M  V30 1042 N 99.0327 -1.24633 -0.964593 0
M  V30 1043 C 99.9957 -1.0424 -2.04124 0
M  V30 1044 C 100.996 0.00137563 -1.608 0
M  V30 1045 O 102.186 -0.239883 -1.7254 0
M  V30 1046 C 99.3177 -0.580588 -3.3592 0
M  V30 1047 H 100.511 -1.99803 -2.23649 0
M  V30 1048 H 98.0637 -1.06899 -1.14027 0
M  V30 1049 H 98.7987 0.3781 -3.22088 0
M  V30 1050 H 98.5837 -1.33398 -3.6871 0
M  V30 1051 H 100.074 -0.459034 -4.15069 0
M  V30 1052 N 100.511 1.16574 -1.06058 0
M  V30 1053 C 101.922 1.68662 -0.800632 0
M  V30 1054 C 102.273 1.84184 0.67608 0
M  V30 1055 O 101.398 1.53568 1.52466 0
M  V30 1056 C 101.993 3.06356 -1.44676 0
M  V30 1057 C 100.552 3.55575 -1.23465 0
M  V30 1058 C 99.6988 2.31616 -1.52477 0
M  V30 1059 H 102.65 1.00969 -1.22438 0
M  V30 1060 H 102.671 3.70636 -0.860788 0
M  V30 1061 H 102.183 2.95027 -2.52152 0
M  V30 1062 H 100.284 3.72167 -0.179527 0
M  V30 1063 H 100.397 4.37812 -1.94571 0
M  V30 1064 H 98.7608 2.36512 -0.945209 0
M  V30 1065 H 99.5438 2.22887 -2.61106 0
M  V30 1066 N 101.989 0.842826 1.3317 0
M  V30 1067 C 103.238 0.436738 1.96915 0
M  V30 1068 C 103.551 -1.01025 1.67491 0
M  V30 1069 O 104.757 -1.5212 2.24881 0
M  V30 1070 C 103.213 0.730021 3.52418 0
M  V30 1071 C 102.821 2.19195 3.90714 0
M  V30 1072 C 104.565 0.391076 4.22695 0
M  V30 1073 C 102.472 2.42907 5.39212 0
M  V30 1074 H 101.402 0.15958 0.736919 0
M  V30 1075 H 104.053 1.03196 1.51733 0
M  V30 1076 H 102.435 0.0643755 3.95948 0
M  V30 1077 H 103.609 2.8984 3.58231 0
M  V30 1078 H 101.924 2.49425 3.33431 0
M  V30 1079 H 104.521 0.545817 5.31907 0
M  V30 1080 H 104.864 -0.666294 4.10933 0
M  V30 1081 H 105.397 1.01212 3.84709 0
M  V30 1082 H 102.136 3.47224 5.55982 0
M  V30 1083 H 101.656 1.76827 5.73142 0
M  V30 1084 H 103.335 2.2626 6.06148 0
M  V30 1085 N 103.467 -1.45747 0.599634 0
M  V30 1086 C 104.716 -2.01502 0.0893511 0
M  V30 1087 C 105.029 -1.4748 -1.28488 0
M  V30 1088 O 106.235 -1.95161 -1.88745 0
M  V30 1089 C 104.691 -3.59735 0.109082 0
M  V30 1090 C 104.299 -4.22754 1.48267 0
M  V30 1091 C 106.043 -4.23085 -0.346374 0
M  V30 1092 C 103.95 -5.73115 1.45921 0
M  V30 1093 H 102.88 -0.753417 0.0296347 0
M  V30 1094 H 105.531 -1.67303 0.753788 0
M  V30 1095 H 103.913 -3.91087 -0.621854 0
M  V30 1096 H 105.087 -4.02987 2.23468 0
M  V30 1097 H 103.402 -3.71567 1.87955 0
M  V30 1098 H 105.999 -5.33327 -0.38298 0
M  V30 1099 H 106.342 -3.93201 -1.36743 0
M  V30 1100 H 106.875 -3.9642 0.331038 0
M  V30 1101 H 103.614 -6.07685 2.45762 0
M  V30 1102 H 103.134 -5.95097 0.749665 0
M  V30 1103 H 104.813 -6.3616 1.17941 0
M  V30 1104 N 104.945 -0.338344 -1.53925 0
M  V30 1105 C 106.222 0.314774 -1.93051 0
M  V30 1106 C 106.602 1.68669 -1.26941 0
M  V30 1107 O 105.95 2.24636 -0.418445 0
M  V30 1108 C 106.16 0.392249 -3.46789 0
M  V30 1109 C 107.508 0.645554 -4.19664 0
M  V30 1110 O 108.532 0.474575 -3.53024 0
M  V30 1111 O 107.391 0.976408 -5.37707 0
M  V30 1112 H 104.485 0.182598 -0.80659 0
M  V30 1113 H 107.031 -0.389141 -1.65178 0
M  V30 1114 H 105.803 -0.570702 -3.87116 0
M  V30 1115 H 105.426 1.14316 -3.80812 0
M  V30 1116 N 106.423 1.57458 -0.0668435 0
M  V30 1117 C 107.648 1.9804 0.616027 0
M  V30 1118 C 108.073 0.944771 1.62652 0
M  V30 1119 O 107.431 -0.0902094 1.81075 0
M  V30 1120 C 107.479 3.37665 1.26549 0
M  V30 1121 O 106.583 3.36701 2.38131 0
M  V30 1122 H 105.924 0.644719 0.158849 0
M  V30 1123 H 108.454 2.04121 -0.139891 0
M  V30 1124 H 108.464 3.7474 1.6135 0
M  V30 1125 H 107.139 4.12573 0.525016 0
M  V30 1126 H 105.716 3.1139 2.0516 0
M  V30 1127 N 107.901 -0.206675 1.56239 0
M  V30 1128 C 108.864 -1.23976 1.92776 0
M  V30 1129 C 109.864 -1.39041 0.807729 0
M  V30 1130 O 111.054 -1.37051 1.0753 0
M  V30 1131 C 108.186 -2.61112 2.19165 0
M  V30 1132 H 109.379 -0.927764 2.85189 0
M  V30 1133 H 106.932 -0.447718 1.4975 0
M  V30 1134 H 107.667 -2.97386 1.29352 0
M  V30 1135 H 107.452 -2.51552 3.00772 0
M  V30 1136 H 108.942 -3.35633 2.48476 0
M  V30 1137 N 109.379 -1.50304 -0.473955 0
M  V30 1138 C 110.628 -1.60392 -1.22301 0
M  V30 1139 C 110.941 -0.308411 -1.93153 0
M  V30 1140 O 112.147 -0.288156 -2.69966 0
M  V30 1141 C 110.603 -2.83109 -2.2221 0
M  V30 1142 C 110.211 -4.19524 -1.57173 0
M  V30 1143 C 111.955 -3.0254 -2.97775 0
M  V30 1144 C 109.862 -5.33431 -2.55353 0
M  V30 1145 H 108.792 -0.597286 -0.460179 0
M  V30 1146 H 111.443 -1.76731 -0.493803 0
M  V30 1147 H 109.825 -2.60322 -2.9841 0
M  V30 1148 H 110.999 -4.52554 -0.867824 0
M  V30 1149 H 109.314 -4.05674 -0.939002 0
M  V30 1150 H 111.911 -3.84811 -3.71248 0
M  V30 1151 H 112.254 -2.14154 -3.56992 0
M  V30 1152 H 112.787 -3.25494 -2.28688 0
M  V30 1153 H 109.526 -6.23962 -2.00878 0
M  V30 1154 H 109.046 -5.04823 -3.23904 0
M  V30 1155 H 110.725 -5.63887 -3.17239 0
M  V30 1156 N 110.857 0.726932 -1.39834 0
M  V30 1157 C 111.789 1.85147 -1.35104 0
M  V30 1158 C 112.802 1.60736 -0.258392 0
M  V30 1159 O 113.991 1.70821 -0.517931 0
M  V30 1160 C 111.091 3.21332 -1.07697 0
M  V30 1161 C 110.264 3.73033 -2.28396 0
M  V30 1162 C 109.323 4.87802 -1.97322 0
M  V30 1163 O 108.349 5.01043 -2.70083 0
M  V30 1164 N 109.551 5.72768 -0.944273 0
M  V30 1165 H 112.316 1.89706 -2.32017 0
M  V30 1166 H 109.877 0.908006 -1.3404 0
M  V30 1167 H 111.869 3.95691 -0.849144 0
M  V30 1168 H 110.439 3.11992 -0.194909 0
M  V30 1169 H 109.659 2.89934 -2.6708 0
M  V30 1170 H 110.947 4.0431 -3.08887 0
M  V30 1171 H 110.345 5.64669 -0.341427 0
M  V30 1172 H 108.902 6.4716 -0.776346 0
M  V30 1173 N 112.336 1.25143 0.95797 0
M  V30 1174 C 113.584 1.09476 1.69881 0
M  V30 1175 C 113.905 -0.365502 1.91544 0
M  V30 1176 O 113.175 -1.25985 1.50015 0
M  V30 1177 H 111.755 0.402128 0.629525 0
M  V30 1178 H 114.417 1.57214 1.15194 0
M  V30 1179 H 113.513 1.60046 2.6794 0
M  V30 1180 N 113.814 -1.1601 1.06675 0
M  V30 1181 C 115.044 -1.90251 0.805497 0
M  V30 1182 C 115.452 -1.77891 -0.64431 0
M  V30 1183 O 114.795 -1.12383 -1.45313 0
M  V30 1184 C 114.857 -3.41419 1.12576 0
M  V30 1185 C 114.521 -3.77564 2.57477 0
M  V30 1186 C 115.518 -3.79161 3.55715 0
M  V30 1187 C 113.203 -4.08079 2.92877 0
M  V30 1188 C 115.197 -4.10767 4.8739 0
M  V30 1189 C 112.884 -4.39351 4.24751 0
M  V30 1190 C 113.882 -4.40675 5.21818 0
M  V30 1191 O 113.57 -4.71202 6.51325 0
M  V30 1192 H 113.302 -0.610018 0.291297 0
M  V30 1193 H 115.856 -1.47958 1.4247 0
M  V30 1194 H 114.086 -3.84079 0.449503 0
M  V30 1195 H 115.775 -3.9694 0.84814 0
M  V30 1196 H 116.541 -3.55693 3.29708 0
M  V30 1197 H 112.42 -4.06211 2.17976 0
M  V30 1198 H 115.964 -4.11715 5.63148 0
M  V30 1199 H 111.861 -4.62285 4.50514 0
M  V30 1200 H 112.629 -4.88996 6.56373 0
M  V30 1201 N 115.292 -0.849877 -1.32721 0
M  V30 1202 C 116.24 -0.279745 -2.30912 0
M  V30 1203 C 117.234 0.594278 -1.58634 0
M  V30 1204 O 118.44 0.482613 -1.73409 0
M  V30 1205 H 114.815 -0.0717521 -0.748569 0
M  V30 1206 H 116.786 -1.12222 -2.76494 0
M  V30 1207 C 115.535 0.521108 -3.43773 0
M  V30 1208 H 114.858 -0.142141 -3.99547 0
M  V30 1209 H 116.298 0.885693 -4.14646 0
M  V30 1210 C 114.757 1.70442 -2.90605 0
M  V30 1211 O 115.287 2.8034 -2.87702 0
M  V30 1212 N 113.493 1.52991 -2.47067 0
M  V30 1213 H 113.04 0.635914 -2.49628 0
M  V30 1214 H 112.998 2.32311 -2.11847 0
M  V30 1215 N 116.77 1.45427 -0.607355 0
M  V30 1216 C 118.018 2.01841 -0.102253 0
M  V30 1217 C 118.339 1.47832 1.27164 0
M  V30 1218 O 117.609 0.672497 1.83995 0
M  V30 1219 H 116.189 0.746188 -0.0348101 0
M  V30 1220 H 118.851 1.78229 -0.7887 0
M  V30 1221 H 117.947 3.12057 -0.0518585 0
M  V30 1222 N 118.248 0.346503 1.53744 0
M  V30 1223 C 119.476 -0.25041 2.05379 0
M  V30 1224 C 119.891 -1.43979 1.22129 0
M  V30 1225 O 119.248 -1.80677 0.257321 0
M  V30 1226 C 119.299 -0.662575 3.55376 0
M  V30 1227 O 119.02 0.479515 4.35468 0
M  V30 1228 C 120.521 -1.31989 4.23195 0
M  V30 1229 H 117.741 -0.0478198 0.669294 0
M  V30 1230 H 120.285 0.499346 1.9831 0
M  V30 1231 H 118.44 -1.36227 3.62658 0
M  V30 1232 H 118.854 0.15037 5.24284 0
M  V30 1233 H 120.328 -1.55902 5.29527 0
M  V30 1234 H 120.805 -2.27436 3.75725 0
M  V30 1235 H 121.411 -0.662154 4.20114 0
M  V30 1236 N 119.726 -1.57421 0.075193 0
M  V30 1237 C 120.975 -1.92794 -0.592731 0
M  V30 1238 C 121.288 -0.957478 -1.70563 0
M  V30 1239 O 122.494 -1.20417 -2.43335 0
M  V30 1240 C 120.95 -3.42495 -1.10569 0
M  V30 1241 C 120.558 -4.47994 -0.0236121 0
M  V30 1242 C 122.302 -3.86864 -1.74748 0
M  V30 1243 C 120.209 -5.88829 -0.550803 0
M  V30 1244 H 119.139 -0.719591 -0.225177 0
M  V30 1245 H 121.79 -1.82902 0.147978 0
M  V30 1246 H 120.172 -3.47471 -1.89947 0
M  V30 1247 H 121.346 -4.54637 0.751099 0
M  V30 1248 H 119.661 -4.13113 0.522159 0
M  V30 1249 H 122.258 -4.8947 -2.15229 0
M  V30 1250 H 122.601 -3.24417 -2.60882 0
M  V30 1251 H 123.134 -3.84504 -1.01986 0
M  V30 1252 H 119.873 -6.54929 0.273457 0
M  V30 1253 H 119.393 -5.85698 -1.29296 0
M  V30 1254 H 121.072 -6.38811 -1.02613 0
M  V30 1255 N 121.204 0.198386 -1.56346 0
M  V30 1256 C 122.451 0.919286 -1.80431 0
M  V30 1257 C 122.779 1.83393 -0.647866 0
M  V30 1258 O 122.034 1.92236 0.366556 0
M  V30 1259 C 122.333 1.77031 -3.10475 0
M  V30 1260 C 121.999 1.00693 -4.39513 0
M  V30 1261 C 120.661 0.796145 -4.74568 0
M  V30 1262 C 123.013 0.469559 -5.19081 0
M  V30 1263 C 120.341 0.0364588 -5.86689 0
M  V30 1264 C 122.693 -0.2769 -6.31994 0
M  V30 1265 C 121.357 -0.49873 -6.65634 0
M  V30 1266 H 120.627 0.336391 -0.660244 0
M  V30 1267 H 123.274 0.185872 -1.90596 0
M  V30 1268 H 121.579 2.5723 -2.95533 0
M  V30 1269 H 123.276 2.33065 -3.26315 0
M  V30 1270 H 119.866 1.18122 -4.12001 0
M  V30 1271 H 124.05 0.619816 -4.92414 0
M  V30 1272 H 119.306 -0.145412 -6.11227 0
M  V30 1273 H 123.48 -0.700684 -6.92866 0
M  V30 1274 H 121.107 -1.0893 -7.52355 0
M  V30 1275 N 122.682 1.50554 0.465978 0
M  V30 1276 C 123.645 1.69233 1.54574 0
M  V30 1277 C 124.645 0.562901 1.50626 0
M  V30 1278 O 125.835 0.830016 1.53155 0
M  V30 1279 C 122.967 1.7223 2.94193 0
M  V30 1280 H 124.16 2.65571 1.39327 0
M  V30 1281 H 121.713 1.40111 0.692711 0
M  V30 1282 H 122.448 0.77603 3.14878 0
M  V30 1283 H 122.233 2.54285 2.98466 0
M  V30 1284 H 123.723 1.88618 3.72576 0
M  V30 1285 N 124.16 -0.719506 1.40217 0
M  V30 1286 C 125.39 -1.50646 1.41384 0
M  V30 1287 C 125.798 -1.89197 0.0107743 0
M  V30 1288 O 125.141 -1.55709 -0.974708 0
M  V30 1289 C 125.203 -2.81405 2.23722 0
M  V30 1290 C 124.867 -2.65199 3.72181 0
M  V30 1291 C 125.864 -2.32717 4.64907 0
M  V30 1292 C 123.549 -2.81586 4.1595 0
M  V30 1293 C 125.543 -2.16827 5.99387 0
M  V30 1294 C 123.23 -2.65313 5.50502 0
M  V30 1295 C 124.228 -2.32981 6.42035 0
M  V30 1296 O 123.916 -2.16827 7.74107 0
M  V30 1297 H 123.648 -0.471606 0.484318 0
M  V30 1298 H 126.202 -0.895456 1.84853 0
M  V30 1299 H 124.432 -3.44823 1.75026 0
M  V30 1300 H 126.121 -3.43102 2.16878 0
M  V30 1301 H 126.887 -2.19694 4.32388 0
M  V30 1302 H 122.766 -3.0574 3.45027 0
M  V30 1303 H 126.31 -1.91513 6.70797 0
M  V30 1304 H 122.207 -2.7792 5.82607 0
M  V30 1305 H 122.975 -2.31778 7.84998 0
M  V30 1306 N 125.638 -1.25649 -0.95132 0
M  V30 1307 C 126.886 -1.10375 -1.69298 0
M  V30 1308 C 127.207 0.355339 -1.91735 0
M  V30 1309 O 126.477 1.25188 -1.50681 0
M  V30 1310 H 125.057 -0.405461 -0.627384 0
M  V30 1311 H 127.719 -1.57823 -1.14358 0
M  V30 1312 H 126.815 -1.61465 -2.67087 0
M  V30 1313 N 127.117 1.15442 -1.07289 0
M  V30 1314 C 128.049 2.19773 -0.650585 0
M  V30 1315 C 129.062 1.60076 0.296572 0
M  V30 1316 O 130.251 1.78293 0.0859905 0
M  V30 1317 C 127.351 3.38838 0.0650398 0
M  V30 1318 C 126.524 4.2808 -0.898141 0
M  V30 1319 C 125.583 5.2574 -0.219926 0
M  V30 1320 O 124.609 5.62654 -0.860773 0
M  V30 1321 N 125.811 5.71205 1.03466 0
M  V30 1322 H 128.576 2.56622 -1.54808 0
M  V30 1323 H 126.137 1.30551 -0.957494 0
M  V30 1324 H 128.129 4.01222 0.529415 0
M  V30 1325 H 126.699 3.00409 0.864466 0
M  V30 1326 H 125.919 3.62804 -1.54165 0
M  V30 1327 H 127.207 4.84577 -1.5512 0
M  V30 1328 H 126.605 5.43325 1.57526 0
M  V30 1329 H 125.162 6.35633 1.44272 0
M  V30 1330 N 128.595 0.856903 1.32268 0
M  V30 1331 C 129.823 0.475439 2.01363 0
M  V30 1332 C 130.238 -0.928486 1.64392 0
M  V30 1333 O 129.595 -1.60624 0.866387 0
M  V30 1334 C 129.646 0.607545 3.56358 0
M  V30 1335 O 129.367 1.95617 3.92002 0
M  V30 1336 C 130.868 0.225382 4.42727 0
M  V30 1337 H 128.088 0.186636 0.644521 0
M  V30 1338 H 130.632 1.15446 1.68797 0
M  V30 1339 H 128.787 -0.0237719 3.87393 0
M  V30 1340 H 129.201 1.95455 4.86721 0
M  V30 1341 H 130.675 0.368813 5.50767 0
M  V30 1342 H 131.152 -0.834369 4.31202 0
M  V30 1343 H 131.758 0.831864 4.17085 0
M  V30 1344 N 130.073 -1.45103 0.615059 0
M  V30 1345 C 131.036 -2.29025 -0.0895485 0
M  V30 1346 C 132.036 -1.40174 -0.787906 0
M  V30 1347 O 133.226 -1.62217 -0.634933 0
M  V30 1348 C 130.358 -3.21376 -1.13711 0
M  V30 1349 H 131.551 -2.92807 0.648382 0
M  V30 1350 H 129.104 -1.51749 0.374444 0
M  V30 1351 H 129.839 -2.6241 -1.90556 0
M  V30 1352 H 129.624 -3.86834 -0.640475 0
M  V30 1353 H 131.114 -3.84459 -1.63036 0
M  V30 1354 N 131.551 -0.354651 -1.53558 0
M  V30 1355 C 132.776 0.242153 -2.05981 0
M  V30 1356 C 133.201 1.42553 -1.2272 0
M  V30 1357 O 132.559 1.79656 -0.243604 0
M  V30 1358 C 132.607 0.624367 -3.55154 0
M  V30 1359 O 131.711 1.72301 -3.74681 0
M  V30 1360 H 131.052 0.0378432 -0.662921 0
M  V30 1361 H 133.582 -0.512087 -1.98088 0
M  V30 1362 H 133.592 0.898433 -3.97985 0
M  V30 1363 H 132.267 -0.240989 -4.15201 0
M  V30 1364 H 130.844 1.44535 -3.4375 0
M  V30 1365 N 133.029 1.57378 -0.0835403 0
M  V30 1366 C 134.277 1.93547 0.581718 0
M  V30 1367 C 134.598 0.96524 1.69435 0
M  V30 1368 O 133.868 0.0153369 1.95894 0
M  V30 1369 H 132.448 0.714521 0.217874 0
M  V30 1370 H 135.11 1.94366 -0.144158 0
M  V30 1371 H 134.206 2.95665 0.999423 0
M  V30 1372 N 134.507 -0.190092 1.56449 0
M  V30 1373 C 135.454 -1.23557 1.94942 0
M  V30 1374 C 136.424 -1.44972 0.810696 0
M  V30 1375 O 137.609 -1.58023 1.06927 0
M  V30 1376 C 134.749 -2.57416 2.2985 0
M  V30 1377 C 133.862 -2.43537 3.5681 0
M  V30 1378 C 132.997 -3.70134 3.81017 0
M  V30 1379 C 132.036 -3.51109 5.01387 0
M  V30 1380 N 131.173 -4.6973 5.21822 0
M  V30 1381 H 136.013 -0.900304 2.84075 0
M  V30 1382 H 133.55 -0.43318 1.40577 0
M  V30 1383 H 135.508 -3.35409 2.48106 0
M  V30 1384 H 134.138 -2.88975 1.43852 0
M  V30 1385 H 133.19 -1.56816 3.46573 0
M  V30 1386 H 134.502 -2.25415 4.4496 0
M  V30 1387 H 133.656 -4.56566 3.9954 0
M  V30 1388 H 132.395 -3.91215 2.91207 0
M  V30 1389 H 131.4 -2.63063 4.82782 0
M  V30 1390 H 132.625 -3.31468 5.9271 0
M  V30 1391 H 130.571 -4.91065 4.34961 0
M  V30 1392 H 130.488 -4.54452 6.0416 0
M  V30 1393 H 131.756 -5.57499 5.44808 0
M  V30 1394 N 135.985 -1.50799 -0.457987 0
M  V30 1395 C 137.213 -1.66218 -1.23203 0
M  V30 1396 C 137.628 -0.350894 -1.85511 0
M  V30 1397 O 136.985 0.668546 -1.69814 0
M  V30 1398 C 137.036 -2.76291 -2.33121 0
M  V30 1399 O 136.757 -4.02338 -1.73366 0
M  V30 1400 C 138.258 -3.028 -3.2377 0
M  V30 1401 H 135.478 -0.558361 -0.372121 0
M  V30 1402 H 138.022 -1.97099 -0.545179 0
M  V30 1403 H 136.177 -2.48068 -2.97558 0
M  V30 1404 H 136.591 -4.63312 -2.4585 0
M  V30 1405 H 138.065 -3.8345 -3.97077 0
M  V30 1406 H 138.542 -2.14385 -3.83322 0
M  V30 1407 H 139.148 -3.32604 -2.65056 0
M  V30 1408 N 137.463 0.71206 -1.40597 0
M  V30 1409 C 138.693 1.49894 -1.42181 0
M  V30 1410 C 139.101 1.89189 -0.0208078 0
M  V30 1411 O 138.444 1.56223 0.966436 0
M  V30 1412 C 138.506 2.80215 -2.25211 0
M  V30 1413 C 138.17 2.63221 -3.73582 0
M  V30 1414 C 139.167 2.30249 -4.66135 0
M  V30 1415 C 136.852 2.79376 -4.17438 0
M  V30 1416 C 138.846 2.13645 -6.00529 0
M  V30 1417 C 136.533 2.6239 -5.51901 0
M  V30 1418 C 137.531 2.29573 -6.43262 0
M  V30 1419 O 137.219 2.12719 -7.75246 0
M  V30 1420 H 136.951 0.469031 -0.486812 0
M  V30 1421 H 139.505 0.88564 -1.85326 0
M  V30 1422 H 137.735 3.4389 -1.76852 0
M  V30 1423 H 139.424 3.41947 -2.18694 0
M  V30 1424 H 140.19 2.17398 -4.33547 0
M  V30 1425 H 136.069 3.03906 -3.46644 0
M  V30 1426 H 139.613 1.87953 -6.71803 0
M  V30 1427 H 135.51 2.74826 -5.84073 0
M  V30 1428 H 136.278 2.27611 -7.86216 0
M  V30 1429 N 138.941 1.26152 0.944643 0
M  V30 1430 C 140.169 1.14259 1.72489 0
M  V30 1431 C 140.584 -0.302555 1.8636 0
M  V30 1432 O 139.941 -1.20741 1.36849 0
M  V30 1433 C 139.992 1.80266 3.13347 0
M  V30 1434 O 139.713 3.19133 3.00143 0
M  V30 1435 C 141.214 1.74283 4.07603 0
M  V30 1436 H 138.434 0.398051 0.540181 0
M  V30 1437 H 140.978 1.66706 1.18446 0
M  V30 1438 H 139.133 1.31766 3.64303 0
M  V30 1439 H 139.547 3.51744 3.89071 0
M  V30 1440 H 141.021 2.25111 5.04013 0
M  V30 1441 H 141.498 0.708631 4.33446 0
M  V30 1442 H 142.104 2.22319 3.62567 0
M  V30 1443 N 140.419 -1.14872 1.07899 0
M  V30 1444 C 141.352 -2.18794 0.64841 0
M  V30 1445 C 142.33 -1.59065 -0.337189 0
M  V30 1446 O 143.514 -1.86936 -0.242284 0
M  V30 1447 C 140.641 -3.38667 -0.0470417 0
M  V30 1448 C 139.687 -4.16942 0.897884 0
M  V30 1449 S 140.52 -4.78615 2.40183 0
M  V30 1450 C 141.676 -6.0185 1.71834 0
M  V30 1451 H 141.909 -2.5498 1.52881 0
M  V30 1452 H 139.442 -1.25922 0.893484 0
M  V30 1453 H 141.4 -4.08113 -0.442027 0
M  V30 1454 H 140.061 -3.00814 -0.903861 0
M  V30 1455 H 139.254 -5.02726 0.358096 0
M  V30 1456 H 138.856 -3.53073 1.23352 0
M  V30 1457 H 141.148 -6.69574 1.03328 0
M  V30 1458 H 142.091 -6.60408 2.55473 0
M  V30 1459 H 142.499 -5.5173 1.19392 0
M  V30 1460 N 141.898 -0.863906 -1.31812 0
M  V30 1461 C 142.831 -0.259963 -2.26714 0
M  V30 1462 C 143.809 0.607392 -1.50829 0
M  V30 1463 O 144.993 0.562155 -1.79922 0
M  V30 1464 C 142.12 0.632456 -3.32743 0
M  V30 1465 C 141.166 -0.162743 -4.26189 0
M  V30 1466 S 141.999 -1.53726 -5.12961 0
M  V30 1467 C 143.155 -0.650803 -6.22507 0
M  V30 1468 H 143.388 -1.06445 -2.77591 0
M  V30 1469 H 140.921 -0.662071 -1.39485 0
M  V30 1470 H 142.879 1.14167 -3.94305 0
M  V30 1471 H 141.54 1.41083 -2.80632 0
M  V30 1472 H 140.733 0.517366 -5.01338 0
M  V30 1473 H 140.335 -0.60385 -3.69093 0
M  V30 1474 H 142.627 0.141134 -6.77353 0
M  V30 1475 H 143.57 -1.37322 -6.94657 0
M  V30 1476 H 143.978 -0.221041 -5.64067 0
M  V30 1477 N 143.376 1.44774 -0.622745 0
M  V30 1478 C 144.624 2.01721 -0.123655 0
M  V30 1479 C 144.945 1.49172 1.25589 0
M  V30 1480 O 144.215 0.691974 1.83272 0
M  V30 1481 H 142.795 0.745777 -0.0427225 0
M  V30 1482 H 145.457 1.77382 -0.807559 0
M  V30 1483 H 144.553 3.11984 -0.0849534 0
M  V30 1484 N 144.854 0.36279 1.53368 0
M  V30 1485 C 146.079 -0.231226 2.06107 0
M  V30 1486 C 146.504 -1.419 1.23474 0
M  V30 1487 O 145.862 -1.79524 0.253128 0
M  V30 1488 C 145.91 -0.605523 3.5548 0
M  V30 1489 O 145.014 -1.70312 3.7559 0
M  V30 1490 H 144.355 -0.034327 0.663112 0
M  V30 1491 H 146.885 0.522584 1.97814 0
M  V30 1492 H 146.895 -0.877314 3.98456 0
M  V30 1493 H 145.57 0.263004 4.15068 0
M  V30 1494 H 144.147 -1.4271 3.44512 0
M  V30 1495 N 146.332 -1.57332 0.0918853 0
M  V30 1496 C 147.242 -2.17368 -0.882505 0
M  V30 1497 C 148.258 -1.14226 -1.31257 0
M  V30 1498 O 149.434 -1.46582 -1.38115 0
M  V30 1499 C 146.499 -2.73962 -2.12476 0
M  V30 1500 C 145.56 -3.92048 -1.7492 0
M  V30 1501 C 144.793 -4.45933 -2.93223 0
M  V30 1502 O 145.016 -3.98764 -4.07852 0
M  V30 1503 O 143.95 -5.36999 -2.71875 0
M  V30 1504 H 147.776 -3.01031 -0.40172 0
M  V30 1505 H 145.361 -1.48813 -0.132291 0
M  V30 1506 H 147.243 -3.10147 -2.85283 0
M  V30 1507 H 145.918 -1.93347 -2.59613 0
M  V30 1508 H 144.825 -3.6068 -0.993025 0
M  V30 1509 H 146.158 -4.74017 -1.32548 0
M  V30 1510 N 147.81 0.181792 -1.56548 0
M  V30 1511 C 149.087 0.926765 -1.72251 0
M  V30 1512 C 149.467 2.00831 -0.650386 0
M  V30 1513 O 148.815 2.26008 0.336521 0
M  V30 1514 C 149.025 1.50106 -3.1507 0
M  V30 1515 C 150.373 1.97805 -3.75711 0
M  V30 1516 O 151.397 1.59922 -3.18282 0
M  V30 1517 O 150.256 2.67555 -4.76525 0
M  V30 1518 H 147.35 0.435506 -0.703039 0
M  V30 1519 H 149.896 0.170443 -1.68842 0
M  V30 1520 H 148.668 0.72212 -3.84579 0
M  V30 1521 H 148.291 2.32186 -3.22763 0
M  V30 1522 N 149.288 1.51039 0.449983 0
M  V30 1523 C 150.238 1.67824 1.54335 0
M  V30 1524 C 151.222 0.5324 1.51836 0
M  V30 1525 O 152.414 0.787762 1.58503 0
M  V30 1526 C 149.543 1.7951 2.92628 0
M  V30 1527 C 148.629 2.99838 2.9993 0
M  V30 1528 N 149.02 4.23207 2.77001 0
M  V30 1529 C 147.318 2.98832 3.31082 0
M  V30 1530 C 148.019 5.04361 2.89818 0
M  V30 1531 N 146.995 4.38746 3.2094 0
M  V30 1532 H 150.797 2.60884 1.35339 0
M  V30 1533 H 148.311 1.48513 0.657085 0
M  V30 1534 H 150.308 1.89642 3.7127 0
M  V30 1535 H 148.968 0.876227 3.12654 0
M  V30 1536 H 149.979 4.5236 2.52172 0
M  V30 1537 H 146.656 2.16527 3.56963 0
M  V30 1538 H 148.046 6.12528 2.76151 0
M  V30 1539 N 150.766 -0.704594 1.40972 0
M  V30 1540 C 151.696 -1.83124 1.44872 0
M  V30 1541 C 152.677 -1.67281 0.30838 0
M  V30 1542 O 153.862 -1.87149 0.518556 0
M  V30 1543 C 150.992 -3.21181 1.32136 0
M  V30 1544 C 149.946 -3.51714 2.43888 0
M  V30 1545 C 149.272 -4.89032 2.16222 0
M  V30 1546 C 150.572 -3.516 3.86232 0
M  V30 1547 H 152.266 -1.80117 2.39161 0
M  V30 1548 H 149.812 -0.865145 1.15114 0
M  V30 1549 H 151.765 -3.99702 1.33479 0
M  V30 1550 H 150.489 -3.24791 0.343279 0
M  V30 1551 H 149.148 -2.75539 2.41813 0
M  V30 1552 H 148.796 -4.89256 1.16778 0
M  V30 1553 H 148.496 -5.10426 2.911 0
M  V30 1554 H 150.02 -5.69873 2.19265 0
M  V30 1555 H 151.434 -4.2014 3.9007 0
M  V30 1556 H 149.831 -3.84523 4.60719 0
M  V30 1557 H 150.901 -2.50757 4.15029 0
M  V30 1558 N 152.244 -1.26651 -0.937939 0
M  V30 1559 C 153.492 -1.12165 -1.68118 0
M  V30 1560 C 153.813 0.334983 -1.92101 0
M  V30 1561 O 153.083 1.23583 -1.52 0
M  V30 1562 H 151.663 -0.412093 -0.623048 0
M  V30 1563 H 154.325 -1.59027 -1.12678 0
M  V30 1564 H 153.421 -1.64289 -2.6536 0
M  V30 1565 N 153.722 1.14298 -1.08507 0
M  V30 1566 C 154.968 1.85633 -0.816581 0
M  V30 1567 C 155.301 1.82784 0.656021 0
M  V30 1568 O 154.576 1.25926 1.48233 0
M  V30 1569 C 154.859 3.34223 -1.34041 0
M  V30 1570 C 154.712 3.45639 -2.87843 0
M  V30 1571 C 156.031 4.29356 -0.9665 0
M  V30 1572 H 153.15 0.67402 -0.298104 0
M  V30 1573 H 155.792 1.34214 -1.34487 0
M  V30 1574 H 153.942 3.78144 -0.89104 0
M  V30 1575 H 155.614 3.10498 -3.41158 0
M  V30 1576 H 153.857 2.86817 -3.25451 0
M  V30 1577 H 154.528 4.50089 -3.19569 0
M  V30 1578 H 157.004 3.93457 -1.35391 0
M  V30 1579 H 155.88 5.3178 -1.3602 0
M  V30 1580 H 156.141 4.41919 0.126362 0
M  V30 1581 N 155.201 0.870884 1.31352 0
M  V30 1582 C 156.45 0.478408 1.95944 0
M  V30 1583 C 156.763 -0.974493 1.69597 0
M  V30 1584 O 157.969 -1.47316 2.28058 0
M  V30 1585 C 156.425 0.804609 3.50791 0
M  V30 1586 C 156.033 2.27433 3.85977 0
M  V30 1587 C 157.777 0.480648 4.2177 0
M  V30 1588 C 155.684 2.5429 5.33939 0
M  V30 1589 H 154.614 0.175175 0.733369 0
M  V30 1590 H 157.265 1.06391 1.4951 0
M  V30 1591 H 155.647 0.148347 3.95722 0
M  V30 1592 H 156.821 2.97373 3.52002 0
M  V30 1593 H 155.136 2.56442 3.28065 0
M  V30 1594 H 157.733 0.658519 5.30629 0
M  V30 1595 H 158.076 -0.578979 4.12254 0
M  V30 1596 H 158.609 1.09349 3.82476 0
M  V30 1597 H 155.348 3.58939 5.48491 0
M  V30 1598 H 154.868 1.88945 5.69263 0
M  V30 1599 H 156.547 2.39066 6.01212 0
M  V30 1600 N 156.679 -1.44442 0.630414 0
M  V30 1601 C 158.09 -1.85434 0.217063 0
M  V30 1602 C 158.441 -1.52748 -1.23136 0
M  V30 1603 O 157.566 -0.965205 -1.93682 0
M  V30 1604 C 158.161 -3.36581 0.387168 0
M  V30 1605 C 156.72 -3.76389 0.0283297 0
M  V30 1606 C 155.867 -2.68296 0.700889 0
M  V30 1607 H 158.818 -1.34919 0.83562 0
M  V30 1608 H 158.839 -3.78657 -0.374086 0
M  V30 1609 H 158.351 -3.60339 1.44144 0
M  V30 1610 H 156.452 -3.58246 -1.02423 0
M  V30 1611 H 156.565 -4.77095 0.437892 0
M  V30 1612 H 154.929 -2.54335 0.136267 0
M  V30 1613 H 155.712 -2.94887 1.75774 0
M  V30 1614 N 158.157 -0.370918 -1.53173 0
M  V30 1615 C 159.573 -0.0200818 -1.59587 0
M  V30 1616 C 159.773 1.46279 -1.38581 0
M  V30 1617 O 158.829 2.22506 -1.19363 0
M  V30 1618 C 160.142 -0.4808 -2.96831 0
M  V30 1619 C 161.69 -0.435477 -3.09956 0
M  V30 1620 C 162.165 -0.872092 -4.4962 0
M  V30 1621 N 163.656 -0.827364 -4.55751 0
M  V30 1622 C 164.391 -1.13683 -5.62018 0
M  V30 1623 N 163.887 -1.51584 -6.76014 0
M  V30 1624 N 165.68 -1.05927 -5.52029 0
M  V30 1625 H 157.831 -1.33652 -1.65079 0
M  V30 1626 H 160.094 -0.546634 -0.774529 0
M  V30 1627 H 159.8 -1.51577 -3.1736 0
M  V30 1628 H 159.674 0.129796 -3.76977 0
M  V30 1629 H 162.061 0.590371 -2.89134 0
M  V30 1630 H 162.142 -1.08164 -2.31806 0
M  V30 1631 H 161.786 -1.89608 -4.71181 0
M  V30 1632 H 161.716 -0.203127 -5.26208 0
M  V30 1633 H 164.207 -0.548216 -3.73902 0
M  V30 1634 H 164.52 -1.73609 -7.53047 0
M  V30 1635 H 162.865 -1.55454 -6.77391 0
M  V30 1636 H 166.056 -0.762321 -4.61851 0
M  V30 1637 H 166.229 -1.30378 -6.34749 0
M  V30 1638 N 159.635 1.57281 -0.100228 0
M  V30 1639 C 160.598 2.13158 0.842398 0
M  V30 1640 C 161.598 1.06202 1.20738 0
M  V30 1641 O 162.788 1.32066 1.13597 0
M  V30 1642 C 159.92 2.65639 2.13655 0
M  V30 1643 H 161.113 2.97766 0.357114 0
M  V30 1644 H 158.666 1.5559 0.148823 0
M  V30 1645 H 159.401 1.84566 2.66657 0
M  V30 1646 H 159.186 3.43844 1.88451 0
M  V30 1647 H 160.676 3.08846 2.81077 0
M  V30 1648 N 161.113 -0.173488 1.56642 0
M  V30 1649 C 162.362 -0.888758 1.81063 0
M  V30 1650 C 162.675 -1.83506 0.67712 0
M  V30 1651 O 163.881 -2.59254 0.806206 0
M  V30 1652 C 162.337 -1.63091 3.20826 0
M  V30 1653 C 161.945 -0.728357 4.4204 0
M  V30 1654 C 163.689 -2.33454 3.54541 0
M  V30 1655 C 161.596 -1.47062 5.72823 0
M  V30 1656 H 160.526 -0.335618 0.675186 0
M  V30 1657 H 163.177 -0.141712 1.82952 0
M  V30 1658 H 161.559 -2.42263 3.13248 0
M  V30 1659 H 162.733 0.0262449 4.60793 0
M  V30 1660 H 161.048 -0.134492 4.16183 0
M  V30 1661 H 163.645 -2.89578 4.49498 0
M  V30 1662 H 163.988 -3.08687 2.79317 0
M  V30 1663 H 164.521 -1.61227 3.63663 0
M  V30 1664 H 161.26 -0.760658 6.51072 0
M  V30 1665 H 160.78 -2.1986 5.58052 0
M  V30 1666 H 162.459 -2.01868 6.14702 0
M  V30 1667 N 162.591 -1.51276 -0.441967 0
M  V30 1668 C 163.541 -1.6864 -1.53442 0
M  V30 1669 C 164.525 -0.540444 -1.51552 0
M  V30 1670 O 165.717 -0.796157 -1.58083 0
M  V30 1671 C 162.846 -1.8106 -2.91672 0
M  V30 1672 C 161.932 -3.01424 -2.98336 0
M  V30 1673 N 162.323 -4.2467 -2.74752 0
M  V30 1674 C 160.621 -3.00584 -3.29493 0
M  V30 1675 C 161.322 -5.05891 -2.87139 0
M  V30 1676 N 160.298 -4.40442 -3.18609 0
M  V30 1677 H 164.1 -2.61598 -1.33954 0
M  V30 1678 H 161.614 -1.4886 -0.6492 0
M  V30 1679 H 163.611 -1.91609 -3.70259 0
M  V30 1680 H 162.271 -0.892795 -3.12185 0
M  V30 1681 H 163.282 -4.53691 -2.49769 0
M  V30 1682 H 159.959 -2.18417 -3.55809 0
M  V30 1683 H 161.349 -6.13983 -2.72899 0
M  V30 1684 N 164.069 0.697108 -1.41344 0
M  V30 1685 C 165.346 1.45154 -1.31109 0
M  V30 1686 C 165.726 2.11009 0.0620449 0
M  V30 1687 O 165.074 2.01571 1.07618 0
M  V30 1688 C 165.284 2.47223 -2.46337 0
M  V30 1689 C 166.632 3.1252 -2.87431 0
M  V30 1690 O 167.656 2.57547 -2.46065 0
M  V30 1691 O 166.515 4.12083 -3.58957 0
M  V30 1692 H 163.609 0.646365 -0.515889 0
M  V30 1693 H 166.155 0.727716 -1.53305 0
M  V30 1694 H 164.927 1.97204 -3.37974 0
M  V30 1695 H 164.55 3.27116 -2.2601 0
M  V30 1696 N 165.547 1.27147 0.931209 0
M  V30 1697 C 166.796 1.12664 1.67302 0
M  V30 1698 C 167.109 -0.327718 1.92835 0
M  V30 1699 O 168.315 -0.593392 2.64936 0
M  V30 1700 C 166.771 1.9683 3.01307 0
M  V30 1701 C 166.379 3.46901 2.83485 0
M  V30 1702 C 168.123 1.90985 3.79111 0
M  V30 1703 C 166.03 4.23279 4.13024 0
M  V30 1704 H 164.96 0.41803 0.627509 0
M  V30 1705 H 167.611 1.51539 1.03481 0
M  V30 1706 H 165.993 1.50797 3.66164 0
M  V30 1707 H 167.167 4.00773 2.27415 0
M  V30 1708 H 165.482 3.54088 2.19113 0
M  V30 1709 H 168.079 2.45328 4.75098 0
M  V30 1710 H 168.422 0.882718 4.06834 0
M  V30 1711 H 168.955 2.34895 3.21044 0
M  V30 1712 H 165.694 5.26503 3.90481 0
M  V30 1713 H 165.214 3.74186 4.6877 0
M  V30 1714 H 166.893 4.32265 4.81411 0
M  V30 1715 N 167.025 -1.13721 1.09112 0
M  V30 1716 C 168.272 -1.84924 0.825192 0
M  V30 1717 C 168.6 -1.83347 -0.649151 0
M  V30 1718 O 167.855 -1.26449 -1.49362 0
M  V30 1719 C 168.154 -3.32861 1.30146 0
M  V30 1720 C 167.82 -3.54621 2.78486 0
M  V30 1721 C 166.482 -3.60268 3.18999 0
M  V30 1722 C 168.834 -3.62855 3.74146 0
M  V30 1723 C 166.162 -3.71679 4.53951 0
M  V30 1724 C 168.514 -3.75793 5.08883 0
M  V30 1725 C 167.178 -3.79692 5.4899 0
M  V30 1726 H 166.448 -0.676684 0.301959 0
M  V30 1727 H 169.095 -1.3428 1.36533 0
M  V30 1728 H 167.4 -3.85835 0.681064 0
M  V30 1729 H 169.097 -3.86395 1.07236 0
M  V30 1730 H 165.687 -3.50879 2.46134 0
M  V30 1731 H 169.871 -3.57775 3.43963 0
M  V30 1732 H 165.127 -3.72963 4.84467 0
M  V30 1733 H 169.301 -3.81107 5.82864 0
M  V30 1734 H 166.928 -3.88287 6.53558 0
M  V30 1735 N 168.503 -0.877838 -1.30888 0
M  V30 1736 C 169.435 -0.296607 -2.27273 0
M  V30 1737 C 170.448 0.544799 -1.53414 0
M  V30 1738 O 171.637 0.365511 -1.74718 0
M  V30 1739 C 168.737 0.597481 -3.33592 0
M  V30 1740 C 167.91 -0.213251 -4.3688 0
M  V30 1741 C 166.969 0.610208 -5.2265 0
M  V30 1742 O 165.995 0.035441 -5.69189 0
M  V30 1743 N 167.197 1.92071 -5.47804 0
M  V30 1744 H 169.962 -1.12492 -2.77787 0
M  V30 1745 H 167.523 -0.740105 -1.43993 0
M  V30 1746 H 169.515 1.15425 -3.87891 0
M  V30 1747 H 168.085 1.32647 -2.83061 0
M  V30 1748 H 167.305 -0.951466 -3.82545 0
M  V30 1749 H 168.593 -0.769262 -5.02951 0
M  V30 1750 H 167.991 2.4107 -5.11763 0
M  V30 1751 H 166.548 2.42508 -6.05007 0
M  V30 1752 N 169.982 1.44106 -0.638065 0
M  V30 1753 C 170.929 2.30715 0.062701 0
M  V30 1754 C 171.899 1.43882 0.829883 0
M  V30 1755 O 173.084 1.72775 0.809532 0
M  V30 1756 C 170.224 3.29258 1.03358 0
M  V30 1757 C 169.337 4.31192 0.26409 0
M  V30 1758 C 168.472 5.16825 1.22741 0
M  V30 1759 C 167.511 6.10462 0.447475 0
M  V30 1760 N 166.648 6.8877 1.36161 0
M  V30 1761 H 171.488 2.90096 -0.681781 0
M  V30 1762 H 169.025 1.42925 -0.347988 0
M  V30 1763 H 170.983 3.84886 1.60992 0
M  V30 1764 H 169.613 2.71562 1.74511 0
M  V30 1765 H 168.665 3.77981 -0.428295 0
M  V30 1766 H 169.977 4.97619 -0.343052 0
M  V30 1767 H 169.131 5.77004 1.87487 0
M  V30 1768 H 167.87 4.50488 1.86847 0
M  V30 1769 H 166.875 5.49386 -0.213433 0
M  V30 1770 H 168.1 6.78837 -0.188968 0
M  V30 1771 H 166.046 6.25096 1.98975 0
M  V30 1772 H 165.963 7.51663 0.808656 0
M  V30 1773 H 167.231 7.53467 1.99769 0
M  V30 1774 N 171.46 0.379036 1.52974 0
M  V30 1775 C 172.709 -0.207612 2.00629 0
M  V30 1776 C 173.022 -1.48758 1.27006 0
M  V30 1777 O 174.228 -2.15365 1.65318 0
M  V30 1778 C 172.684 -0.42053 3.57435 0
M  V30 1779 C 172.292 0.845587 4.39948 0
M  V30 1780 C 174.036 -0.964102 4.13407 0
M  V30 1781 C 171.943 0.601513 5.88333 0
M  V30 1782 H 170.873 -0.0813591 0.749598 0
M  V30 1783 H 173.524 0.499853 1.76561 0
M  V30 1784 H 171.906 -1.18959 3.7771 0
M  V30 1785 H 173.08 1.61848 4.31442 0
M  V30 1786 H 171.395 1.31336 3.95145 0
M  V30 1787 H 173.992 -1.16225 5.21916 0
M  V30 1788 H 174.335 -1.93019 3.68849 0
M  V30 1789 H 174.868 -0.25487 3.96983 0
M  V30 1790 H 171.607 1.53831 6.37194 0
M  V30 1791 H 171.127 -0.132628 5.99653 0
M  V30 1792 H 172.806 0.232134 6.46583 0
M  V30 1793 N 172.938 -1.57226 0.108567 0
M  V30 1794 C 173.885 -2.14756 -0.845481 0
M  V30 1795 C 174.855 -1.06971 -1.27068 0
M  V30 1796 O 176.04 -1.34827 -1.35005 0
M  V30 1797 C 173.18 -2.74298 -2.09415 0
M  V30 1798 C 172.293 -3.96358 -1.71826 0
M  V30 1799 C 171.428 -4.44021 -2.9158 0
M  V30 1800 C 170.467 -5.58637 -2.50181 0
M  V30 1801 N 169.604 -6.01091 -3.62814 0
M  V30 1802 H 174.444 -2.95961 -0.348035 0
M  V30 1803 H 171.981 -1.46226 -0.160106 0
M  V30 1804 H 173.939 -3.06945 -2.82561 0
M  V30 1805 H 172.569 -1.95801 -2.56636 0
M  V30 1806 H 171.621 -3.69939 -0.885947 0
M  V30 1807 H 172.933 -4.79504 -1.37394 0
M  V30 1808 H 172.087 -4.78522 -3.72963 0
M  V30 1809 H 170.826 -3.59803 -3.29231 0
M  V30 1810 H 169.831 -5.23751 -1.67228 0
M  V30 1811 H 171.056 -6.44613 -2.13659 0
M  V30 1812 H 169.002 -5.19817 -4.00158 0
M  V30 1813 H 168.919 -6.79066 -3.32273 0
M  V30 1814 H 170.187 -6.40227 -4.44668 0
M  V30 1815 N 174.416 0.165178 -1.56732 0
M  V30 1816 C 175.363 1.2044 -1.96883 0
M  V30 1817 C 176.333 1.43664 -0.833657 0
M  V30 1818 O 177.518 1.56302 -1.09427 0
M  V30 1819 C 174.658 2.53727 -2.33916 0
M  V30 1820 C 173.771 2.3783 -3.6064 0
M  V30 1821 C 172.906 3.64026 -3.86857 0
M  V30 1822 C 171.945 3.43088 -5.06909 0
M  V30 1823 N 171.082 4.61369 -5.29229 0
M  V30 1824 H 175.922 0.854996 -2.85471 0
M  V30 1825 H 173.459 0.41076 -1.41249 0
M  V30 1826 H 175.417 3.31419 -2.53411 0
M  V30 1827 H 174.047 2.8665 -1.48431 0
M  V30 1828 H 173.099 1.51282 -3.49024 0
M  V30 1829 H 174.411 2.18308 -4.4849 0
M  V30 1830 H 173.565 4.50152 -4.06753 0
M  V30 1831 H 172.304 3.86533 -2.97394 0
M  V30 1832 H 171.309 2.55349 -4.86906 0
M  V30 1833 H 172.534 3.21997 -5.97909 0
M  V30 1834 H 170.48 4.84084 -4.42718 0
M  V30 1835 H 170.397 4.44783 -6.11313 0
M  V30 1836 H 171.665 5.48761 -5.53608 0
M  V30 1837 N 175.894 1.51508 0.433938 0
M  V30 1838 C 177.141 1.64345 1.18309 0
M  V30 1839 C 177.469 0.361315 1.91115 0
M  V30 1840 O 176.724 -0.654753 1.84422 0
M  V30 1841 C 177.023 2.79928 2.22205 0
M  V30 1842 C 176.689 4.19078 1.66387 0
M  V30 1843 C 175.351 4.56932 1.50887 0
M  V30 1844 C 177.703 5.05894 1.25381 0
M  V30 1845 C 175.031 5.79305 0.928608 0
M  V30 1846 C 177.383 6.2885 0.687823 0
M  V30 1847 C 176.047 6.65473 0.519755 0
M  V30 1848 H 175.317 0.601381 0.432923 0
M  V30 1849 H 177.964 1.85549 0.473676 0
M  V30 1850 H 176.269 2.52959 2.99197 0
M  V30 1851 H 177.966 2.87059 2.79997 0
M  V30 1852 H 174.556 3.89234 1.79428 0
M  V30 1853 H 178.74 4.77253 1.36175 0
M  V30 1854 H 173.996 6.06324 0.786186 0
M  V30 1855 H 178.17 6.95461 0.361581 0
M  V30 1856 H 175.797 7.6017 0.0679979 0
M  V30 1857 N 177.372 -0.689602 1.41712 0
M  V30 1858 C 178.783 -1.26973 1.36875 0
M  V30 1859 C 179.134 -1.96124 0.054748 0
M  V30 1860 O 178.259 -1.99141 -0.84687 0
M  V30 1861 C 178.854 -2.30912 2.47922 0
M  V30 1862 C 177.413 -2.84486 2.46464 0
M  V30 1863 C 176.56 -1.58603 2.27465 0
M  V30 1864 H 179.511 -0.48396 1.51141 0
M  V30 1865 H 179.532 -3.12331 2.17323 0
M  V30 1866 H 179.044 -1.80554 3.43543 0
M  V30 1867 H 177.145 -3.39005 1.54617 0
M  V30 1868 H 177.258 -3.34511 3.42986 0
M  V30 1869 H 175.622 -1.84632 1.75451 0
M  V30 1870 H 176.405 -1.10233 3.25121 0
M  V30 1871 N 178.85 -1.27639 -0.924453 0
M  V30 1872 C 180.127 -1.04887 -1.651 0
M  V30 1873 C 180.507 0.415327 -2.06974 0
M  V30 1874 O 179.855 1.39923 -1.80648 0
M  V30 1875 C 180.065 -2.01348 -2.85061 0
M  V30 1876 C 181.413 -2.30899 -3.56329 0
M  V30 1877 O 182.437 -1.99348 -2.95193 0
M  V30 1878 O 181.296 -2.84699 -4.66485 0
M  V30 1879 H 178.39 -0.400083 -0.723784 0
M  V30 1880 H 180.936 -1.38916 -0.974703 0
M  V30 1881 H 179.708 -3.0008 -2.51133 0
M  V30 1882 H 179.331 -1.679 -3.6041 0
M  V30 1883 N 180.328 1.1314 -1.09713 0
M  V30 1884 C 181.744 1.36477 -0.827423 0
M  V30 1885 C 181.944 1.93654 0.556817 0
M  V30 1886 O 181 2.15791 1.31112 0
M  V30 1887 C 182.313 2.31334 -1.92106 0
M  V30 1888 C 183.861 2.44943 -1.94864 0
M  V30 1889 C 184.336 3.4311 -3.0338 0
M  V30 1890 N 185.827 3.50662 -3.02639 0
M  V30 1891 C 186.562 4.2651 -3.83246 0
M  V30 1892 N 186.058 5.05485 -4.73768 0
M  V30 1893 N 187.851 4.2184 -3.71493 0
M  V30 1894 H 180.002 0.743807 -1.9895 0
M  V30 1895 H 182.265 0.389823 -0.864143 0
M  V30 1896 H 181.971 1.96483 -2.91698 0
M  V30 1897 H 181.845 3.31381 -1.80184 0
M  V30 1898 H 184.232 2.79079 -0.959099 0
M  V30 1899 H 184.313 1.4481 -2.10864 0
M  V30 1900 H 183.957 3.09704 -4.02549 0
M  V30 1901 H 183.887 4.43055 -2.84622 0
M  V30 1902 H 186.378 2.94315 -2.37039 0
M  V30 1903 H 186.691 5.60675 -5.3185 0
M  V30 1904 H 185.036 5.04708 -4.77802 0
M  V30 1905 H 188.227 3.5922 -3.00131 0
M  V30 1906 H 188.4 4.80697 -4.3455 0
M  V30 1907 N 181.806 0.884767 1.30421 0
M  V30 1908 C 182.716 0.355398 2.31892 0
M  V30 1909 C 183.732 -0.542261 1.65335 0
M  V30 1910 O 184.908 -0.435432 1.96637 0
M  V30 1911 C 181.973 -0.421661 3.44126 0
M  V30 1912 C 181.034 0.505727 4.26311 0
M  V30 1913 C 180.267 -0.234343 5.33185 0
M  V30 1914 O 180.49 -1.46045 5.51386 0
M  V30 1915 O 179.424 0.415443 6.00465 0
M  V30 1916 H 183.25 1.19685 2.79122 0
M  V30 1917 H 180.835 0.648596 1.34587 0
M  V30 1918 H 182.717 -0.861641 4.12497 0
M  V30 1919 H 181.392 -1.23942 2.99032 0
M  V30 1920 H 180.299 0.994513 3.60639 0
M  V30 1921 H 181.632 1.28948 4.75009 0
M  V30 1922 N 183.284 -1.43765 0.645699 0
M  V30 1923 C 184.531 -2.01898 0.15604 0
M  V30 1924 C 184.859 -1.50887 -1.22733 0
M  V30 1925 O 184.114 -0.689271 -1.8316 0
M  V30 1926 C 184.413 -3.57238 0.107679 0
M  V30 1927 C 184.079 -4.27564 1.43178 0
M  V30 1928 C 182.741 -4.46492 1.7944 0
M  V30 1929 C 185.093 -4.67454 2.30513 0
M  V30 1930 C 182.421 -5.02573 3.02716 0
M  V30 1931 C 184.773 -5.24901 3.53074 0
M  V30 1932 C 183.437 -5.42046 3.89541 0
M  V30 1933 H 182.707 -0.738797 0.057099 0
M  V30 1934 H 185.354 -1.72341 0.834912 0
M  V30 1935 H 183.659 -3.86293 -0.654618 0
M  V30 1936 H 185.356 -3.99965 -0.287938 0
M  V30 1937 H 181.946 -4.13171 1.13963 0
M  V30 1938 H 186.13 -4.5253 2.0379 0
M  V30 1939 H 181.386 -5.14033 3.31028 0
M  V30 1940 H 185.56 -5.54758 4.20971 0
M  V30 1941 H 183.187 -5.85268 4.85145 0
M  V30 1942 N 184.763 -0.387143 -1.52771 0
M  V30 1943 C 185.693 0.440551 -2.29306 0
M  V30 1944 C 186.674 1.06535 -1.32606 0
M  V30 1945 O 187.859 1.07853 -1.61497 0
M  V30 1946 C 184.989 1.56919 -3.09829 0
M  V30 1947 C 183.943 1.07054 -4.14395 0
M  V30 1948 C 183.269 2.29109 -4.83129 0
M  V30 1949 C 184.569 0.140015 -5.22112 0
M  V30 1950 H 186.263 -0.198026 -2.98744 0
M  V30 1951 H 183.809 -0.09668 -1.43675 0
M  V30 1952 H 185.762 2.15503 -3.62128 0
M  V30 1953 H 184.486 2.23532 -2.3812 0
M  V30 1954 H 183.145 0.507247 -3.63074 0
M  V30 1955 H 182.793 2.94227 -4.0797 0
M  V30 1956 H 182.493 1.96406 -5.53804 0
M  V30 1957 H 184.017 2.88339 -5.38231 0
M  V30 1958 H 185.431 0.633978 -5.69784 0
M  V30 1959 H 183.828 -0.0971485 -6.00021 0
M  V30 1960 H 184.898 -0.811711 -4.78058 0
M  V30 1961 N 186.241 1.57166 -0.116904 0
M  V30 1962 C 187.171 2.18222 0.830759 0
M  V30 1963 C 188.152 1.12167 1.27877 0
M  V30 1964 O 189.337 1.40394 1.34176 0
M  V30 1965 C 186.467 2.77996 2.08172 0
M  V30 1966 C 185.421 3.89614 1.77157 0
M  V30 1967 C 184.747 4.36187 3.09265 0
M  V30 1968 C 186.047 5.1181 1.04151 0
M  V30 1969 H 187.741 2.97664 0.321992 0
M  V30 1970 H 185.287 1.4318 0.153434 0
M  V30 1971 H 187.24 3.19366 2.74924 0
M  V30 1972 H 185.964 1.9584 2.6137 0
M  V30 1973 H 184.623 3.48816 1.12796 0
M  V30 1974 H 184.271 3.50893 3.60393 0
M  V30 1975 H 183.971 5.11455 2.89288 0
M  V30 1976 H 185.495 4.80207 3.77139 0
M  V30 1977 H 186.909 5.50214 1.61052 0
M  V30 1978 H 185.306 5.92648 0.942762 0
M  V30 1979 H 186.376 4.84892 0.0279022 0
M  V30 1980 N 187.719 -0.156864 1.56817 0
M  V30 1981 C 189.135 -0.50916 1.5126 0
M  V30 1982 C 189.335 -1.83897 0.823658 0
M  V30 1983 O 188.391 -2.49469 0.390055 0
M  V30 1984 C 189.704 -0.52857 2.96018 0
M  V30 1985 C 191.252 -0.614771 3.06903 0
M  V30 1986 C 191.727 -0.664938 4.53147 0
M  V30 1987 N 193.218 -0.727433 4.57452 0
M  V30 1988 C 193.953 -0.787067 5.67973 0
M  V30 1989 N 193.449 -0.806649 6.88088 0
M  V30 1990 N 195.242 -0.827195 5.5598 0
M  V30 1991 H 187.393 0.714935 2.00006 0
M  V30 1992 H 189.656 0.259526 0.911784 0
M  V30 1993 H 189.362 0.380154 3.49639 0
M  V30 1994 H 189.236 -1.36998 3.51442 0
M  V30 1995 H 191.623 -1.51392 2.53307 0
M  V30 1996 H 191.704 0.253597 2.5454 0
M  V30 1997 H 191.348 0.230011 5.07379 0
M  V30 1998 H 191.278 -1.54966 5.03282 0
M  V30 1999 H 193.769 -0.719998 3.70978 0
M  V30 2000 H 194.082 -0.853727 7.6807 0
M  V30 2001 H 192.427 -0.774687 6.90669 0
M  V30 2002 H 195.618 -0.808998 4.61056 0
M  V30 2003 H 195.791 -0.870206 6.4213 0
M  V30 2004 N 189.197 -1.51736 -0.425897 0
M  V30 2005 C 190.443 -1.65214 -1.1761 0
M  V30 2006 C 190.776 -0.372778 -1.90589 0
M  V30 2007 O 190.051 0.628139 -1.84078 0
M  V30 2008 C 190.334 -2.86312 -2.18398 0
M  V30 2009 C 190.187 -4.24254 -1.49426 0
M  V30 2010 C 191.506 -3.02925 -3.19256 0
M  V30 2011 H 188.625 -0.601263 -0.426206 0
M  V30 2012 H 191.267 -1.8425 -0.463882 0
M  V30 2013 H 189.417 -2.70213 -2.79137 0
M  V30 2014 H 191.089 -4.52046 -0.919362 0
M  V30 2015 H 189.332 -4.26426 -0.796432 0
M  V30 2016 H 190.003 -5.05001 -2.22885 0
M  V30 2017 H 192.479 -3.1781 -2.68581 0
M  V30 2018 H 191.355 -3.89199 -3.8706 0
M  V30 2019 H 191.616 -2.15497 -3.86023 0
M  V30 2020 N 190.675 0.682077 -1.42076 0
M  V30 2021 C 191.9 1.47558 -1.45744 0
M  V30 2022 C 192.325 1.87977 -0.0680981 0
M  V30 2023 O 191.683 1.55522 0.9318 0
M  V30 2024 C 191.731 2.70575 -2.38373 0
M  V30 2025 O 190.835 3.68573 -1.85007 0
M  V30 2026 H 190.176 0.443585 -0.494093 0
M  V30 2027 H 192.706 0.837238 -1.86686 0
M  V30 2028 H 192.716 3.18729 -2.54707 0
M  V30 2029 H 191.391 2.40495 -3.39315 0
M  V30 2030 H 189.968 3.2757 -1.78192 0
M  V30 2031 N 192.153 1.28127 0.917671 0
M  V30 2032 C 193.383 1.17722 1.6978 0
M  V30 2033 C 193.791 -0.267261 1.87303 0
M  V30 2034 O 193.134 -1.19286 1.39702 0
M  V30 2035 C 193.196 1.79958 3.11216 0
M  V30 2036 C 192.86 3.29187 3.16993 0
M  V30 2037 C 193.857 4.25679 2.98485 0
M  V30 2038 C 191.542 3.70075 3.39632 0
M  V30 2039 C 193.536 5.61035 3.02521 0
M  V30 2040 C 191.223 5.05557 3.433 0
M  V30 2041 C 192.221 6.00847 3.24764 0
M  V30 2042 O 191.909 7.33859 3.28187 0
M  V30 2043 H 191.641 0.409788 0.537634 0
M  V30 2044 H 194.195 1.69694 1.15728 0
M  V30 2045 H 192.425 1.22475 3.66793 0
M  V30 2046 H 194.114 1.64125 3.71238 0
M  V30 2047 H 194.88 3.95426 2.80826 0
M  V30 2048 H 190.759 2.96373 3.53106 0
M  V30 2049 H 194.303 6.35388 2.87971 0
M  V30 2050 H 190.2 5.35462 3.60486 0
M  V30 2051 H 190.968 7.42436 3.44575 0
M  V30 2052 N 193.631 -1.12557 1.10312 0
M  V30 2053 C 194.564 -2.1737 0.694674 0
M  V30 2054 C 195.542 -1.59745 -0.303373 0
M  V30 2055 O 196.726 -1.87408 -0.202578 0
M  V30 2056 C 193.853 -3.38691 0.0248052 0
M  V30 2057 C 192.899 -4.14943 0.986121 0
M  V30 2058 S 193.732 -4.73413 2.50281 0
M  V30 2059 C 194.888 -5.9807 1.84562 0
M  V30 2060 H 195.121 -2.5168 1.58255 0
M  V30 2061 H 192.654 -1.23998 0.919992 0
M  V30 2062 H 194.612 -4.08959 -0.355361 0
M  V30 2063 H 193.273 -3.02664 -0.839851 0
M  V30 2064 H 192.466 -5.01854 0.464651 0
M  V30 2065 H 192.068 -3.50377 1.30813 0
M  V30 2066 H 194.36 -6.67232 1.17507 0
M  V30 2067 H 195.303 -6.54841 2.69423 0
M  V30 2068 H 195.711 -5.49073 1.31069 0
M  V30 2069 N 195.109 -0.891671 -1.2995 0
M  V30 2070 C 196.019 -0.367691 -2.31701 0
M  V30 2071 C 197.035 0.533486 -1.6562 0
M  V30 2072 O 198.211 0.424997 -1.96865 0
M  V30 2073 C 195.276 0.403406 -3.44345 0
M  V30 2074 C 194.337 -0.528328 -4.26037 0
M  V30 2075 C 193.57 0.206063 -5.33302 0
M  V30 2076 O 193.793 1.43119 -5.52153 0
M  V30 2077 O 192.727 -0.447281 -6.00236 0
M  V30 2078 H 196.553 -1.21163 -2.78484 0
M  V30 2079 H 194.138 -0.655725 -1.34241 0
M  V30 2080 H 196.02 0.839753 -4.12948 0
M  V30 2081 H 194.695 1.22354 -2.99685 0
M  V30 2082 H 193.602 -1.01362 -3.60106 0
M  V30 2083 H 194.935 -1.31465 -4.74318 0
M  V30 2084 N 196.587 1.43421 -0.653314 0
M  V30 2085 C 197.836 2.01032 -0.164076 0
M  V30 2086 C 198.149 1.52147 1.22926 0
M  V30 2087 O 199.355 2.02031 1.81371 0
M  V30 2088 C 197.811 3.59082 -0.24252 0
M  V30 2089 C 197.419 4.1696 -1.63855 0
M  V30 2090 C 199.163 4.24079 0.18911 0
M  V30 2091 C 197.07 5.67304 -1.67092 0
M  V30 2092 H 196 0.751798 -0.0575769 0
M  V30 2093 H 198.651 1.6439 -0.815362 0
M  V30 2094 H 197.033 3.93125 0.476276 0
M  V30 2095 H 198.207 3.94416 -2.38271 0
M  V30 2096 H 196.522 3.64335 -2.01616 0
M  V30 2097 H 199.119 5.34381 0.184775 0
M  V30 2098 H 199.462 3.98005 1.22056 0
M  V30 2099 H 199.995 3.94918 -0.477938 0
M  V30 2100 H 196.734 5.98145 -2.68146 0
M  V30 2101 H 196.254 5.91904 -0.970014 0
M  V30 2102 H 197.933 6.31344 -1.4147 0
M  V30 2103 N 198.065 0.39524 1.52563 0
M  V30 2104 C 199.295 -0.184675 2.05773 0
M  V30 2105 C 199.703 -1.40571 1.26635 0
M  V30 2106 O 199.046 -1.81105 0.30769 0
M  V30 2107 C 199.108 -0.613551 3.54226 0
M  V30 2108 C 198.772 0.49484 4.54313 0
M  V30 2109 C 199.769 1.3541 5.01956 0
M  V30 2110 C 197.454 0.663565 4.97898 0
M  V30 2111 C 199.448 2.36716 5.91814 0
M  V30 2112 C 197.135 1.67996 5.87555 0
M  V30 2113 C 198.133 2.53017 6.34406 0
M  V30 2114 O 197.821 3.52917 7.22291 0
M  V30 2115 H 197.553 -0.030077 0.675331 0
M  V30 2116 H 200.107 0.560708 1.97599 0
M  V30 2117 H 198.337 -1.411 3.60038 0
M  V30 2118 H 200.026 -1.11981 3.90148 0
M  V30 2119 H 200.792 1.23509 4.6901 0
M  V30 2120 H 196.671 0.0114913 4.60999 0
M  V30 2121 H 200.215 3.03113 6.28306 0
M  V30 2122 H 196.112 1.79933 6.19915 0
M  V30 2123 H 196.88 3.48996 7.40367 0
M  V30 2124 N 199.544 -1.57102 0.125237 0
M  V30 2125 C 200.492 -2.16905 -0.839927 0
M  V30 2126 C 201.486 -1.11998 -1.27094 0
M  V30 2127 O 202.692 -1.3029 -1.24195 0
M  V30 2128 H 199.067 -0.694252 -0.288995 0
M  V30 2129 H 201.038 -2.96774 -0.311115 0
M  V30 2130 C 199.787 -2.78795 -2.07771 0
M  V30 2131 H 199.11 -3.59221 -1.755 0
M  V30 2132 H 200.55 -3.2417 -2.73295 0
M  V30 2133 C 199.009 -1.76193 -2.87155 0
M  V30 2134 O 199.539 -1.21909 -3.82755 0
M  V30 2135 N 197.745 -1.45991 -2.51267 0
M  V30 2136 H 197.292 -1.90325 -1.73592 0
M  V30 2137 H 197.25 -0.775844 -3.04677 0
M  V30 2138 N 201.022 0.148545 -1.56898 0
M  V30 2139 C 201.932 1.20293 -2.01412 0
M  V30 2140 C 202.948 1.47107 -0.929273 0
M  V30 2141 O 204.124 1.58807 -1.23863 0
M  V30 2142 C 201.189 2.51682 -2.38447 0
M  V30 2143 C 200.25 2.32529 -3.60872 0
M  V30 2144 C 199.483 3.57653 -3.96132 0
M  V30 2145 O 199.706 4.63771 -3.32073 0
M  V30 2146 O 198.64 3.50408 -4.89385 0
M  V30 2147 H 202.466 0.855025 -2.91416 0
M  V30 2148 H 200.051 0.357151 -1.45068 0
M  V30 2149 H 201.933 3.29147 -2.63135 0
M  V30 2150 H 200.608 2.86006 -1.51599 0
M  V30 2151 H 199.515 1.53019 -3.41373 0
M  V30 2152 H 200.848 2.03121 -4.48333 0
M  V30 2153 N 202.5 1.5196 0.417844 0
M  V30 2154 C 203.728 1.69426 1.18753 0
M  V30 2155 C 204.143 0.399955 1.84515 0
M  V30 2156 O 203.5 -0.623288 1.71527 0
M  V30 2157 C 203.551 2.82375 2.25714 0
M  V30 2158 O 203.272 4.06793 1.62638 0
M  V30 2159 C 204.773 3.11277 3.15628 0
M  V30 2160 H 201.993 0.568031 0.357186 0
M  V30 2161 H 204.537 1.98475 0.49273 0
M  V30 2162 H 202.692 2.5587 2.90877 0
M  V30 2163 H 203.106 4.69667 2.3348 0
M  V30 2164 H 204.58 3.93843 3.86771 0
M  V30 2165 H 205.057 2.24473 3.77503 0
M  V30 2166 H 205.663 3.39515 2.56144 0
M  V30 2167 N 203.978 -0.674533 1.42435 0
M  V30 2168 C 205.227 -1.43034 1.42212 0
M  V30 2169 C 205.54 -1.95555 0.0420788 0
M  V30 2170 O 206.746 -2.71374 -0.0827558 0
M  V30 2171 C 205.202 -2.58748 2.50155 0
M  V30 2172 C 204.81 -2.12925 3.94166 0
M  V30 2173 C 206.554 -3.36257 2.59098 0
M  V30 2174 C 204.461 -3.25723 4.93618 0
M  V30 2175 H 203.391 -0.537345 0.528939 0
M  V30 2176 H 206.042 -0.73024 1.68344 0
M  V30 2177 H 204.424 -3.31128 2.17188 0
M  V30 2178 H 205.598 -1.47697 4.36488 0
M  V30 2179 H 203.913 -1.48354 3.89076 0
M  V30 2180 H 206.51 -4.20264 3.30578 0
M  V30 2181 H 206.853 -3.82866 1.63461 0
M  V30 2182 H 207.386 -2.70947 2.9126 0
M  V30 2183 H 204.125 -2.84105 5.90732 0
M  V30 2184 H 203.645 -3.89732 4.55926 0
M  V30 2185 H 205.324 -3.91186 5.15347 0
M  V30 2186 N 205.456 -1.28612 -0.910864 0
M  V30 2187 C 206.684 -1.18792 -1.69399 0
M  V30 2188 C 207.099 0.253039 -1.87097 0
M  V30 2189 O 206.456 1.17071 -1.40003 0
M  V30 2190 C 206.507 -1.88511 -3.08457 0
M  V30 2191 O 206.228 -3.26979 -2.91576 0
M  V30 2192 C 207.729 -1.85029 -4.02839 0
M  V30 2193 H 204.949 -0.412233 -0.529438 0
M  V30 2194 H 207.493 -1.69788 -1.13984 0
M  V30 2195 H 205.648 -1.41379 -3.60681 0
M  V30 2196 H 206.062 -3.61936 -3.79608 0
M  V30 2197 H 207.536 -2.38395 -4.97867 0
M  V30 2198 H 208.013 -0.823303 -4.31414 0
M  V30 2199 H 208.619 -2.31853 -3.56545 0
M  V30 2200 N 206.934 1.1197 -1.10907 0
M  V30 2201 C 208.211 1.79959 -0.766432 0
M  V30 2202 C 208.591 1.97466 0.746363 0
M  V30 2203 O 207.939 1.55491 1.67436 0
M  V30 2204 C 208.149 3.14009 -1.52314 0
M  V30 2205 C 209.497 3.89134 -1.69883 0
M  V30 2206 O 210.521 3.2368 -1.48692 0
M  V30 2207 O 209.38 5.06572 -2.05054 0
M  V30 2208 H 206.474 0.779208 -0.277062 0
M  V30 2209 H 209.02 1.18762 -1.21217 0
M  V30 2210 H 207.792 2.96587 -2.55249 0
M  V30 2211 H 207.415 3.82915 -1.07059 0
M  V30 2212 N 208.412 0.89855 1.29475 0
M  V30 2213 C 209.342 0.39201 2.30186 0
M  V30 2214 C 210.323 -0.532359 1.61555 0
M  V30 2215 O 211.508 -0.443331 1.89072 0
M  V30 2216 C 208.638 -0.382353 3.45189 0
M  V30 2217 C 207.592 0.451483 4.25612 0
M  V30 2218 C 206.918 -0.450307 5.328 0
M  V30 2219 C 208.218 1.70079 4.93832 0
M  V30 2220 H 209.912 1.23362 2.72804 0
M  V30 2221 H 207.458 0.594638 1.31149 0
M  V30 2222 H 209.411 -0.747451 4.14718 0
M  V30 2223 H 208.135 -1.25774 3.01411 0
M  V30 2224 H 206.794 0.798897 3.57789 0
M  V30 2225 H 206.442 -1.32379 4.85268 0
M  V30 2226 H 206.142 0.103902 5.87508 0
M  V30 2227 H 207.666 -0.811623 6.05182 0
M  V30 2228 H 209.08 1.40549 5.55805 0
M  V30 2229 H 207.477 2.19623 5.58467 0
M  V30 2230 H 208.547 2.43744 4.19186 0
M  V30 2231 N 209.89 -1.43072 0.660911 0
M  V30 2232 C 210.82 -2.33497 -0.0122829 0
M  V30 2233 C 211.801 -1.49903 -0.803925 0
M  V30 2234 O 212.986 -1.78546 -0.763864 0
M  V30 2235 C 210.116 -3.33363 -0.973994 0
M  V30 2236 C 209.07 -4.27003 -0.291928 0
M  V30 2237 C 208.396 -5.16967 -1.36562 0
M  V30 2238 C 209.696 -5.15816 0.820462 0
M  V30 2239 H 211.39 -2.90038 0.742873 0
M  V30 2240 H 208.936 -1.39461 0.358688 0
M  V30 2241 H 210.889 -3.95524 -1.45392 0
M  V30 2242 H 209.613 -2.75095 -1.7604 0
M  V30 2243 H 208.272 -3.66217 0.167623 0
M  V30 2244 H 207.92 -4.55034 -2.14366 0
M  V30 2245 H 207.62 -5.80441 -0.914454 0
M  V30 2246 H 209.144 -5.82003 -1.84675 0
M  V30 2247 H 210.558 -5.71742 0.422366 0
M  V30 2248 H 208.955 -5.8805 1.19656 0
M  V30 2249 H 210.025 -4.55045 1.67518 0
M  V30 2250 N 211.368 -0.403325 -1.52352 0
M  V30 2251 C 212.608 0.173946 -2.03659 0
M  V30 2252 C 212.972 1.42869 -1.28267 0
M  V30 2253 O 214.173 2.08403 -1.69769 0
M  V30 2254 C 212.444 0.421478 -3.54906 0
M  V30 2255 S 214.003 0.967027 -4.28012 0
M  V30 2256 H 210.821 0.0477461 -0.709395 0
M  V30 2257 H 213.423 -0.554906 -1.87459 0
M  V30 2258 H 212.127 -0.498616 -4.0736 0
M  V30 2259 H 211.658 1.17837 -3.75337 0
M  V30 2260 H 213.673 2.24812 -4.4235 0
M  V30 2261 N 212.846 1.57033 -0.133567 0
M  V30 2262 C 214.094 1.953 0.519848 0
M  V30 2263 C 214.415 1.01866 1.66278 0
M  V30 2264 O 213.685 0.0776513 1.95746 0
M  V30 2265 H 212.265 0.721091 0.195032 0
M  V30 2266 H 214.927 1.93809 -0.205921 0
M  V30 2267 H 214.023 2.98695 0.904854 0
M  V30 2268 N 214.325 -0.140222 1.56975 0
M  V30 2269 C 215.553 -0.866437 1.87884 0
M  V30 2270 C 215.968 -1.74428 0.722517 0
M  V30 2271 O 215.325 -1.79891 -0.30749 0
M  V30 2272 C 215.376 -1.71753 3.18093 0
M  V30 2273 O 215.097 -0.875056 4.29272 0
M  V30 2274 C 216.598 -2.55074 3.62563 0
M  V30 2275 H 213.818 -0.25019 0.622612 0
M  V30 2276 H 216.362 -0.130977 2.0408 0
M  V30 2277 H 214.517 -2.40598 3.03631 0
M  V30 2278 H 214.931 -1.46002 5.03769 0
M  V30 2279 H 216.405 -3.10356 4.5649 0
M  V30 2280 H 216.882 -3.31434 2.88181 0
M  V30 2281 H 217.488 -1.91509 3.79743 0
M  V30 2282 N 215.803 -1.52179 -0.40978 0
M  V30 2283 C 216.735 -1.71703 -1.51825 0
M  V30 2284 C 217.748 -0.597445 -1.51441 0
M  V30 2285 O 218.937 -0.872582 -1.55719 0
M  V30 2286 C 216.037 -1.74171 -2.90719 0
M  V30 2287 C 215.21 -3.03156 -3.15302 0
M  V30 2288 C 214.269 -2.97445 -4.34065 0
M  V30 2289 O 213.295 -3.71352 -4.31377 0
M  V30 2290 N 214.497 -2.15191 -5.39141 0
M  V30 2291 H 217.262 -2.67334 -1.35472 0
M  V30 2292 H 214.823 -1.50409 -0.599069 0
M  V30 2293 H 216.815 -1.67884 -3.68235 0
M  V30 2294 H 215.385 -0.860166 -3.00533 0
M  V30 2295 H 214.605 -3.23097 -2.25836 0
M  V30 2296 H 215.893 -3.88484 -3.28569 0
M  V30 2297 H 215.291 -1.54573 -5.44173 0
M  V30 2298 H 213.848 -2.1476 -6.15403 0
M  V30 2299 N 217.281 0.66697 -1.42791 0
M  V30 2300 C 218.228 1.7803 -1.4688 0
M  V30 2301 C 219.198 1.6299 -0.319919 0
M  V30 2302 O 220.383 1.83432 -0.525118 0
M  V30 2303 C 217.523 3.1611 -1.38451 0
M  V30 2304 C 216.636 3.42381 -2.63437 0
M  V30 2305 C 215.771 4.70232 -2.47094 0
M  V30 2306 C 214.81 4.89564 -3.67415 0
M  V30 2307 N 213.947 6.08661 -3.49966 0
M  V30 2308 H 218.787 1.7387 -2.42019 0
M  V30 2309 H 216.324 0.84868 -1.20149 0
M  V30 2310 H 218.282 3.95914 -1.31561 0
M  V30 2311 H 216.912 3.19374 -0.469033 0
M  V30 2312 H 215.964 2.56774 -2.80662 0
M  V30 2313 H 217.276 3.52557 -3.52853 0
M  V30 2314 H 216.43 5.5814 -2.37834 0
M  V30 2315 H 215.169 4.62353 -1.5518 0
M  V30 2316 H 214.174 4.00096 -3.77099 0
M  V30 2317 H 215.399 4.99282 -4.6032 0
M  V30 2318 H 213.345 6.0194 -2.60776 0
M  V30 2319 H 213.262 6.19733 -4.32975 0
M  V30 2320 H 214.53 6.99226 -3.44532 0
M  V30 2321 N 218.759 1.29093 0.90403 0
M  V30 2322 C 219.692 1.08176 2.00931 0
M  V30 2323 C 220.67 -0.005083 1.62599 0
M  V30 2324 O 221.854 0.144765 1.87943 0
M  V30 2325 C 218.981 0.645897 3.32484 0
M  V30 2326 C 218.027 1.73081 3.89801 0
M  V30 2327 S 218.86 3.32905 4.19446 0
M  V30 2328 C 220.016 2.91176 5.54046 0
M  V30 2329 H 220.249 2.01752 2.18365 0
M  V30 2330 H 217.782 1.13191 1.0501 0
M  V30 2331 H 219.74 0.401131 4.08535 0
M  V30 2332 H 218.401 -0.270188 3.12936 0
M  V30 2333 H 217.594 1.37768 4.84805 0
M  V30 2334 H 217.196 1.92888 3.20422 0
M  V30 2335 H 219.488 2.37952 6.34338 0
M  V30 2336 H 220.431 3.85014 5.94281 0
M  V30 2337 H 220.839 2.296 5.15698 0
M  V30 2338 N 220.237 -1.11381 1.11499 0
M  V30 2339 C 221.184 -2.17439 0.773887 0
M  V30 2340 C 222.154 -1.64132 -0.254899 0
M  V30 2341 O 223.339 -1.90345 -0.13168 0
M  V30 2342 C 220.479 -3.44373 0.223917 0
M  V30 2343 C 219.592 -4.1168 1.30934 0
M  V30 2344 C 218.727 -5.263 0.71984 0
M  V30 2345 C 217.766 -5.85493 1.78507 0
M  V30 2346 N 216.903 -6.91507 1.21502 0
M  V30 2347 H 221.743 -2.45962 1.68246 0
M  V30 2348 H 219.28 -1.20744 0.840191 0
M  V30 2349 H 221.238 -4.17047 -0.112921 0
M  V30 2350 H 219.868 -3.16232 -0.647851 0
M  V30 2351 H 218.92 -3.37073 1.76312 0
M  V30 2352 H 220.232 -4.51729 2.11524 0
M  V30 2353 H 219.386 -6.05785 0.333094 0
M  V30 2354 H 218.125 -4.87559 -0.117377 0
M  V30 2355 H 217.13 -5.04686 2.18111 0
M  V30 2356 H 218.355 -6.26301 2.62533 0
M  V30 2357 H 216.301 -6.54783 0.399455 0
M  V30 2358 H 216.218 -7.30214 1.95763 0
M  V30 2359 H 217.486 -7.74795 0.855181 0
M  V30 2360 N 221.715 -0.905404 -1.28997 0
M  V30 2361 C 223.126 -0.581953 -1.77398 0
M  V30 2362 C 223.477 0.902552 -1.74208 0
M  V30 2363 O 222.602 1.70584 -1.33154 0
M  V30 2364 C 223.197 -1.04961 -3.22131 0
M  V30 2365 C 221.756 -0.777229 -3.68288 0
M  V30 2366 C 220.903 -1.22109 -2.48967 0
M  V30 2367 H 223.854 -1.08754 -1.15578 0
M  V30 2368 H 223.875 -0.387387 -3.78523 0
M  V30 2369 H 223.387 -2.13008 -3.24421 0
M  V30 2370 H 221.488 0.290383 -3.71467 0
M  V30 2371 H 221.601 -1.37911 -4.58822 0
M  V30 2372 H 219.965 -0.639971 -2.46529 0
M  V30 2373 H 220.748 -2.30972 -2.53982 0
M  V30 2374 N 223.193 1.4272 -0.668489 0
M  V30 2375 C 224.123 2.335 -0.000100175 0
M  V30 2376 C 225.104 1.50328 0.795964 0
M  V30 2377 O 226.289 1.78949 0.754385 0
M  V30 2378 C 223.419 3.33874 0.956302 0
M  V30 2379 C 222.373 4.27152 0.269278 0
M  V30 2380 C 221.699 5.17684 1.33818 0
M  V30 2381 C 222.999 5.15373 -0.847805 0
M  V30 2382 H 224.693 2.89639 -0.758244 0
M  V30 2383 H 222.239 1.39269 -0.366079 0
M  V30 2384 H 224.192 3.9629 1.43292 0
M  V30 2385 H 222.916 2.76025 1.74579 0
M  V30 2386 H 221.575 3.66123 -0.187042 0
M  V30 2387 H 221.223 4.56165 2.1195 0
M  V30 2388 H 220.923 5.80918 0.883659 0
M  V30 2389 H 222.447 5.82974 1.81586 0
M  V30 2390 H 223.861 5.7151 -0.452681 0
M  V30 2391 H 222.258 5.87407 -1.22773 0
M  V30 2392 H 223.328 4.5415 -1.69929 0
M  V30 2393 N 224.671 0.411399 1.52136 0
M  V30 2394 C 225.92 -0.165009 2.01024 0
M  V30 2395 C 226.233 -1.4603 1.30133 0
M  V30 2396 O 227.439 -2.1181 1.69849 0
M  V30 2397 C 225.895 -0.344618 3.58246 0
M  V30 2398 C 225.503 0.938716 4.38055 0
M  V30 2399 C 227.247 -0.876195 4.15359 0
M  V30 2400 C 225.154 0.726172 5.86925 0
M  V30 2401 H 224.084 -0.0654407 0.751155 0
M  V30 2402 H 226.735 0.537192 1.75461 0
M  V30 2403 H 225.117 -1.10921 3.80148 0
M  V30 2404 H 226.291 1.70963 4.27912 0
M  V30 2405 H 224.606 1.39688 3.92271 0
M  V30 2406 H 227.203 -1.05128 5.24263 0
M  V30 2407 H 227.546 -1.85152 3.7286 0
M  V30 2408 H 228.079 -0.170607 3.97434 0
M  V30 2409 H 224.818 1.67312 6.33788 0
M  V30 2410 H 224.338 -0.00540283 5.998 0
M  V30 2411 H 226.017 0.369231 6.45946 0
M  V30 2412 N 226.149 -1.5696 0.141893 0
M  V30 2413 C 227.398 -1.95135 -0.510427 0
M  V30 2414 C 227.711 -1.02896 -1.66348 0
M  V30 2415 O 228.917 -1.30629 -2.38009 0
M  V30 2416 C 227.373 -3.46876 -0.959427 0
M  V30 2417 C 226.981 -4.47691 0.166419 0
M  V30 2418 C 228.725 -3.93927 -1.58183 0
M  V30 2419 C 226.632 -5.90636 -0.300565 0
M  V30 2420 H 225.562 -0.728494 -0.194454 0
M  V30 2421 H 228.213 -1.8211 0.22542 0
M  V30 2422 H 226.595 -3.55215 -1.75038 0
M  V30 2423 H 227.769 -4.51043 0.94325 0
M  V30 2424 H 226.084 -4.10527 0.696905 0
M  V30 2425 H 228.681 -4.98158 -1.94275 0
M  V30 2426 H 229.024 -3.3519 -2.46888 0
M  V30 2427 H 229.557 -3.88484 -0.855863 0
M  V30 2428 H 226.296 -6.5318 0.550989 0
M  V30 2429 H 225.816 -5.90655 -1.04338 0
M  V30 2430 H 227.495 -6.42588 -0.754265 0
M  V30 2431 N 227.627 0.131896 -1.57047 0
M  V30 2432 C 229.043 0.485031 -1.52051 0
M  V30 2433 C 229.243 1.82563 -0.85281 0
M  V30 2434 O 228.299 2.48817 -0.429694 0
M  V30 2435 C 229.612 0.481409 -2.96821 0
M  V30 2436 C 231.16 0.565868 -3.07842 0
M  V30 2437 C 231.635 0.592762 -4.54148 0
M  V30 2438 N 233.126 0.654564 -4.58552 0
M  V30 2439 C 233.861 0.696608 -5.69153 0
M  V30 2440 N 233.357 0.697078 -6.89284 0
M  V30 2441 N 235.15 0.738639 -5.57226 0
M  V30 2442 H 227.301 -0.746664 -1.98843 0
M  V30 2443 H 229.564 -0.273999 -0.90754 0
M  V30 2444 H 229.27 -0.435731 -3.4899 0
M  V30 2445 H 229.144 1.3139 -3.53577 0
M  V30 2446 H 231.531 1.47343 -2.55684 0
M  V30 2447 H 231.612 -0.29406 -2.54104 0
M  V30 2448 H 231.256 -0.310701 -5.06949 0
M  V30 2449 H 231.186 1.46939 -5.05684 0
M  V30 2450 H 233.677 0.660887 -3.72076 0
M  V30 2451 H 233.99 0.731426 -7.69331 0
M  V30 2452 H 232.335 0.66471 -6.91814 0
M  V30 2453 H 235.526 0.735545 -4.62285 0
M  V30 2454 H 235.699 0.767938 -6.43434 0
M  V30 2455 N 229.106 1.52395 0.401703 0
M  V30 2456 C 230.016 1.7917 1.51444 0
M  V30 2457 C 231.032 0.677691 1.6026 0
M  V30 2458 O 232.208 0.963909 1.76835 0
M  V30 2459 C 229.273 1.94347 2.87107 0
M  V30 2460 C 228.334 3.18257 2.88116 0
M  V30 2461 C 227.567 3.32701 4.17308 0
M  V30 2462 O 227.79 2.52238 5.11598 0
M  V30 2463 O 226.724 4.25891 4.25324 0
M  V30 2464 H 230.55 2.73633 1.31752 0
M  V30 2465 H 228.135 1.3733 0.588296 0
M  V30 2466 H 230.017 2.06109 3.67555 0
M  V30 2467 H 228.692 1.03073 3.06851 0
M  V30 2468 H 227.599 3.11947 2.06494 0
M  V30 2469 H 228.932 4.09336 2.73322 0
M  V30 2470 N 230.584 -0.659388 1.43143 0
M  V30 2471 C 231.861 -1.41627 1.34912 0
M  V30 2472 C 232.241 -2.11099 -0.00607785 0
M  V30 2473 O 231.589 -2.04353 -1.02236 0
M  V30 2474 C 231.799 -2.40604 2.52805 0
M  V30 2475 C 233.147 -3.04789 2.95616 0
M  V30 2476 O 234.171 -2.50932 2.52807 0
M  V30 2477 O 233.03 -4.02421 3.69756 0
M  V30 2478 H 230.124 -0.63246 0.532844 0
M  V30 2479 H 232.67 -0.686814 1.5518 0
M  V30 2480 H 231.442 -1.88174 3.43083 0
M  V30 2481 H 231.065 -3.21009 2.34604 0
M  V30 2482 N 232.062 -1.29571 -0.897171 0
M  V30 2483 C 233.308 -1.17863 -1.65034 0
M  V30 2484 C 233.641 0.268729 -1.92332 0
M  V30 2485 O 232.916 1.19378 -1.53555 0
M  V30 2486 C 233.199 -1.995 -2.99786 0
M  V30 2487 C 233.052 -3.5239 -2.79538 0
M  V30 2488 C 234.371 -1.82335 -4.00552 0
M  V30 2489 H 231.49 -0.429528 -0.598895 0
M  V30 2490 H 234.132 -1.59072 -1.03905 0
M  V30 2491 H 232.282 -1.64485 -3.51962 0
M  V30 2492 H 233.954 -3.97401 -2.34244 0
M  V30 2493 H 232.197 -3.77187 -2.14273 0
M  V30 2494 H 232.868 -4.04787 -3.75302 0
M  V30 2495 H 235.344 -2.12924 -3.57495 0
M  V30 2496 H 234.22 -2.41801 -4.92771 0
M  V30 2497 H 234.481 -0.779209 -4.35179 0
M  V30 2498 N 233.54 1.10788 -1.12088 0
M  V30 2499 C 234.488 2.19111 -0.780587 0
M  V30 2500 C 235.482 1.67818 0.230961 0
M  V30 2501 O 236.688 1.79777 0.0895427 0
M  V30 2502 H 233.063 0.714477 -0.234578 0
M  V30 2503 H 235.034 2.45055 -1.70266 0
M  V30 2504 C 233.783 3.46818 -0.24747 0
M  V30 2505 H 233.106 3.86646 -1.01712 0
M  V30 2506 H 234.546 4.23973 -0.0476291 0
M  V30 2507 C 233.005 3.20968 1.02378 0
M  V30 2508 O 233.535 3.42298 2.10226 0
M  V30 2509 N 231.741 2.74658 0.949271 0
M  V30 2510 H 231.288 2.57501 0.0715173 0
M  V30 2511 H 231.246 2.57739 1.80049 0
M  V30 2512 N 235.018 0.912232 1.28515 0
M  V30 2513 C 236.434 0.610159 1.47476 0
M  V30 2514 C 236.634 -0.844955 1.82928 0
M  V30 2515 O 235.69 -1.62416 1.93332 0
M  V30 2516 C 237.003 1.54675 2.57868 0
M  V30 2517 C 238.551 1.55331 2.71738 0
M  V30 2518 C 239.026 2.47649 3.85272 0
M  V30 2519 N 240.517 2.45767 3.92623 0
M  V30 2520 C 241.252 3.13896 4.79851 0
M  V30 2521 N 240.748 3.9135 5.71679 0
M  V30 2522 N 242.541 3.02991 4.73448 0
M  V30 2523 H 234.692 1.85318 1.03783 0
M  V30 2524 H 236.955 0.794777 0.516753 0
M  V30 2525 H 236.661 2.5841 2.38574 0
M  V30 2526 H 236.535 1.27671 3.54937 0
M  V30 2527 H 238.922 0.52335 2.90422 0
M  V30 2528 H 239.003 1.86378 1.75205 0
M  V30 2529 H 238.647 3.50745 3.67342 0
M  V30 2530 H 238.577 2.13904 4.81199 0
M  V30 2531 H 241.068 1.89503 3.26951 0
M  V30 2532 H 241.381 4.40359 6.35062 0
M  V30 2533 H 239.726 3.95455 5.71524 0
M  V30 2534 H 242.917 2.41987 4.007 0
M  V30 2535 H 243.09 3.5636 5.41213 0
M  V30 2536 N 236.496 -1.42363 0.676048 0
M  V30 2537 C 237.444 -2.32596 -0.0131507 0
M  V30 2538 C 238.438 -1.49891 -0.789238 0
M  V30 2539 O 239.644 -1.65955 -0.697061 0
M  V30 2540 H 236.019 -0.751647 -0.0230481 0
M  V30 2541 H 237.99 -2.88421 0.765243 0
M  V30 2542 C 236.739 -3.34479 -0.949702 0
M  V30 2543 H 236.062 -3.98158 -0.361938 0
M  V30 2544 H 237.502 -4.00199 -1.4006 0
M  V30 2545 C 235.961 -2.66838 -2.05667 0
M  V30 2546 O 236.491 -2.50124 -3.14326 0
M  V30 2547 N 234.697 -2.25843 -1.82875 0
M  V30 2548 H 234.244 -2.39637 -0.945085 0
M  V30 2549 H 234.202 -1.80918 -2.5713 0
M  V30 2550 N 237.974 -0.419461 -1.51915 0
M  V30 2551 C 239.22 0.153166 -2.02221 0
M  V30 2552 C 239.553 1.43907 -1.30401 0
M  V30 2553 O 238.828 1.90055 -0.413438 0
M  V30 2554 C 239.111 0.390291 -3.57979 0
M  V30 2555 C 238.964 -0.913014 -4.40436 0
M  V30 2556 C 240.283 1.16794 -4.2432 0
M  V30 2557 H 237.402 0.0541924 -0.735005 0
M  V30 2558 H 240.044 -0.554955 -1.81715 0
M  V30 2559 H 238.194 0.993491 -3.75582 0
M  V30 2560 H 239.866 -1.54882 -4.34522 0
M  V30 2561 H 238.109 -1.52168 -4.06236 0
M  V30 2562 H 238.78 -0.701361 -5.47526 0
M  V30 2563 H 241.256 0.657161 -4.10878 0
M  V30 2564 H 240.132 1.3026 -5.3322 0
M  V30 2565 H 240.393 2.19132 -3.83971 0
M  V30 2566 N 239.452 1.56882 -0.150215 0
M  V30 2567 C 240.682 2.00302 0.506213 0
M  V30 2568 C 241.09 1.02934 1.58749 0
M  V30 2569 O 240.433 0.0188384 1.8369 0
M  V30 2570 C 240.495 3.40156 1.16337 0
M  V30 2571 C 240.159 4.56439 0.226311 0
M  V30 2572 C 241.156 5.17012 -0.547265 0
M  V30 2573 C 238.841 5.02136 0.128279 0
M  V30 2574 C 240.835 6.21693 -1.40629 0
M  V30 2575 C 238.522 6.06672 -0.734345 0
M  V30 2576 C 239.52 6.6632 -1.50023 0
M  V30 2577 O 239.208 7.68831 -2.34848 0
M  V30 2578 H 238.94 0.662182 0.135984 0
M  V30 2579 H 241.494 2.03961 -0.242746 0
M  V30 2580 H 239.724 3.33346 1.96004 0
M  V30 2581 H 241.413 3.67663 1.71985 0
M  V30 2582 H 242.179 4.82603 -0.48158 0
M  V30 2583 H 238.058 4.55435 0.714157 0
M  V30 2584 H 241.602 6.68179 -2.00455 0
M  V30 2585 H 237.499 6.40507 -0.801309 0
M  V30 2586 H 238.267 7.86065 -2.28131 0
M  V30 2587 N 240.93 -0.123565 1.57115 0
M  V30 2588 C 242.176 -0.833386 1.84885 0
M  V30 2589 C 242.509 -1.79742 0.735292 0
M  V30 2590 O 241.784 -1.92764 -0.25925 0
M  V30 2591 C 242.067 -1.5873 3.23228 0
M  V30 2592 C 241.92 -0.643183 4.45178 0
M  V30 2593 C 243.239 -2.54453 3.59085 0
M  V30 2594 H 240.358 -0.301518 0.6725 0
M  V30 2595 H 243 -0.097778 1.89748 0
M  V30 2596 H 241.15 -2.21438 3.19214 0
M  V30 2597 H 242.822 -0.0253015 4.61293 0
M  V30 2598 H 241.065 0.0456139 4.33776 0
M  V30 2599 H 241.736 -1.20724 5.38637 0
M  V30 2600 H 244.212 -2.01853 3.63861 0
M  V30 2601 H 243.088 -3.04238 4.5687 0
M  V30 2602 H 243.349 -3.36906 2.86264 0
M  V30 2603 N 242.408 -1.52605 -0.393616 0
M  V30 2604 C 243.371 -1.76415 -1.46323 0
M  V30 2605 C 244.371 -0.634126 -1.47768 0
M  V30 2606 O 245.561 -0.902142 -1.4902 0
M  V30 2607 C 242.693 -1.8607 -2.85641 0
M  V30 2608 H 243.886 -2.71916 -1.26498 0
M  V30 2609 H 241.439 -1.43257 -0.625073 0
M  V30 2610 H 242.174 -0.925378 -3.10817 0
M  V30 2611 H 241.959 -2.68235 -2.85993 0
M  V30 2612 H 243.449 -2.06179 -3.63153 0
M  V30 2613 N 243.887 0.651787 -1.4349 0
M  V30 2614 C 245.164 1.40909 -1.35661 0
M  V30 2615 C 245.544 2.11099 -0.00511733 0
M  V30 2616 O 244.892 2.04892 1.0115 0
M  V30 2617 C 245.102 2.3926 -2.54078 0
M  V30 2618 C 246.45 3.03217 -2.97228 0
M  V30 2619 O 247.474 2.49588 -2.54135 0
M  V30 2620 O 246.333 4.00455 -3.71885 0
M  V30 2621 H 243.427 0.629625 -0.536191 0
M  V30 2622 H 245.973 0.678575 -1.55542 0
M  V30 2623 H 244.745 1.86352 -3.44076 0
M  V30 2624 H 244.368 3.1976 -2.36303 0
M  V30 2625 N 245.365 1.30045 0.890287 0
M  V30 2626 C 246.295 1.18541 2.01172 0
M  V30 2627 C 247.276 0.0773356 1.69924 0
M  V30 2628 O 248.461 0.25845 1.92473 0
M  V30 2629 C 245.591 0.870941 3.36202 0
M  V30 2630 C 244.545 1.93637 3.81692 0
M  V30 2631 C 243.871 1.475 5.13953 0
M  V30 2632 C 245.171 3.34666 4.00994 0
M  V30 2633 H 246.865 2.12359 2.11054 0
M  V30 2634 H 244.411 1.02238 1.01407 0
M  V30 2635 H 246.364 0.777141 4.14172 0
M  V30 2636 H 245.088 -0.102926 3.26438 0
M  V30 2637 H 243.747 2.01972 3.05946 0
M  V30 2638 H 243.395 0.489551 5.00612 0
M  V30 2639 H 243.095 2.1876 5.4536 0
M  V30 2640 H 244.619 1.39489 5.94454 0
M  V30 2641 H 246.033 3.2912 4.69417 0
M  V30 2642 H 244.43 4.03966 4.43769 0
M  V30 2643 H 245.5 3.76949 3.05021 0
M  V30 2644 N 246.843 -1.10192 1.12674 0
M  V30 2645 C 248.071 -1.85983 0.906527 0
M  V30 2646 C 248.486 -1.80783 -0.544333 0
M  V30 2647 O 247.843 -1.19834 -1.37645 0
M  V30 2648 C 247.894 -3.34281 1.37618 0
M  V30 2649 O 247.615 -3.39401 2.77017 0
M  V30 2650 C 249.116 -4.26938 1.19325 0
M  V30 2651 H 246.336 -0.587716 0.323775 0
M  V30 2652 H 248.88 -1.39284 1.49734 0
M  V30 2653 H 247.035 -3.78436 0.828539 0
M  V30 2654 H 247.449 -4.31838 2.97684 0
M  V30 2655 H 248.923 -5.29181 1.57071 0
M  V30 2656 H 249.4 -4.38995 0.134097 0
M  V30 2657 H 250.006 -3.8859 1.72852 0
M  V30 2658 N 248.321 -0.919034 -1.28029 0
M  V30 2659 C 249.231 -0.416756 -2.30869 0
M  V30 2660 C 250.247 0.498235 -1.66714 0
M  V30 2661 O 251.423 0.383144 -1.97722 0
M  V30 2662 C 248.488 0.330274 -3.45123 0
M  V30 2663 C 247.549 -0.618578 -4.2482 0
M  V30 2664 C 246.782 0.0928959 -5.33619 0
M  V30 2665 O 247.005 1.31375 -5.55065 0
M  V30 2666 O 245.939 -0.574499 -5.99152 0
M  V30 2667 H 249.765 -1.27043 -2.75851 0
M  V30 2668 H 247.35 -0.684052 -1.3282 0
M  V30 2669 H 249.232 0.751972 -4.14636 0
M  V30 2670 H 247.907 1.1597 -3.02213 0
M  V30 2671 H 246.814 -1.08978 -3.57875 0
M  V30 2672 H 248.147 -1.41497 -4.71423 0
M  V30 2673 N 249.799 1.42003 -0.683588 0
M  V30 2674 C 250.709 2.34597 -0.0109075 0
M  V30 2675 C 251.725 1.55576 0.779245 0
M  V30 2676 O 252.901 1.88107 0.719555 0
M  V30 2677 C 249.966 3.34199 0.922588 0
M  V30 2678 C 249.027 4.29115 0.125984 0
M  V30 2679 C 248.26 5.23959 1.01502 0
M  V30 2680 O 248.483 5.23952 2.25456 0
M  V30 2681 O 247.417 6.00053 0.47111 0
M  V30 2682 H 251.243 2.93675 -0.773853 0
M  V30 2683 H 248.828 1.42654 -0.443861 0
M  V30 2684 H 250.71 3.95365 1.45823 0
M  V30 2685 H 249.385 2.77582 1.66523 0
M  V30 2686 H 248.292 3.71335 -0.453969 0
M  V30 2687 H 249.625 4.88798 -0.577736 0
M  V30 2688 N 251.277 0.427512 1.51691 0
M  V30 2689 C 252.523 -0.142439 2.02299 0
M  V30 2690 C 252.856 -1.43214 1.31162 0
M  V30 2691 O 252.131 -1.89833 0.423511 0
M  V30 2692 C 252.414 -0.371301 3.58181 0
M  V30 2693 C 252.267 0.936358 4.39946 0
M  V30 2694 C 253.586 -1.14542 4.24933 0
M  V30 2695 H 250.705 -0.0502937 0.735282 0
M  V30 2696 H 253.347 0.564584 1.81418 0
M  V30 2697 H 251.497 -0.973559 3.76104 0
M  V30 2698 H 253.169 1.57184 4.33694 0
M  V30 2699 H 251.412 1.5432 4.05423 0
M  V30 2700 H 252.083 0.730388 5.47147 0
M  V30 2701 H 254.559 -0.635362 4.11221 0
M  V30 2702 H 253.435 -1.27431 5.33903 0
M  V30 2703 H 253.696 -2.17093 3.85127 0
M  V30 2704 N 252.755 -1.56801 0.158532 0
M  V30 2705 C 254.001 -1.96781 -0.490405 0
M  V30 2706 C 254.334 -1.04397 -1.63753 0
M  V30 2707 O 253.609 -0.0885805 -1.94298 0
M  V30 2708 C 253.892 -3.4635 -0.985594 0
M  V30 2709 C 253.745 -4.49512 0.160824 0
M  V30 2710 C 255.064 -3.98697 -1.86355 0
M  V30 2711 H 252.183 -0.715482 -0.176788 0
M  V30 2712 H 254.825 -1.88451 0.242088 0
M  V30 2713 H 252.975 -3.53579 -1.60978 0
M  V30 2714 H 254.647 -4.54353 0.797537 0
M  V30 2715 H 252.89 -4.26013 0.818256 0
M  V30 2716 H 253.561 -5.51531 -0.227569 0
M  V30 2717 H 256.037 -3.94019 -1.33746 0
M  V30 2718 H 254.913 -5.03792 -2.17909 0
M  V30 2719 H 255.174 -3.41744 -2.8047 0
M  V30 2720 N 254.233 0.115231 -1.57178 0
M  V30 2721 C 255.463 0.835224 -1.88964 0
M  V30 2722 C 255.871 1.73774 -0.74829 0
M  V30 2723 O 255.214 1.81401 0.289739 0
M  V30 2724 C 255.276 1.7178 -3.15804 0
M  V30 2725 C 254.94 0.989198 -4.46166 0
M  V30 2726 C 255.937 0.328263 -5.18863 0
M  V30 2727 C 253.622 0.969256 -4.9286 0
M  V30 2728 C 255.616 -0.342873 -6.36477 0
M  V30 2729 C 253.303 0.294324 -6.10391 0
M  V30 2730 C 254.301 -0.360582 -6.82048 0
M  V30 2731 O 253.989 -1.02474 -7.97342 0
M  V30 2732 H 253.721 0.245197 -0.629964 0
M  V30 2733 H 256.275 0.10303 -2.05141 0
M  V30 2734 H 254.505 2.49173 -2.95719 0
M  V30 2735 H 256.194 2.31255 -3.33581 0
M  V30 2736 H 256.96 0.335263 -4.8384 0
M  V30 2737 H 252.839 1.46844 -4.36987 0
M  V30 2738 H 256.383 -0.854629 -6.92345 0
M  V30 2739 H 252.28 0.285099 -6.4487 0
M  V30 2740 H 253.048 -0.929594 -8.13204 0
M  V30 2741 N 255.711 1.52812 0.385517 0
M  V30 2742 C 256.939 1.71907 1.15133 0
M  V30 2743 C 257.354 0.439004 1.83625 0
M  V30 2744 O 256.711 -0.586765 1.7281 0
M  V30 2745 C 256.762 2.87099 2.19673 0
M  V30 2746 O 256.483 4.10151 1.53973 0
M  V30 2747 C 257.984 3.17902 3.08955 0
M  V30 2748 H 255.204 0.575479 0.345057 0
M  V30 2749 H 257.748 1.99476 0.45052 0
M  V30 2750 H 255.903 2.61982 2.85384 0
M  V30 2751 H 256.317 4.74514 2.23465 0
M  V30 2752 H 257.791 4.01959 3.7833 0
M  V30 2753 H 258.268 2.3243 3.72657 0
M  V30 2754 H 258.874 3.44871 2.48885 0
M  V30 2755 N 257.189 -0.644168 1.43834 0
M  V30 2756 C 258.414 -1.43642 1.49605 0
M  V30 2757 C 258.839 -1.8773 0.117913 0
M  V30 2758 O 258.197 -1.57938 -0.890239 0
M  V30 2759 C 258.245 -2.6416 2.45463 0
M  V30 2760 O 257.349 -3.63538 1.94714 0
M  V30 2761 H 256.69 -0.430329 0.50568 0
M  V30 2762 H 259.22 -0.787448 1.8884 0
M  V30 2763 H 259.23 -3.11864 2.63068 0
M  V30 2764 H 257.905 -2.31414 3.45572 0
M  V30 2765 H 256.482 -3.2273 1.86814 0
M  V30 2766 N 258.668 -1.30515 -0.883378 0
M  V30 2767 C 259.578 -1.18959 -2.02203 0
M  V30 2768 C 260.594 -0.109172 -1.73657 0
M  V30 2769 O 261.77 -0.324413 -1.9877 0
M  V30 2770 C 258.835 -0.883871 -3.35244 0
M  V30 2771 C 257.896 -2.04982 -3.77201 0
M  V30 2772 C 257.129 -1.75859 -5.03894 0
M  V30 2773 O 257.352 -0.687276 -5.66244 0
M  V30 2774 O 256.286 -2.61146 -5.42297 0
M  V30 2775 H 260.112 -2.14616 -2.1488 0
M  V30 2776 H 257.697 -1.10124 -1.0096 0
M  V30 2777 H 259.579 -0.728644 -4.15053 0
M  V30 2778 H 258.254 0.0427798 -3.23672 0
M  V30 2779 H 257.161 -2.26038 -2.9809 0
M  V30 2780 H 258.494 -2.95825 -3.93381 0
M  V30 2781 N 260.146 1.09593 -1.13257 0
M  V30 2782 C 261.079 2.15451 -0.752061 0
M  V30 2783 C 262.057 1.60493 0.260913 0
M  V30 2784 O 263.241 1.8788 0.152819 0
M  V30 2785 C 260.368 3.38506 -0.114594 0
M  V30 2786 C 259.414 4.12183 -1.09579 0
M  V30 2787 S 260.247 4.6661 -2.62745 0
M  V30 2788 C 261.403 5.92966 -2.00354 0
M  V30 2789 H 261.636 2.47395 -1.64872 0
M  V30 2790 H 259.169 1.21515 -0.952545 0
M  V30 2791 H 261.127 4.09757 0.246808 0
M  V30 2792 H 259.788 3.04784 0.759309 0
M  V30 2793 H 258.981 5.00445 -0.597545 0
M  V30 2794 H 258.583 3.46785 -1.40057 0
M  V30 2795 H 260.875 6.63882 -1.35156 0
M  V30 2796 H 261.818 6.47467 -2.86691 0
M  V30 2797 H 262.226 5.45405 -1.4558 0
M  V30 2798 N 261.624 0.925811 1.2754 0
M  V30 2799 C 262.587 0.428129 2.25166 0
M  V30 2800 C 263.587 -0.452261 1.54309 0
M  V30 2801 O 264.777 -0.253608 1.72344 0
M  V30 2802 C 261.909 -0.384749 3.38722 0
M  V30 2803 H 263.102 1.29066 2.70706 0
M  V30 2804 H 260.655 0.706323 1.3943 0
M  V30 2805 H 261.39 -1.26618 2.98561 0
M  V30 2806 H 261.175 0.246454 3.91325 0
M  V30 2807 H 262.665 -0.723389 4.11287 0
M  V30 2808 N 263.102 -1.41638 0.69111 0
M  V30 2809 C 264.032 -2.3347 0.037248 0
M  V30 2810 C 265.013 -1.51575 -0.771947 0
M  V30 2811 O 266.198 -1.80126 -0.72582 0
M  V30 2812 C 263.328 -3.35354 -0.903064 0
M  V30 2813 C 262.282 -4.27526 -0.201288 0
M  V30 2814 C 261.608 -5.19747 -1.25565 0
M  V30 2815 C 262.908 -5.13959 0.929689 0
M  V30 2816 H 264.602 -2.88397 0.804227 0
M  V30 2817 H 262.148 -1.38669 0.388189 0
M  V30 2818 H 264.101 -3.98519 -1.36969 0
M  V30 2819 H 262.825 -2.78767 -1.70166 0
M  V30 2820 H 261.484 -3.65779 0.245265 0
M  V30 2821 H 261.132 -4.59479 -2.04666 0
M  V30 2822 H 260.832 -5.8225 -0.791128 0
M  V30 2823 H 262.356 -5.85789 -1.72288 0
M  V30 2824 H 263.77 -5.70718 0.543546 0
M  V30 2825 H 262.167 -5.85379 1.32103 0
M  V30 2826 H 263.237 -4.51389 1.77133 0
M  V30 2827 N 264.58 -0.43555 -1.51462 0
M  V30 2828 C 265.527 0.376797 -2.27703 0
M  V30 2829 C 266.497 1.01838 -1.31219 0
M  V30 2830 O 267.682 1.03762 -1.60119 0
M  V30 2831 C 264.822 1.47301 -3.12084 0
M  V30 2832 C 263.935 0.849744 -4.2356 0
M  V30 2833 C 263.07 1.92086 -4.95254 0
M  V30 2834 C 262.109 1.27593 -5.98654 0
M  V30 2835 N 261.246 2.28833 -6.63762 0
M  V30 2836 H 266.086 -0.279734 -2.96684 0
M  V30 2837 H 263.623 -0.149795 -1.46335 0
M  V30 2838 H 265.581 2.11984 -3.59331 0
M  V30 2839 H 264.211 2.0992 -2.45221 0
M  V30 2840 H 263.263 0.0912529 -3.80291 0
M  V30 2841 H 264.575 0.338878 -4.97648 0
M  V30 2842 H 263.729 2.64435 -5.46039 0
M  V30 2843 H 262.468 2.46545 -4.20793 0
M  V30 2844 H 261.473 0.537893 -5.47162 0
M  V30 2845 H 262.698 0.738693 -6.7507 0
M  V30 2846 H 260.644 2.82375 -5.92115 0
M  V30 2847 H 260.561 1.82632 -7.33608 0
M  V30 2848 H 261.829 3.00671 -7.19178 0
M  V30 2849 N 266.058 1.56714 -0.166846 0
M  V30 2850 C 267.304 1.97813 0.473473 0
M  V30 2851 C 267.659 1.05095 1.61161 0
M  V30 2852 O 266.952 0.0897541 1.9139 0
M  V30 2853 C 267.146 3.42889 1.00806 0
M  V30 2854 C 266.975 4.49635 -0.0767392 0
M  V30 2855 C 265.745 5.02566 -0.524894 0
M  V30 2856 C 267.943 5.06793 -0.875504 0
M  V30 2857 N 265.925 5.9294 -1.59047 0
M  V30 2858 C 267.296 5.93565 -1.79111 0
M  V30 2859 C 269.351 4.89306 -0.921083 0
M  V30 2860 C 268.054 6.64721 -2.74843 0
M  V30 2861 C 270.08 5.61179 -1.86633 0
M  V30 2862 C 269.442 6.47675 -2.76942 0
M  V30 2863 H 265.541 0.769093 0.141489 0
M  V30 2864 H 268.125 1.92874 -0.266031 0
M  V30 2865 H 266.296 3.48382 1.7171 0
M  V30 2866 H 268.028 3.71008 1.61664 0
M  V30 2867 H 264.783 4.73439 -0.123432 0
M  V30 2868 H 265.207 6.42831 -2.12361 0
M  V30 2869 H 269.849 4.22136 -0.23692 0
M  V30 2870 H 267.567 7.31107 -3.44249 0
M  V30 2871 H 271.153 5.49636 -1.90764 0
M  V30 2872 H 270.033 7.02313 -3.48893 0
M  V30 2873 N 267.536 -0.106894 1.57237 0
M  V30 2874 C 268.785 -0.811163 1.8467 0
M  V30 2875 C 269.098 -1.80469 0.754342 0
M  V30 2876 O 270.304 -2.55601 0.915439 0
M  V30 2877 C 268.76 -1.49337 3.27454 0
M  V30 2878 C 268.368 -0.540217 4.44731 0
M  V30 2879 C 270.112 -2.18206 3.64124 0
M  V30 2880 C 268.019 -1.22634 5.78545 0
M  V30 2881 H 266.949 -0.306679 0.688813 0
M  V30 2882 H 269.6 -0.0639887 1.83388 0
M  V30 2883 H 267.982 -2.2876 3.23241 0
M  V30 2884 H 269.156 0.221659 4.60267 0
M  V30 2885 H 267.471 0.042146 4.16379 0
M  V30 2886 H 270.068 -2.70253 4.61376 0
M  V30 2887 H 270.411 -2.96562 2.92158 0
M  V30 2888 H 270.944 -1.45658 3.70174 0
M  V30 2889 H 267.683 -0.483832 6.53712 0
M  V30 2890 H 267.203 -1.95993 5.66874 0
M  V30 2891 H 268.882 -1.75615 6.2271 0
M  V30 2892 N 269.014 -1.53014 -0.377408 0
M  V30 2893 C 270.242 -1.72515 -1.14219 0
M  V30 2894 C 270.657 -0.448735 -1.8339 0
M  V30 2895 O 270.014 0.577592 -1.73119 0
M  V30 2896 C 270.065 -2.8826 -2.18148 0
M  V30 2897 O 269.786 -4.10962 -1.51795 0
M  V30 2898 C 271.287 -3.19536 -3.07264 0
M  V30 2899 H 268.507 -0.577301 -0.342001 0
M  V30 2900 H 271.051 -1.99712 -0.439935 0
M  V30 2901 H 269.206 -2.63492 -2.83991 0
M  V30 2902 H 269.62 -4.75693 -2.20945 0
M  V30 2903 H 271.094 -4.03959 -3.76193 0
M  V30 2904 H 271.571 -2.34403 -3.71419 0
M  V30 2905 H 272.177 -3.46186 -2.47053 0
M  V30 2906 N 270.492 0.636531 -1.44174 0
M  V30 2907 C 271.439 1.74875 -1.50624 0
M  V30 2908 C 272.409 1.62275 -0.35442 0
M  V30 2909 O 273.594 1.82276 -0.563908 0
M  V30 2910 C 270.734 3.13102 -1.45125 0
M  V30 2911 C 269.847 3.36717 -2.7064 0
M  V30 2912 C 268.982 4.64885 -2.57013 0
M  V30 2913 C 268.021 4.8166 -3.77717 0
M  V30 2914 N 267.158 6.01101 -3.62798 0
M  V30 2915 H 271.998 1.68697 -2.45653 0
M  V30 2916 H 269.535 0.823004 -1.21922 0
M  V30 2917 H 271.493 3.93034 -1.39929 0
M  V30 2918 H 270.123 3.18308 -0.536671 0
M  V30 2919 H 269.175 2.50763 -2.86046 0
M  V30 2920 H 270.487 3.44993 -3.60252 0
M  V30 2921 H 269.641 5.52969 -2.49619 0
M  V30 2922 H 268.38 4.58957 -1.64953 0
M  V30 2923 H 267.385 3.92007 -3.85501 0
M  V30 2924 H 268.61 4.89406 -4.70807 0
M  V30 2925 H 266.556 5.96273 -2.73486 0
M  V30 2926 H 266.473 6.10409 -4.46023 0
M  V30 2927 H 267.741 6.91761 -3.59286 0
M  V30 2928 N 271.97 1.30982 0.876444 0
M  V30 2929 C 273.218 1.20058 1.62575 0
M  V30 2930 C 273.539 -0.242947 1.93481 0
M  V30 2931 O 272.809 -1.1619 1.57724 0
M  V30 2932 H 271.389 0.44135 0.602677 0
M  V30 2933 H 274.051 1.64222 1.04962 0
M  V30 2934 H 273.147 1.76762 2.57219 0
M  V30 2935 N 273.449 -1.08991 1.13837 0
M  V30 2936 C 274.359 -2.19301 0.833333 0
M  V30 2937 C 275.375 -1.73026 -0.183847 0
M  V30 2938 O 276.551 -2.01395 -0.0138092 0
M  V30 2939 C 273.616 -3.45323 0.308651 0
M  V30 2940 C 272.677 -4.06255 1.38764 0
M  V30 2941 C 271.91 -5.26262 0.887896 0
M  V30 2942 O 272.133 -5.69747 -0.27287 0
M  V30 2943 O 271.067 -5.78435 1.66421 0
M  V30 2944 H 274.893 -2.47854 1.75506 0
M  V30 2945 H 272.478 -1.18012 0.916166 0
M  V30 2946 H 274.36 -4.21394 0.0216739 0
M  V30 2947 H 273.035 -3.18362 -0.585431 0
M  V30 2948 H 271.942 -3.318 1.72799 0
M  V30 2949 H 273.275 -4.37452 2.25602 0
M  V30 2950 N 274.927 -0.932562 -1.27047 0
M  V30 2951 C 275.874 -0.434072 -2.26681 0
M  V30 2952 C 276.844 0.501639 -1.58344 0
M  V30 2953 O 278.029 0.419734 -1.86126 0
M  V30 2954 C 275.169 0.30261 -3.43771 0
M  V30 2955 C 274.282 -0.667774 -4.26808 0
M  V30 2956 C 273.417 0.0892393 -5.31125 0
M  V30 2957 C 272.456 -0.873532 -6.05835 0
M  V30 2958 N 271.593 -0.148832 -7.01942 0
M  V30 2959 H 276.433 -1.28868 -2.68695 0
M  V30 2960 H 273.97 -0.646713 -1.32121 0
M  V30 2961 H 275.928 0.746092 -4.10474 0
M  V30 2962 H 274.558 1.12142 -3.02695 0
M  V30 2963 H 273.61 -1.22978 -3.59973 0
M  V30 2964 H 274.922 -1.40337 -4.78651 0
M  V30 2965 H 274.076 0.592409 -6.03801 0
M  V30 2966 H 272.815 0.85777 -4.80097 0
M  V30 2967 H 271.82 -1.38791 -5.31994 0
M  V30 2968 H 273.045 -1.64193 -6.58952 0
M  V30 2969 H 270.991 0.601365 -6.53238 0
M  V30 2970 H 270.908 -0.82391 -7.51497 0
M  V30 2971 H 272.176 0.333527 -7.78786 0
M  V30 2972 N 276.405 1.4127 -0.698611 0
M  V30 2973 C 277.63 2.06024 -0.238512 0
M  V30 2974 C 278.055 1.5224 1.10475 0
M  V30 2975 O 277.413 0.650623 1.69223 0
M  V30 2976 C 277.461 3.59988 -0.209952 0
M  V30 2977 O 276.565 4.04282 0.814235 0
M  V30 2978 H 275.906 0.653829 -0.115775 0
M  V30 2979 H 278.436 1.8098 -0.954326 0
M  V30 2980 H 278.446 4.07979 -0.0418436 0
M  V30 2981 H 277.121 3.98503 -1.1903 0
M  V30 2982 H 275.698 3.6779 0.615234 0
M  V30 2983 N 277.883 0.443576 1.51229 0
M  V30 2984 C 279.299 0.0962001 1.5931 0
M  V30 2985 C 279.499 -1.39501 1.45402 0
M  V30 2986 O 278.555 -2.16557 1.29843 0
M  V30 2987 C 279.868 0.621875 2.94199 0
M  V30 2988 C 281.416 0.582865 3.07525 0
M  V30 2989 C 281.891 1.08562 4.44948 0
M  V30 2990 N 283.382 1.04387 4.51284 0
M  V30 2991 C 284.117 1.40368 5.55954 0
M  V30 2992 N 283.613 1.83664 6.68011 0
M  V30 2993 N 285.406 1.32145 5.46346 0
M  V30 2994 H 277.557 1.41376 1.58514 0
M  V30 2995 H 279.82 0.582965 0.747567 0
M  V30 2996 H 279.526 1.66546 3.09767 0
M  V30 2997 H 279.4 0.0502125 3.77167 0
M  V30 2998 H 281.787 -0.451749 2.91622 0
M  V30 2999 H 281.868 1.191 2.26382 0
M  V30 3000 H 281.512 2.11873 4.61598 0
M  V30 3001 H 281.442 0.453956 5.2464 0
M  V30 3002 H 283.933 0.725986 3.70861 0
M  V30 3003 H 284.246 2.0934 7.43906 0
M  V30 3004 H 282.591 1.87596 6.69203 0
M  V30 3005 H 285.782 0.981808 4.57688 0
M  V30 3006 H 285.955 1.60514 6.27805 0
M  V30 3007 N 279.361 -1.56624 0.175154 0
M  V30 3008 C 280.311 -2.14747 -0.766004 0
M  V30 3009 C 281.295 -1.08275 -1.19018 0
M  V30 3010 O 282.487 -1.34388 -1.15191 0
M  V30 3011 C 279.616 -2.79478 -1.99366 0
M  V30 3012 C 278.702 -3.93114 -1.5913 0
M  V30 3013 N 279.093 -4.97752 -0.89872 0
M  V30 3014 C 277.391 -4.04345 -1.88204 0
M  V30 3015 C 278.092 -5.77473 -0.700012 0
M  V30 3016 N 277.068 -5.29207 -1.24263 0
M  V30 3017 H 280.87 -2.93015 -0.22793 0
M  V30 3018 H 278.384 -1.6238 -0.0253843 0
M  V30 3019 H 280.381 -3.19498 -2.67818 0
M  V30 3020 H 279.041 -2.02692 -2.53665 0
M  V30 3021 H 280.052 -5.14903 -0.556347 0
M  V30 3022 H 276.729 -3.38667 -2.44153 0
M  V30 3023 H 278.119 -6.71728 -0.152047 0
M  V30 3024 N 280.839 0.0985539 -1.57292 0
M  V30 3025 C 282.069 0.815135 -1.8984 0
M  V30 3026 C 282.477 1.7297 -0.766679 0
M  V30 3027 O 281.82 1.81698 0.270483 0
M  V30 3028 C 281.882 1.6842 -3.17608 0
M  V30 3029 C 281.546 0.94182 -4.4719 0
M  V30 3030 C 282.543 0.273212 -5.19182 0
M  V30 3031 C 280.228 0.916927 -4.9386 0
M  V30 3032 C 282.222 -0.410361 -6.36078 0
M  V30 3033 C 279.909 0.229567 -6.10669 0
M  V30 3034 C 280.907 -0.432902 -6.81627 0
M  V30 3035 O 280.595 -1.10925 -7.9621 0
M  V30 3036 H 280.327 0.238501 -0.632529 0
M  V30 3037 H 282.881 0.0812659 -2.05239 0
M  V30 3038 H 281.111 2.46022 -2.98345 0
M  V30 3039 H 282.8 2.27704 -3.36015 0
M  V30 3040 H 283.566 0.283927 -4.84168 0
M  V30 3041 H 279.445 1.42201 -4.3852 0
M  V30 3042 H 282.989 -0.928013 -6.914 0
M  V30 3043 H 278.886 0.216686 -6.45136 0
M  V30 3044 H 279.654 -1.01579 -8.12172 0
M  V30 3045 N 282.317 1.53212 0.369288 0
M  V30 3046 C 283.565 1.68881 1.11012 0
M  V30 3047 C 283.886 0.441285 1.89941 0
M  V30 3048 O 283.156 -0.544623 1.88177 0
M  V30 3049 H 281.736 0.622569 0.412816 0
M  V30 3050 H 284.398 1.90391 0.416802 0
M  V30 3051 H 283.494 2.54822 1.80201 0
M  V30 3052 N 283.795 -0.628877 1.44509 0
M  V30 3053 C 284.705 -1.7694 1.54044 0
M  V30 3054 C 285.721 -1.68705 0.425987 0
M  V30 3055 O 286.897 -1.89442 0.683656 0
M  V30 3056 C 283.962 -3.13332 1.48405 0
M  V30 3057 C 283.023 -3.33181 2.70719 0
M  V30 3058 C 282.256 -4.63067 2.6534 0
M  V30 3059 O 282.479 -5.44017 1.71469 0
M  V30 3060 O 281.413 -4.85167 3.56226 0
M  V30 3061 H 285.239 -1.71848 2.50403 0
M  V30 3062 H 282.824 -0.790378 1.26781 0
M  V30 3063 H 284.706 -3.94634 1.47791 0
M  V30 3064 H 283.381 -3.1896 0.551898 0
M  V30 3065 H 282.288 -2.51549 2.769 0
M  V30 3066 H 283.621 -3.32416 3.62988 0
M  V30 3067 N 285.273 -1.31445 -0.869486 0
M  V30 3068 C 286.501 -1.24122 -1.65534 0
M  V30 3069 C 286.916 0.193387 -1.87807 0
M  V30 3070 O 286.273 1.12557 -1.43656 0
M  V30 3071 C 286.324 -1.98229 -3.02304 0
M  V30 3072 O 286.045 -3.3609 -2.81026 0
M  V30 3073 C 287.546 -1.97751 -3.96749 0
M  V30 3074 H 284.766 -0.428868 -0.516055 0
M  V30 3075 H 287.31 -1.73328 -1.08525 0
M  V30 3076 H 285.465 -1.52782 -3.56001 0
M  V30 3077 H 285.879 -3.7383 -3.67902 0
M  V30 3078 H 287.353 -2.54114 -4.90031 0
M  V30 3079 H 287.83 -0.960137 -4.28577 0
M  V30 3080 H 288.436 -2.43079 -3.48988 0
M  V30 3081 N 286.751 1.08385 -1.14413 0
M  V30 3082 C 287.698 2.15311 -0.831265 0
M  V30 3083 C 288.668 1.64751 0.211292 0
M  V30 3084 O 289.853 1.90627 0.0811674 0
M  V30 3085 C 286.993 3.43658 -0.315143 0
M  V30 3086 C 286.106 4.08064 -1.41802 0
M  V30 3087 C 285.241 5.24207 -0.859126 0
M  V30 3088 C 284.28 5.80554 -1.93967 0
M  V30 3089 N 283.417 6.88042 -1.39793 0
M  V30 3090 H 288.257 2.41415 -1.74708 0
M  V30 3091 H 285.794 1.18474 -0.871909 0
M  V30 3092 H 287.752 4.172 0.00230884 0
M  V30 3093 H 286.382 3.17839 0.56378 0
M  V30 3094 H 285.434 3.3228 -1.85187 0
M  V30 3095 H 286.746 4.45962 -2.23427 0
M  V30 3096 H 285.9 6.04689 -0.49359 0
M  V30 3097 H 284.639 4.87699 -0.011932 0
M  V30 3098 H 283.644 4.98725 -2.31415 0
M  V30 3099 H 284.869 6.19121 -2.79046 0
M  V30 3100 H 282.815 6.53493 -0.572919 0
M  V30 3101 H 282.732 7.24767 -2.15054 0
M  V30 3102 H 284 7.72255 -1.0603 0
M  V30 3103 N 288.23 0.939286 1.26551 0
M  V30 3104 C 289.163 0.391702 2.24813 0
M  V30 3105 C 290.141 -0.518421 1.54114 0
M  V30 3106 O 291.325 -0.456299 1.82894 0
M  V30 3107 C 288.452 -0.437382 3.35864 0
M  V30 3108 C 287.498 0.410946 4.24516 0
M  V30 3109 S 288.331 1.83372 5.03125 0
M  V30 3110 C 289.487 1.01264 6.17654 0
M  V30 3111 H 289.72 1.22448 2.70913 0
M  V30 3112 H 287.253 0.742269 1.35387 0
M  V30 3113 H 289.211 -0.909837 4.0029 0
M  V30 3114 H 287.872 -1.24482 2.8838 0
M  V30 3115 H 287.065 -0.224191 5.03501 0
M  V30 3116 H 286.667 0.818014 3.64945 0
M  V30 3117 H 288.959 0.254023 6.77024 0
M  V30 3118 H 289.902 1.77589 6.85469 0
M  V30 3119 H 290.31 0.549532 5.61819 0
M  V30 3120 N 289.708 -1.40897 0.706093 0
M  V30 3121 C 290.656 -2.32572 0.0361893 0
M  V30 3122 C 291.65 -1.51532 -0.757266 0
M  V30 3123 O 292.856 -1.67396 -0.661703 0
M  V30 3124 H 289.231 -0.751966 -0.00709935 0
M  V30 3125 H 291.202 -2.86733 0.826249 0
M  V30 3126 C 289.951 -3.36418 -0.87854 0
M  V30 3127 H 289.274 -3.98836 -0.277401 0
M  V30 3128 H 290.714 -4.0308 -1.3154 0
M  V30 3129 C 289.173 -2.71141 -1.99961 0
M  V30 3130 O 289.703 -2.56735 -3.0895 0
M  V30 3131 N 287.909 -2.29671 -1.78043 0
M  V30 3132 H 287.456 -2.41588 -0.894042 0
M  V30 3133 H 287.414 -1.86332 -2.53235 0
M  V30 3134 N 291.186 -0.45159 -1.50991 0
M  V30 3135 C 292.118 0.388634 -2.25881 0
M  V30 3136 C 293.131 0.974041 -1.30446 0
M  V30 3137 O 294.32 0.865758 -1.56099 0
M  V30 3138 C 291.42 1.5571 -3.01011 0
M  V30 3139 C 290.593 1.08801 -4.23652 0
M  V30 3140 C 289.652 2.12825 -4.8124 0
M  V30 3141 O 288.678 1.71678 -5.42693 0
M  V30 3142 N 289.88 3.45453 -4.66522 0
M  V30 3143 H 292.645 -0.25329 -2.98628 0
M  V30 3144 H 290.206 -0.281268 -1.59438 0
M  V30 3145 H 292.198 2.24952 -3.3642 0
M  V30 3146 H 290.768 2.10409 -2.31186 0
M  V30 3147 H 289.988 0.22215 -3.93574 0
M  V30 3148 H 291.276 0.752213 -5.03209 0
M  V30 3149 H 290.674 3.81605 -4.17605 0
M  V30 3150 H 289.231 4.10549 -5.06254 0
M  V30 3151 N 292.664 1.56529 -0.183458 0
M  V30 3152 C 294.08 1.58664 0.172554 0
M  V30 3153 C 294.28 1.19925 1.61926 0
M  V30 3154 O 293.336 0.916534 2.35278 0
M  V30 3155 C 294.649 3.00463 -0.119262 0
M  V30 3156 C 296.197 3.12945 -0.0584396 0
M  V30 3157 C 296.672 4.56857 -0.323408 0
M  V30 3158 N 298.163 4.62403 -0.271612 0
M  V30 3159 C 298.898 5.71626 -0.450639 0
M  V30 3160 N 298.394 6.89362 -0.689384 0
M  V30 3161 N 300.187 5.60775 -0.385701 0
M  V30 3162 H 292.338 1.79994 -1.12765 0
M  V30 3163 H 294.601 0.834808 -0.449222 0
M  V30 3164 H 294.307 3.33326 -1.12192 0
M  V30 3165 H 294.181 3.72659 0.583544 0
M  V30 3166 H 296.568 2.79902 0.934805 0
M  V30 3167 H 296.649 2.4316 -0.794144 0
M  V30 3168 H 296.293 4.9061 -1.31392 0
M  V30 3169 H 296.223 5.24816 0.43305 0
M  V30 3170 H 298.714 3.77785 -0.0932256 0
M  V30 3171 H 299.027 7.68489 -0.815113 0
M  V30 3172 H 297.372 6.91196 -0.726142 0
M  V30 3173 H 300.563 4.67674 -0.199687 0
M  V30 3174 H 300.736 6.4584 -0.528646 0
M  V30 3175 N 294.142 -0.090211 1.57342 0
M  V30 3176 C 295.367 -0.810082 1.90925 0
M  V30 3177 C 295.792 -1.71248 0.778187 0
M  V30 3178 O 295.15 -1.79278 -0.269991 0
M  V30 3179 C 295.198 -1.59529 3.23393 0
M  V30 3180 O 294.302 -2.70461 3.11327 0
M  V30 3181 H 293.643 -0.222231 0.625707 0
M  V30 3182 H 296.173 -0.0639716 2.045 0
M  V30 3183 H 296.183 -1.97847 3.5682 0
M  V30 3184 H 294.858 -0.933055 4.05299 0
M  V30 3185 H 293.435 -2.35135 2.89423 0
M  V30 3186 N 295.62 -1.53406 -0.361157 0
M  V30 3187 C 296.845 -1.74024 -1.12829 0
M  V30 3188 C 297.27 -0.470069 -1.82132 0
M  V30 3189 O 296.628 0.57619 -1.719 0
M  V30 3190 C 296.676 -2.90903 -2.13091 0
M  V30 3191 O 295.78 -2.59821 -3.20261 0
M  V30 3192 H 295.121 -0.577804 -0.327168 0
M  V30 3193 H 297.651 -2.00307 -0.41693 0
M  V30 3194 H 297.661 -3.17194 -2.56616 0
M  V30 3195 H 296.336 -3.83034 -1.62042 0
M  V30 3196 H 294.913 -2.44362 -2.81677 0
M  V30 3197 N 297.098 0.621204 -1.44841 0
M  V30 3198 C 298.514 0.94048 -1.28946 0
M  V30 3199 C 298.714 2.00154 -0.23249 0
M  V30 3200 O 297.77 2.49651 0.378237 0
M  V30 3201 C 299.083 1.39433 -2.66419 0
M  V30 3202 C 300.631 1.50927 -2.74208 0
M  V30 3203 C 301.106 1.99692 -4.12174 0
M  V30 3204 N 302.597 2.06947 -4.144 0
M  V30 3205 C 303.332 2.45871 -5.1801 0
M  V30 3206 N 302.828 2.83862 -6.31977 0
M  V30 3207 N 304.621 2.46092 -5.05366 0
M  V30 3208 H 296.772 -0.0803548 -2.12248 0
M  V30 3209 H 299.035 0.0266913 -0.947624 0
M  V30 3210 H 298.741 0.688925 -3.44887 0
M  V30 3211 H 298.615 2.36347 -2.93973 0
M  V30 3212 H 301.002 2.20561 -1.96053 0
M  V30 3213 H 301.083 0.523627 -2.50383 0
M  V30 3214 H 300.727 1.30649 -4.90809 0
M  V30 3215 H 300.657 2.99146 -4.33381 0
M  V30 3216 H 303.148 1.80232 -3.32152 0
M  V30 3217 H 303.461 3.12405 -7.0684 0
M  V30 3218 H 301.806 2.8159 -6.35399 0
M  V30 3219 H 304.997 2.1581 -4.15384 0
M  V30 3220 H 305.17 2.76102 -5.86235 0
M  V30 3221 N 298.576 1.31904 0.862503 0
M  V30 3222 C 299.801 1.25135 1.65397 0
M  V30 3223 C 300.226 -0.179 1.87246 0
M  V30 3224 O 299.584 -1.1277 1.4196 0
M  V30 3225 C 299.632 2.00832 2.99498 0
M  V30 3226 O 298.736 1.35075 3.89652 0
M  V30 3227 H 298.077 0.431655 0.504549 0
M  V30 3228 H 300.607 1.74094 1.07483 0
M  V30 3229 H 300.617 2.10709 3.49379 0
M  V30 3230 H 299.292 3.04847 2.82916 0
M  V30 3231 H 297.869 1.33696 3.48109 0
M  V30 3232 N 300.054 -1.07777 1.14986 0
M  V30 3233 C 301.004 -2.13082 0.811181 0
M  V30 3234 C 301.988 -1.59619 -0.202597 0
M  V30 3235 O 303.18 -1.77 -0.00398275 0
M  V30 3236 C 300.309 -3.42009 0.297439 0
M  V30 3237 C 299.395 -4.02337 1.34112 0
M  V30 3238 N 299.786 -4.36982 2.54716 0
M  V30 3239 C 298.084 -4.29752 1.19285 0
M  V30 3240 C 298.785 -4.84729 3.21578 0
M  V30 3241 N 297.761 -4.83233 2.48972 0
M  V30 3242 H 301.563 -2.37696 1.72853 0
M  V30 3243 H 299.077 -1.25173 1.03468 0
M  V30 3244 H 301.074 -4.16884 0.0364777 0
M  V30 3245 H 299.734 -3.18841 -0.614022 0
M  V30 3246 H 300.745 -4.27807 2.91894 0
M  V30 3247 H 297.422 -4.16106 0.340926 0
M  V30 3248 H 298.812 -5.20863 4.24442 0
M  V30 3249 N 301.532 -0.945985 -1.26051 0
M  V30 3250 C 302.76 -0.613025 -1.9761 0
M  V30 3251 C 303.175 0.813035 -1.70397 0
M  V30 3252 O 302.532 1.54274 -0.974979 0
M  V30 3253 C 302.583 -0.85159 -3.51326 0
M  V30 3254 O 302.304 -2.22157 -3.77595 0
M  V30 3255 C 303.805 -0.529831 -4.40122 0
M  V30 3256 H 301.025 -0.230593 -0.630133 0
M  V30 3257 H 303.569 -1.268 -1.60443 0
M  V30 3258 H 301.724 -0.243151 -3.86636 0
M  V30 3259 H 302.138 -2.2852 -4.721 0
M  V30 3260 H 303.612 -0.747348 -5.46917 0
M  V30 3261 H 304.089 0.535341 -4.35925 0
M  V30 3262 H 304.695 -1.11721 -4.10364 0
M  V30 3263 N 303.011 1.40521 -0.713556 0
M  V30 3264 C 304.26 2.00155 -0.249192 0
M  V30 3265 C 304.573 1.57224 1.16362 0
M  V30 3266 O 305.779 2.09542 1.72639 0
M  V30 3267 C 304.235 3.5773 -0.3946 0
M  V30 3268 C 303.843 4.09635 -1.81392 0
M  V30 3269 C 305.587 4.24499 0.00907364 0
M  V30 3270 C 303.494 5.59707 -1.91003 0
M  V30 3271 H 302.424 0.74868 -0.0894114 0
M  V30 3272 H 305.075 1.60784 -0.884352 0
M  V30 3273 H 303.457 3.94792 0.30911 0
M  V30 3274 H 304.631 3.83955 -2.54785 0
M  V30 3275 H 302.946 3.55456 -2.16888 0
M  V30 3276 H 305.543 5.34683 -0.0420404 0
M  V30 3277 H 305.886 4.02824 1.05065 0
M  V30 3278 H 306.419 3.92536 -0.645007 0
M  V30 3279 H 303.158 5.86234 -2.93275 0
M  V30 3280 H 302.678 5.87258 -1.22019 0
M  V30 3281 H 304.357 6.24776 -1.6812 0
M  V30 3282 N 304.489 0.459591 1.5075 0
M  V30 3283 C 305.736 -0.0993495 2.02256 0
M  V30 3284 C 306.064 -1.40751 1.34237 0
M  V30 3285 O 305.319 -1.90379 0.453228 0
M  V30 3286 C 305.618 -0.342866 3.55752 0
M  V30 3287 C 305.284 0.88218 4.42186 0
M  V30 3288 C 303.946 1.21808 4.65528 0
M  V30 3289 C 306.298 1.69837 4.92752 0
M  V30 3290 C 303.626 2.37045 5.36681 0
M  V30 3291 C 305.978 2.84192 5.65171 0
M  V30 3292 C 304.642 3.1821 5.8677 0
M  V30 3293 H 303.912 -0.0363545 0.740108 0
M  V30 3294 H 306.559 0.611329 1.8148 0
M  V30 3295 H 304.864 -1.13567 3.7498 0
M  V30 3296 H 306.561 -0.789121 3.93159 0
M  V30 3297 H 303.151 0.610467 4.2423 0
M  V30 3298 H 307.335 1.45205 4.74583 0
M  V30 3299 H 302.591 2.63689 5.51614 0
M  V30 3300 H 306.765 3.4779 6.03337 0
M  V30 3301 H 304.392 4.07613 6.41682 0
M  V30 3302 N 305.967 -1.56429 0.191757 0
M  V30 3303 C 307.383 -1.58754 -0.164137 0
M  V30 3304 C 307.583 -1.20782 -1.61288 0
M  V30 3305 O 306.639 -0.928999 -2.34789 0
M  V30 3306 C 307.952 -3.00396 0.135195 0
M  V30 3307 C 309.5 -3.1291 0.0750351 0
M  V30 3308 C 309.975 -4.56679 0.347632 0
M  V30 3309 N 311.466 -4.62252 0.296131 0
M  V30 3310 C 312.201 -5.71379 0.480948 0
M  V30 3311 N 311.697 -6.88986 0.725933 0
M  V30 3312 N 313.49 -5.60563 0.415435 0
M  V30 3313 H 305.641 -1.79393 1.13718 0
M  V30 3314 H 307.904 -0.832414 0.453643 0
M  V30 3315 H 307.61 -3.32726 1.13958 0
M  V30 3316 H 307.484 -3.72963 -0.563773 0
M  V30 3317 H 309.871 -2.80394 -0.919948 0
M  V30 3318 H 309.952 -2.42736 0.807029 0
M  V30 3319 H 309.596 -4.89907 1.33992 0
M  V30 3320 H 309.526 -5.25039 -0.405212 0
M  V30 3321 H 312.017 -3.7773 0.113259 0
M  V30 3322 H 312.33 -7.68046 0.855857 0
M  V30 3323 H 310.675 -6.90801 0.762788 0
M  V30 3324 H 313.866 -4.67561 0.224486 0
M  V30 3325 H 314.039 -6.45551 0.562889 0
M  V30 3326 N 307.445 0.0818655 -1.57387 0
M  V30 3327 C 308.378 1.12986 -1.98266 0
M  V30 3328 C 309.356 1.38123 -0.857954 0
M  V30 3329 O 310.54 1.51663 -1.1194 0
M  V30 3330 C 307.667 2.47632 -2.31076 0
M  V30 3331 C 306.713 2.38693 -3.53452 0
M  V30 3332 S 307.546 1.79071 -5.04672 0
M  V30 3333 C 308.702 3.15316 -5.40673 0
M  V30 3334 H 308.935 0.781435 -2.86846 0
M  V30 3335 H 306.468 0.290034 -1.51651 0
M  V30 3336 H 308.426 3.25089 -2.50654 0
M  V30 3337 H 307.087 2.79638 -1.43043 0
M  V30 3338 H 306.28 3.37964 -3.73893 0
M  V30 3339 H 305.882 1.69369 -3.33452 0
M  V30 3340 H 308.174 4.11613 -5.38127 0
M  V30 3341 H 309.117 2.99664 -6.41566 0
M  V30 3342 H 309.525 3.15457 -4.68132 0
M  V30 3343 N 308.923 1.53595 0.353017 0
M  V30 3344 C 310.172 1.69603 1.09168 0
M  V30 3345 C 310.485 0.460925 1.90092 0
M  V30 3346 O 311.691 0.501774 2.66823 0
M  V30 3347 C 310.147 2.99872 1.9901 0
M  V30 3348 C 309.755 4.30687 1.23339 0
M  V30 3349 C 311.499 3.25246 2.72792 0
M  V30 3350 C 309.406 5.52036 2.12156 0
M  V30 3351 H 308.336 0.631966 0.411261 0
M  V30 3352 H 310.987 1.80096 0.351802 0
M  V30 3353 H 309.369 2.83212 2.7678 0
M  V30 3354 H 310.543 4.58019 0.505456 0
M  V30 3355 H 308.858 4.11853 0.613663 0
M  V30 3356 H 311.455 4.13095 3.39495 0
M  V30 3357 H 311.798 2.41846 3.38846 0
M  V30 3358 H 312.331 3.42638 2.021 0
M  V30 3359 H 309.07 6.37951 1.50659 0
M  V30 3360 H 308.59 5.28966 2.82764 0
M  V30 3361 H 310.269 5.87313 2.71427 0
M  V30 3362 N 310.401 -0.613514 1.45168 0
M  V30 3363 C 311.331 -1.7354 1.56225 0
M  V30 3364 C 312.312 -1.64981 0.41414 0
M  V30 3365 O 313.497 -1.83472 0.636526 0
M  V30 3366 C 310.627 -3.12128 1.52295 0
M  V30 3367 C 309.581 -3.35491 2.65762 0
M  V30 3368 C 308.907 -4.74291 2.46885 0
M  V30 3369 C 310.207 -3.26325 4.0781 0
M  V30 3370 H 311.901 -1.64543 2.50132 0
M  V30 3371 H 309.447 -0.790185 1.20383 0
M  V30 3372 H 311.4 -3.90404 1.58628 0
M  V30 3373 H 310.124 -3.2195 0.549139 0
M  V30 3374 H 308.783 -2.59603 2.58847 0
M  V30 3375 H 308.431 -4.80839 1.47657 0
M  V30 3376 H 308.131 -4.9088 3.22972 0
M  V30 3377 H 309.655 -5.54775 2.55063 0
M  V30 3378 H 311.069 -3.94483 4.16 0
M  V30 3379 H 309.466 -3.54445 4.8424 0
M  V30 3380 H 310.536 -2.23855 4.30136 0
M  V30 3381 N 311.879 -1.3236 -0.855495 0
M  V30 3382 C 312.789 -1.23221 -1.99634 0
M  V30 3383 C 313.805 -0.145983 -1.73387 0
M  V30 3384 O 314.981 -0.366502 -1.98037 0
M  V30 3385 C 312.046 -0.954782 -3.33294 0
M  V30 3386 C 311.107 -2.12937 -3.72769 0
M  V30 3387 C 310.34 -1.86508 -5.00051 0
M  V30 3388 O 310.563 -0.807231 -5.64659 0
M  V30 3389 O 309.497 -2.72591 -5.36636 0
M  V30 3390 H 313.323 -2.19126 -2.1028 0
M  V30 3391 H 310.908 -1.12241 -0.986018 0
M  V30 3392 H 312.79 -0.816519 -4.13414 0
M  V30 3393 H 311.465 -0.0258854 -3.2369 0
M  V30 3394 H 310.372 -2.3231 -2.93228 0
M  V30 3395 H 311.705 -3.04102 -3.87018 0
M  V30 3396 N 313.357 1.07166 -1.15556 0
M  V30 3397 C 314.582 1.84053 -0.955988 0
M  V30 3398 C 315.007 1.81586 0.490739 0
M  V30 3399 O 314.365 1.21018 1.34997 0
M  V30 3400 C 314.413 3.28957 -1.47714 0
M  V30 3401 O 313.517 4.06795 -0.677593 0
M  V30 3402 H 312.858 0.569842 -0.340847 0
M  V30 3403 H 315.388 1.35178 -1.53584 0
M  V30 3404 H 315.398 3.79788 -1.4908 0
M  V30 3405 H 314.073 3.30068 -2.53037 0
M  V30 3406 H 312.65 3.6561 -0.733721 0
M  V30 3407 N 314.835 0.952656 1.25548 0
M  V30 3408 C 316.251 0.656769 1.4546 0
M  V30 3409 C 316.451 -0.78633 1.85524 0
M  V30 3410 O 315.507 -1.56183 1.98402 0
M  V30 3411 C 316.82 1.62801 2.52817 0
M  V30 3412 C 318.368 1.63897 2.66659 0
M  V30 3413 C 318.843 2.5978 3.77198 0
M  V30 3414 N 320.334 2.58133 3.84606 0
M  V30 3415 C 321.069 3.29003 4.69621 0
M  V30 3416 N 320.565 4.09339 5.58939 0
M  V30 3417 N 322.358 3.179 4.63569 0
M  V30 3418 H 314.509 1.88526 0.978344 0
M  V30 3419 H 316.772 0.810815 0.491206 0
M  V30 3420 H 316.478 2.65869 2.30232 0
M  V30 3421 H 316.352 1.38898 3.50695 0
M  V30 3422 H 318.739 0.615481 2.8861 0
M  V30 3423 H 318.82 1.91858 1.69187 0
M  V30 3424 H 318.464 3.62254 3.55997 0
M  V30 3425 H 318.394 2.29105 4.7415 0
M  V30 3426 H 320.885 1.99809 3.20757 0
M  V30 3427 H 321.198 4.6034 6.20731 0
M  V30 3428 H 319.543 4.13438 5.58654 0
M  V30 3429 H 322.734 2.54612 3.92798 0
M  V30 3430 H 322.907 3.73398 5.29602 0
M  V30 3431 N 316.313 -1.40141 0.720998 0
M  V30 3432 C 317.223 -2.34486 0.0731031 0
M  V30 3433 C 318.239 -1.57587 -0.737723 0
M  V30 3434 O 319.415 -1.89949 -0.669429 0
M  V30 3435 C 316.48 -3.36528 -0.833656 0
M  V30 3436 C 315.541 -4.29298 -0.0121673 0
M  V30 3437 C 314.774 -5.26466 -0.875742 0
M  V30 3438 O 314.997 -5.29745 -2.11485 0
M  V30 3439 O 313.931 -6.01092 -0.31185 0
M  V30 3440 H 317.757 -2.9152 0.851444 0
M  V30 3441 H 315.342 -1.41427 0.481527 0
M  V30 3442 H 317.224 -3.99093 -1.35289 0
M  V30 3443 H 315.899 -2.81899 -1.59105 0
M  V30 3444 H 314.806 -3.70001 0.552262 0
M  V30 3445 H 316.139 -4.87094 0.707129 0
M  V30 3446 N 317.792 -0.46758 -1.50504 0
M  V30 3447 C 318.739 0.328413 -2.28452 0
M  V30 3448 C 319.709 0.990313 -1.33349 0
M  V30 3449 O 320.894 1.00343 -1.62284 0
M  V30 3450 C 318.034 1.40648 -3.15138 0
M  V30 3451 C 317.147 0.759709 -4.25267 0
M  V30 3452 C 316.282 1.81537 -4.99217 0
M  V30 3453 C 315.321 1.14866 -6.01226 0
M  V30 3454 N 314.458 2.14702 -6.68467 0
M  V30 3455 H 319.298 -0.342603 -2.96024 0
M  V30 3456 H 316.835 -0.180801 -1.45985 0
M  V30 3457 H 318.793 2.04315 -3.63746 0
M  V30 3458 H 317.423 2.04671 -2.49619 0
M  V30 3459 H 316.475 0.0105671 -3.80399 0
M  V30 3460 H 317.787 0.233243 -4.98254 0
M  V30 3461 H 316.941 2.52793 -5.51526 0
M  V30 3462 H 315.68 2.37564 -4.25928 0
M  V30 3463 H 314.685 0.42171 -5.4818 0
M  V30 3464 H 315.91 0.595334 -6.76485 0
M  V30 3465 H 313.856 2.69752 -5.97972 0
M  V30 3466 H 313.773 1.6703 -7.37317 0
M  V30 3467 H 315.041 2.85348 -7.25394 0
M  V30 3468 N 319.27 1.56325 -0.20005 0
M  V30 3469 C 320.518 1.97329 0.436547 0
M  V30 3470 C 320.839 1.08826 1.61808 0
M  V30 3471 O 320.109 0.160604 1.95241 0
M  V30 3472 H 318.689 0.728714 0.164272 0
M  V30 3473 H 321.351 1.92761 -0.287937 0
M  V30 3474 H 320.447 3.02264 0.777353 0
M  V30 3475 N 320.748 -0.0735177 1.57428 0
M  V30 3476 C 321.658 -1.10547 2.06922 0
M  V30 3477 C 322.674 -1.42506 0.998402 0
M  V30 3478 O 323.85 -1.52717 1.31299 0
M  V30 3479 C 320.915 -2.40019 2.50184 0
M  V30 3480 C 319.976 -2.15046 3.71556 0
M  V30 3481 C 319.209 -3.38345 4.12745 0
M  V30 3482 O 319.432 -4.47399 3.53822 0
M  V30 3483 O 318.366 -3.2666 5.05546 0
M  V30 3484 H 322.192 -0.715013 2.95163 0
M  V30 3485 H 319.777 -0.287531 1.46607 0
M  V30 3486 H 321.659 -3.16218 2.78539 0
M  V30 3487 H 320.334 -2.78447 1.65072 0
M  V30 3488 H 319.241 -1.36558 3.48285 0
M  V30 3489 H 320.574 -1.81499 4.57514 0
M  V30 3490 N 322.226 -1.5378 -0.344866 0
M  V30 3491 C 323.637 -1.62428 -0.920552 0
M  V30 3492 C 323.988 -0.504747 -1.89596 0
M  V30 3493 O 323.113 0.365711 -2.13287 0
M  V30 3494 C 323.708 -2.94419 -1.67639 0
M  V30 3495 C 322.267 -3.05333 -2.20111 0
M  V30 3496 C 321.414 -2.57866 -1.01982 0
M  V30 3497 H 324.365 -1.58222 -0.123042 0
M  V30 3498 H 324.386 -2.83384 -2.53917 0
M  V30 3499 H 323.898 -3.7588 -0.966224 0
M  V30 3500 H 321.999 -2.28502 -2.94308 0
M  V30 3501 H 322.112 -4.10778 -2.46573 0
M  V30 3502 H 320.476 -2.13241 -1.39285 0
M  V30 3503 H 321.259 -3.41765 -0.324308 0
M  V30 3504 N 323.704 0.605807 -1.45491 0
M  V30 3505 C 324.929 1.39625 -1.53361 0
M  V30 3506 C 325.354 1.87351 -0.167645 0
M  V30 3507 O 324.712 1.60243 0.848051 0
M  V30 3508 C 324.76 2.57559 -2.5238 0
M  V30 3509 O 323.864 3.58248 -2.04285 0
M  V30 3510 H 323.205 0.416771 -0.516912 0
M  V30 3511 H 325.735 0.737103 -1.90861 0
M  V30 3512 H 325.745 3.0478 -2.71244 0
M  V30 3513 H 324.42 2.22171 -3.51586 0
M  V30 3514 H 322.997 3.17664 -1.95305 0
M  V30 3515 N 325.182 1.32811 0.848464 0
M  V30 3516 C 326.13 1.22231 1.97895 0
M  V30 3517 C 327.124 0.125749 1.68933 0
M  V30 3518 O 328.33 0.289083 1.77663 0
M  V30 3519 H 324.705 0.379058 0.649476 0
M  V30 3520 H 326.676 2.17828 2.03945 0
M  V30 3521 C 325.425 0.968572 3.33937 0
M  V30 3522 H 324.748 1.80458 3.56756 0
M  V30 3523 H 326.188 0.934808 4.13567 0
M  V30 3524 C 324.647 -0.328628 3.35293 0
M  V30 3525 O 325.177 -1.33848 3.78745 0
M  V30 3526 N 323.383 -0.352788 2.88451 0
M  V30 3527 H 322.93 0.469541 2.53285 0
M  V30 3528 H 322.888 -1.22057 2.89741 0
M  V30 3529 N 326.66 -1.06551 1.16123 0
M  V30 3530 C 327.9 -1.80889 0.951766 0
M  V30 3531 C 328.264 -1.85062 -0.511465 0
M  V30 3532 O 329.465 -2.55353 -0.83954 0
M  V30 3533 C 327.736 -3.21609 1.55893 0
M  V30 3534 S 329.295 -4.12593 1.49373 0
M  V30 3535 H 326.113 -0.623156 0.342341 0
M  V30 3536 H 328.715 -1.27943 1.47821 0
M  V30 3537 H 327.419 -3.16165 2.61664 0
M  V30 3538 H 326.95 -3.79631 1.0317 0
M  V30 3539 H 328.965 -4.93753 0.492196 0
M  V30 3540 N 328.138 -0.959301 -1.25041 0
M  V30 3541 C 329.048 -0.489994 -2.29426 0
M  V30 3542 C 330.064 0.444944 -1.68215 0
M  V30 3543 O 331.24 0.320046 -1.98841 0
M  V30 3544 C 328.305 0.220309 -3.45999 0
M  V30 3545 C 327.366 -0.753418 -4.22637 0
M  V30 3546 C 326.599 -0.076918 -5.33645 0
M  V30 3547 O 326.822 1.13649 -5.58963 0
M  V30 3548 O 325.756 -0.764824 -5.97021 0
M  V30 3549 H 329.582 -1.35755 -2.71669 0
M  V30 3550 H 327.167 -0.725961 -1.30576 0
M  V30 3551 H 329.049 0.619677 -4.16819 0
M  V30 3552 H 327.724 1.06296 -3.0575 0
M  V30 3553 H 326.631 -1.20308 -3.54227 0
M  V30 3554 H 327.964 -1.56423 -4.66683 0
M  V30 3555 N 329.616 1.39756 -0.72842 0
M  V30 3556 C 330.864 2.00248 -0.272946 0
M  V30 3557 C 331.185 1.58077 1.14178 0
M  V30 3558 O 330.455 0.826014 1.77634 0
M  V30 3559 H 329.035 0.740554 -0.0979247 0
M  V30 3560 H 331.697 1.70903 -0.936912 0
M  V30 3561 H 330.793 3.10495 -0.316142 0
M  V30 3562 N 331.094 0.475555 1.50254 0
M  V30 3563 C 332.319 -0.0777042 2.07254 0
M  V30 3564 C 332.744 -1.3235 1.3366 0
M  V30 3565 O 332.102 -1.77152 0.385597 0
M  V30 3566 C 332.15 -0.340169 3.58992 0
M  V30 3567 O 331.254 -1.41982 3.87188 0
M  V30 3568 H 330.595 0.0149556 0.663832 0
M  V30 3569 H 333.125 0.667878 1.93392 0
M  V30 3570 H 333.135 -0.579332 4.03866 0
M  V30 3571 H 331.81 0.570167 4.11973 0
M  V30 3572 H 330.387 -1.16762 3.54148 0
M  V30 3573 N 332.573 -1.56217 0.208337 0
M  V30 3574 C 333.819 -1.98242 -0.427552 0
M  V30 3575 C 334.152 -1.09554 -1.60348 0
M  V30 3576 O 333.427 -0.15035 -1.93918 0
M  V30 3577 C 333.71 -3.4931 -0.874907 0
M  V30 3578 C 333.563 -4.48773 0.303751 0
M  V30 3579 C 334.882 -4.04424 -1.73577 0
M  V30 3580 H 332.001 -0.720744 -0.153936 0
M  V30 3581 H 334.643 -1.87586 0.30192 0
M  V30 3582 H 332.793 -3.58522 -1.49648 0
M  V30 3583 H 334.465 -4.51586 0.941682 0
M  V30 3584 H 332.708 -4.23194 0.953375 0
M  V30 3585 H 333.379 -5.51976 -0.0519883 0
M  V30 3586 H 335.855 -3.98075 -1.21143 0
M  V30 3587 H 334.731 -5.1047 -2.01771 0
M  V30 3588 H 334.992 -3.50494 -2.69456 0
M  V30 3589 N 334.051 0.0651679 -1.57465 0
M  V30 3590 C 334.998 1.07675 -2.04144 0
M  V30 3591 C 335.968 1.38071 -0.923335 0
M  V30 3592 O 337.153 1.49026 -1.19146 0
M  V30 3593 C 334.293 2.38337 -2.49579 0
M  V30 3594 C 333.406 2.14413 -3.75035 0
M  V30 3595 C 332.541 3.38686 -4.09225 0
M  V30 3596 C 331.58 3.10156 -5.27702 0
M  V30 3597 N 330.717 4.26778 -5.57499 0
M  V30 3598 H 335.557 0.671716 -2.90331 0
M  V30 3599 H 333.094 0.3201 -1.43575 0
M  V30 3600 H 335.052 3.14632 -2.73975 0
M  V30 3601 H 333.682 2.7663 -1.6636 0
M  V30 3602 H 332.734 1.2878 -3.57939 0
M  V30 3603 H 334.046 1.89344 -4.61466 0
M  V30 3604 H 333.2 4.23373 -4.34558 0
M  V30 3605 H 331.939 3.66837 -3.21374 0
M  V30 3606 H 330.944 2.23866 -5.02159 0
M  V30 3607 H 332.169 2.8332 -6.17176 0
M  V30 3608 H 330.115 4.54948 -4.72608 0
M  V30 3609 H 330.032 4.05005 -6.38362 0
M  V30 3610 H 331.3 5.12443 -5.87386 0
M  V30 3611 N 335.529 1.53961 0.336706 0
M  V30 3612 C 336.775 1.7179 1.07777 0
M  V30 3613 C 337.108 0.483263 1.88091 0
M  V30 3614 O 336.383 -0.519747 1.87427 0
M  V30 3615 C 336.666 2.98558 2.01334 0
M  V30 3616 C 336.519 4.32245 1.24437 0
M  V30 3617 C 337.838 3.21023 3.01052 0
M  V30 3618 H 334.957 0.625089 0.390426 0
M  V30 3619 H 337.599 1.86641 0.35567 0
M  V30 3620 H 335.749 2.86028 2.62908 0
M  V30 3621 H 337.421 4.56637 0.654243 0
M  V30 3622 H 335.664 4.30344 0.546458 0
M  V30 3623 H 336.335 5.17137 1.93063 0
M  V30 3624 H 338.811 3.32929 2.49595 0
M  V30 3625 H 337.687 4.11104 3.6371 0
M  V30 3626 H 337.948 2.37637 3.72802 0
M  V30 3627 N 337.007 -0.598083 1.45811 0
M  V30 3628 C 338.232 -1.3881 1.54099 0
M  V30 3629 C 338.657 -1.8726 0.177578 0
M  V30 3630 O 338.015 -1.6069 -0.839541 0
M  V30 3631 C 338.063 -2.56217 2.53743 0
M  V30 3632 O 337.167 -3.5716 2.06182 0
M  V30 3633 H 336.508 -0.414024 0.519115 0
M  V30 3634 H 339.038 -0.726971 1.91249 0
M  V30 3635 H 339.048 -3.03337 2.72856 0
M  V30 3636 H 337.723 -2.20303 3.5276 0
M  V30 3637 H 336.3 -3.16624 1.96987 0
M  V30 3638 N 338.485 -1.33259 -0.841409 0
M  V30 3639 C 339.435 -1.19872 -1.93945 0
M  V30 3640 C 340.419 -0.102269 -1.60575 0
M  V30 3641 O 341.611 -0.330114 -1.73894 0
M  V30 3642 C 338.74 -0.937517 -3.30251 0
M  V30 3643 C 337.826 -2.07629 -3.69799 0
M  V30 3644 N 338.217 -3.32604 -3.81062 0
M  V30 3645 C 336.515 -1.98242 -3.9952 0
M  V30 3646 C 337.216 -4.07275 -4.15333 0
M  V30 3647 N 336.192 -3.35691 -4.27566 0
M  V30 3648 H 339.994 -2.14604 -2.00805 0
M  V30 3649 H 337.508 -1.2523 -1.03398 0
M  V30 3650 H 339.505 -0.822545 -4.08705 0
M  V30 3651 H 338.165 0.00128798 -3.247 0
M  V30 3652 H 339.176 -3.67382 -3.65035 0
M  V30 3653 H 335.853 -1.12005 -4.02195 0
M  V30 3654 H 337.243 -5.1511 -4.31406 0
M  V30 3655 N 339.963 1.05934 -1.16686 0
M  V30 3656 C 340.893 2.1546 -0.899949 0
M  V30 3657 C 341.874 1.69391 0.155154 0
M  V30 3658 O 343.059 1.94199 0.00648693 0
M  V30 3659 C 340.189 3.44939 -0.404241 0
M  V30 3660 C 339.143 4.04536 -1.39767 0
M  V30 3661 C 338.469 5.29268 -0.760216 0
M  V30 3662 C 339.769 4.42893 -2.76845 0
M  V30 3663 H 341.463 2.38046 -1.81588 0
M  V30 3664 H 339.009 1.14404 -0.874514 0
M  V30 3665 H 340.962 4.20901 -0.204971 0
M  V30 3666 H 339.686 3.21983 0.547206 0
M  V30 3667 H 338.345 3.30635 -1.58355 0
M  V30 3668 H 337.993 5.02611 0.197831 0
M  V30 3669 H 337.693 5.70101 -1.42332 0
M  V30 3670 H 339.217 6.07924 -0.57105 0
M  V30 3671 H 340.631 5.09921 -2.62019 0
M  V30 3672 H 339.028 4.94721 -3.39663 0
M  V30 3673 H 340.098 3.53584 -3.31823 0
M  V30 3674 N 341.441 0.965919 1.2453 0
M  V30 3675 C 342.389 0.486506 2.27455 0
M  V30 3676 C 343.383 -0.449041 1.6334 0
M  V30 3677 O 344.589 -0.324527 1.7705 0
M  V30 3678 H 340.964 0.138857 0.739069 0
M  V30 3679 H 342.935 1.3666 2.65267 0
M  V30 3680 C 341.684 -0.209481 3.47068 0
M  V30 3681 H 341.007 0.50129 3.96645 0
M  V30 3682 H 342.447 -0.508775 4.20936 0
M  V30 3683 C 340.906 -1.43586 3.0477 0
M  V30 3684 O 341.436 -2.53299 3.11773 0
M  V30 3685 N 339.642 -1.30126 2.59838 0
M  V30 3686 H 339.189 -0.408583 2.54339 0
M  V30 3687 H 339.147 -2.12294 2.31902 0
M  V30 3688 N 342.919 -1.39368 0.735821 0
M  V30 3689 C 343.849 -2.33234 0.111506 0
M  V30 3690 C 344.83 -1.53954 -0.723334 0
M  V30 3691 O 346.015 -1.82344 -0.668147 0
M  V30 3692 C 343.145 -3.38057 -0.795917 0
M  V30 3693 C 342.099 -4.2795 -0.065172 0
M  V30 3694 C 341.425 -5.23479 -1.08967 0
M  V30 3695 C 342.725 -5.10741 1.09273 0
M  V30 3696 H 344.419 -2.85692 0.895571 0
M  V30 3697 H 341.965 -1.37364 0.432109 0
M  V30 3698 H 343.918 -4.02675 -1.24221 0
M  V30 3699 H 342.642 -2.8404 -1.61211 0
M  V30 3700 H 341.301 -3.64813 0.361511 0
M  V30 3701 H 340.949 -4.65758 -1.89944 0
M  V30 3702 H 340.649 -5.84472 -0.605489 0
M  V30 3703 H 342.173 -5.90974 -1.53565 0
M  V30 3704 H 343.587 -5.68699 0.724841 0
M  V30 3705 H 341.984 -5.8088 1.50659 0
M  V30 3706 H 343.054 -4.45525 1.91404 0
M  V30 3707 N 344.397 -0.483516 -1.5 0
M  V30 3708 C 345.643 0.0672592 -2.02688 0
M  V30 3709 C 345.976 1.38247 -1.36387 0
M  V30 3710 O 345.251 1.88131 -0.493675 0
M  V30 3711 C 345.534 0.238109 -3.59312 0
M  V30 3712 C 345.387 -1.099 -4.36168 0
M  V30 3713 C 346.706 0.986916 -4.28892 0
M  V30 3714 H 343.825 0.0229696 -0.736642 0
M  V30 3715 H 346.467 -0.631527 -1.79197 0
M  V30 3716 H 344.617 0.8333 -3.79458 0
M  V30 3717 H 346.289 -1.73172 -4.27562 0
M  V30 3718 H 344.532 -1.69261 -3.99416 0
M  V30 3719 H 345.203 -0.932954 -5.44059 0
M  V30 3720 H 347.679 0.482302 -4.13295 0
M  V30 3721 H 346.555 1.07527 -5.38265 0
M  V30 3722 H 346.816 2.0265 -3.92919 0
M  V30 3723 N 345.875 1.56104 -0.216619 0
M  V30 3724 C 347.152 1.89988 0.465165 0
M  V30 3725 C 347.532 1.13326 1.78102 0
M  V30 3726 O 346.88 0.241033 2.27225 0
M  V30 3727 C 347.09 3.42646 0.662939 0
M  V30 3728 C 348.438 4.13311 0.972602 0
M  V30 3729 O 349.462 3.48217 0.749901 0
M  V30 3730 O 348.321 5.28396 1.39499 0
M  V30 3731 H 345.415 0.78979 0.245276 0
M  V30 3732 H 347.961 1.67721 -0.258436 0
M  V30 3733 H 346.733 3.90399 -0.26543 0
M  V30 3734 H 346.356 3.70677 1.43821 0
M  V30 3735 N 347.353 -0.0568162 1.57498 0
M  V30 3736 C 348.283 -1.06593 2.0775 0
M  V30 3737 C 349.264 -1.39448 0.974082 0
M  V30 3738 O 350.449 -1.48815 1.24771 0
M  V30 3739 C 347.579 -2.37509 2.5339 0
M  V30 3740 C 346.533 -2.1897 3.67745 0
M  V30 3741 C 345.859 -3.55402 3.99492 0
M  V30 3742 C 347.159 -1.59859 4.97235 0
M  V30 3743 H 348.853 -0.647706 2.9231 0
M  V30 3744 H 346.399 -0.310116 1.40621 0
M  V30 3745 H 348.352 -3.08409 2.87162 0
M  V30 3746 H 347.076 -2.8134 1.65878 0
M  V30 3747 H 345.735 -1.50508 3.3428 0
M  V30 3748 H 345.383 -3.9683 3.09088 0
M  V30 3749 H 345.083 -3.43831 4.76502 0
M  V30 3750 H 346.607 -4.27708 4.35773 0
M  V30 3751 H 348.021 -2.20642 5.29141 0
M  V30 3752 H 346.418 -1.58942 5.78669 0
M  V30 3753 H 347.488 -0.561506 4.81638 0
M  V30 3754 N 348.832 -1.54138 -0.328536 0
M  V30 3755 C 349.795 -1.82462 -1.38709 0
M  V30 3756 C 350.795 -0.696229 -1.44946 0
M  V30 3757 O 351.985 -0.964535 -1.4506 0
M  V30 3758 C 349.117 -1.98018 -2.77492 0
M  V30 3759 H 350.31 -2.77037 -1.14851 0
M  V30 3760 H 347.863 -1.45779 -0.563751 0
M  V30 3761 H 348.598 -1.05637 -3.06613 0
M  V30 3762 H 348.383 -2.80124 -2.74359 0
M  V30 3763 H 349.873 -2.21396 -3.54081 0
M  V30 3764 N 350.31 0.590341 -1.46126 0
M  V30 3765 C 351.558 1.34616 -1.50742 0
M  V30 3766 C 351.879 1.94363 -0.157486 0
M  V30 3767 O 351.149 1.78136 0.815136 0
M  V30 3768 H 349.729 0.499789 -0.555175 0
M  V30 3769 H 352.391 0.691953 -1.82203 0
M  V30 3770 H 351.487 2.15678 -2.25587 0
M  V30 3771 N 351.788 1.33704 0.83433 0
M  V30 3772 C 353.013 1.28615 1.62705 0
M  V30 3773 C 353.438 -0.139242 1.87584 0
M  V30 3774 O 352.796 -1.09734 1.4432 0
M  V30 3775 C 352.844 2.07139 2.95171 0
M  V30 3776 O 351.948 1.4331 3.86699 0
M  V30 3777 H 351.289 0.44226 0.49528 0
M  V30 3778 H 353.819 1.76335 1.03766 0
M  V30 3779 H 353.829 2.18073 3.44831 0
M  V30 3780 H 352.504 3.10779 2.76386 0
M  V30 3781 H 351.081 1.4105 3.45195 0
M  V30 3782 N 353.266 -1.05314 1.17247 0
M  V30 3783 C 354.176 -2.16538 0.90268 0
M  V30 3784 C 355.192 -1.73523 -0.128707 0
M  V30 3785 O 356.368 -2.01337 0.0502701 0
M  V30 3786 C 353.433 -3.44167 0.418356 0
M  V30 3787 C 352.494 -4.01635 1.51618 0
M  V30 3788 C 351.727 -5.23171 1.05487 0
M  V30 3789 O 351.95 -5.70327 -0.0914715 0
M  V30 3790 O 350.884 -5.72848 1.8474 0
M  V30 3791 H 354.71 -2.42145 1.83302 0
M  V30 3792 H 352.295 -1.15037 0.953246 0
M  V30 3793 H 354.177 -4.21112 0.155726 0
M  V30 3794 H 352.852 -3.20063 -0.48385 0
M  V30 3795 H 351.759 -3.26135 1.83268 0
M  V30 3796 H 353.092 -4.30053 2.39405 0
M  V30 3797 N 354.744 -0.972509 -1.24016 0
M  V30 3798 C 356.16 -0.679827 -1.44397 0
M  V30 3799 C 356.36 0.756716 -1.86751 0
M  V30 3800 O 355.416 1.53007 -2.00861 0
M  V30 3801 C 356.729 -1.66803 -2.50195 0
M  V30 3802 C 358.277 -1.68119 -2.64017 0
M  V30 3803 C 358.752 -2.65748 -3.73017 0
M  V30 3804 N 360.243 -2.64219 -3.8045 0
M  V30 3805 C 360.978 -3.36433 -4.64328 0
M  V30 3806 N 360.474 -4.1818 -5.52356 0
M  V30 3807 N 362.267 -3.25235 -4.58453 0
M  V30 3808 H 354.418 -1.90059 -0.948228 0
M  V30 3809 H 356.681 -0.818527 -0.478245 0
M  V30 3810 H 356.387 -2.69498 -2.25973 0
M  V30 3811 H 356.261 -1.4446 -3.48441 0
M  V30 3812 H 358.648 -0.661319 -2.87594 0
M  V30 3813 H 358.729 -1.94525 -1.66113 0
M  V30 3814 H 358.373 -3.67872 -3.50189 0
M  V30 3815 H 358.303 -2.36619 -4.70446 0
M  V30 3816 H 360.794 -2.04887 -3.17537 0
M  V30 3817 H 361.107 -4.70157 -6.13329 0
M  V30 3818 H 359.452 -4.22273 -5.52006 0
M  V30 3819 H 362.643 -2.60829 -3.88698 0
M  V30 3820 H 362.816 -3.81776 -5.23594 0
M  V30 3821 N 356.222 1.38976 -0.743202 0
M  V30 3822 C 357.185 2.28901 -0.117014 0
M  V30 3823 C 358.185 1.46698 0.658503 0
M  V30 3824 O 359.375 1.67274 0.486305 0
M  V30 3825 C 356.507 3.30309 0.84315 0
M  V30 3826 H 357.7 2.8578 -0.909373 0
M  V30 3827 H 355.253 1.47761 -0.509547 0
M  V30 3828 H 355.988 2.785 1.66157 0
M  V30 3829 H 355.773 3.91029 0.289594 0
M  V30 3830 H 357.263 3.97577 1.2776 0
M  V30 3831 N 357.7 0.491464 1.49741 0
M  V30 3832 C 358.663 -0.280906 2.27472 0
M  V30 3833 C 359.663 -0.902454 1.33088 0
M  V30 3834 O 360.853 -0.768465 1.56334 0
M  V30 3835 C 357.985 -1.40209 3.10732 0
M  V30 3836 H 359.178 0.401056 2.97206 0
M  V30 3837 H 356.731 0.246131 1.5435 0
M  V30 3838 H 357.466 -2.11849 2.45541 0
M  V30 3839 H 357.251 -0.961969 3.80117 0
M  V30 3840 H 358.741 -1.9464 3.69466 0
M  V30 3841 N 359.178 -1.55987 0.224894 0
M  V30 3842 C 360.11 -2.17722 -0.716224 0
M  V30 3843 C 361.123 -1.14723 -1.15509 0
M  V30 3844 O 362.312 -1.41688 -1.08567 0
M  V30 3845 C 359.412 -2.74873 -1.98238 0
M  V30 3846 C 358.585 -4.03074 -1.69853 0
M  V30 3847 C 357.644 -4.44757 -2.81208 0
M  V30 3848 O 356.67 -5.11587 -2.49534 0
M  V30 3849 N 357.872 -4.10716 -4.10235 0
M  V30 3850 H 360.637 -2.99109 -0.188123 0
M  V30 3851 H 358.198 -1.6184 0.0440123 0
M  V30 3852 H 360.19 -2.99727 -2.7193 0
M  V30 3853 H 358.76 -1.9777 -2.42086 0
M  V30 3854 H 357.98 -3.86041 -0.797875 0
M  V30 3855 H 359.268 -4.86701 -1.48324 0
M  V30 3856 H 358.666 -3.57019 -4.38809 0
M  V30 3857 H 357.223 -4.40455 -4.80461 0
M  V30 3858 N 360.656 0.0484629 -1.57525 0
M  V30 3859 C 361.884 0.755421 -1.92616 0
M  V30 3860 C 362.299 1.69919 -0.822984 0
M  V30 3861 O 361.656 1.81378 0.202085 0
M  V30 3862 C 361.707 1.52915 -3.27566 0
M  V30 3863 O 361.428 0.62329 -4.33644 0
M  V30 3864 C 362.929 2.33502 -3.76818 0
M  V30 3865 H 360.149 0.213465 -0.63614 0
M  V30 3866 H 362.693 0.0117698 -2.04497 0
M  V30 3867 H 360.848 2.22486 -3.17142 0
M  V30 3868 H 361.262 1.16383 -5.11425 0
M  V30 3869 H 362.736 2.83214 -4.73808 0
M  V30 3870 H 363.213 3.14068 -3.07014 0
M  V30 3871 H 363.819 1.69043 -3.90262 0
M  V30 3872 N 362.134 1.5431 0.320358 0
M  V30 3873 C 363.382 1.72327 1.05583 0
M  V30 3874 C 363.703 0.50149 1.88441 0
M  V30 3875 O 362.973 -0.48448 1.89815 0
M  V30 3876 H 361.553 0.635387 0.3928 0
M  V30 3877 H 364.215 1.91621 0.356019 0
M  V30 3878 H 363.311 2.60426 1.72003 0
M  V30 3879 N 363.613 -0.582584 1.46437 0
M  V30 3880 C 364.576 -1.67366 1.56592 0
M  V30 3881 C 365.576 -1.54575 0.443072 0
M  V30 3882 O 366.766 -1.59191 0.707381 0
M  V30 3883 C 363.898 -3.06791 1.48634 0
M  V30 3884 H 365.091 -1.5972 2.5383 0
M  V30 3885 H 362.644 -0.800432 1.34249 0
M  V30 3886 H 363.379 -3.19993 0.526763 0
M  V30 3887 H 363.164 -3.17484 2.30101 0
M  V30 3888 H 364.654 -3.86218 1.58826 0
M  V30 3889 N 365.091 -1.34144 -0.827227 0
M  V30 3890 C 366.054 -1.25264 -1.91942 0
M  V30 3891 C 367.054 -0.168866 -1.59911 0
M  V30 3892 O 368.244 -0.421198 -1.69031 0
M  V30 3893 C 365.376 -0.932952 -3.27885 0
M  V30 3894 H 366.569 -2.22357 -2.0124 0
M  V30 3895 H 364.122 -1.1837 -1.0207 0
M  V30 3896 H 364.857 0.0349917 -3.24281 0
M  V30 3897 H 364.642 -1.71682 -3.52516 0
M  V30 3898 H 366.132 -0.895874 -4.07877 0
M  V30 3899 N 366.569 1.04691 -1.17803 0
M  V30 3900 C 367.817 1.7743 -0.967617 0
M  V30 3901 C 368.138 1.88359 0.504574 0
M  V30 3902 O 367.408 1.40402 1.36617 0
M  V30 3903 H 365.988 0.657242 -0.355024 0
M  V30 3904 H 368.65 1.2638 -1.48371 0
M  V30 3905 H 367.746 2.78924 -1.40027 0
M  V30 3906 N 368.047 0.979072 1.23499 0
M  V30 3907 C 369.293 0.648178 1.92163 0
M  V30 3908 C 369.626 -0.816049 1.76222 0
M  V30 3909 O 368.901 -1.58849 1.12237 0
M  V30 3910 C 369.184 1.03773 3.44824 0
M  V30 3911 C 369.037 2.55948 3.69879 0
M  V30 3912 C 370.356 0.580653 4.36253 0
M  V30 3913 H 367.475 0.236952 0.69787 0
M  V30 3914 H 370.117 1.22012 1.45647 0
M  V30 3915 H 368.267 0.551058 3.84572 0
M  V30 3916 H 369.939 3.12179 3.3962 0
M  V30 3917 H 368.182 2.98641 3.14636 0
M  V30 3918 H 368.853 2.78255 4.76737 0
M  V30 3919 H 371.329 0.998465 4.03943 0
M  V30 3920 H 370.205 0.881663 5.41773 0
M  V30 3921 H 370.466 -0.519052 4.39042 0
M  V30 3922 N 369.525 -1.3858 0.750561 0
M  V30 3923 C 370.941 -1.53759 0.427824 0
M  V30 3924 C 371.141 -1.71401 -1.05943 0
M  V30 3925 O 370.197 -1.72331 -1.84549 0
M  V30 3926 C 371.51 -2.74642 1.22443 0
M  V30 3927 C 373.058 -2.88489 1.2142 0
M  V30 3928 C 373.533 -4.12329 1.9937 0
M  V30 3929 N 375.024 -4.194 1.96616 0
M  V30 3930 C 375.759 -5.14209 2.53727 0
M  V30 3931 N 375.255 -6.14709 3.19539 0
M  V30 3932 N 377.048 -5.06537 2.43673 0
M  V30 3933 H 369.199 -1.25377 1.71447 0
M  V30 3934 H 371.462 -0.608844 0.726645 0
M  V30 3935 H 371.168 -2.68 2.27747 0
M  V30 3936 H 371.042 -3.67745 0.839273 0
M  V30 3937 H 373.429 -2.94614 0.169232 0
M  V30 3938 H 373.51 -1.96406 1.63885 0
M  V30 3939 H 373.154 -4.06966 3.03877 0
M  V30 3940 H 373.084 -5.03486 1.54302 0
M  V30 3941 H 375.575 -3.47421 1.48684 0
M  V30 3942 H 375.888 -6.8354 3.60545 0
M  V30 3943 H 374.233 -6.1505 3.23633 0
M  V30 3944 H 377.424 -4.26962 1.91889 0
M  V30 3945 H 377.597 -5.80245 2.88479 0
M  V30 3946 N 371.003 -0.499398 -1.49478 0
M  V30 3947 C 371.933 0.269244 -2.31943 0
M  V30 3948 C 372.914 0.964054 -1.40143 0
M  V30 3949 O 374.099 0.955767 -1.69052 0
M  V30 3950 C 371.229 1.33504 -3.20615 0
M  V30 3951 C 370.183 0.760202 -4.21195 0
M  V30 3952 C 369.509 1.9264 -4.98792 0
M  V30 3953 C 370.809 -0.247661 -5.21712 0
M  V30 3954 H 372.503 -0.419082 -2.96452 0
M  V30 3955 H 370.049 -0.202988 -1.42562 0
M  V30 3956 H 372.002 1.88048 -3.77115 0
M  V30 3957 H 370.726 2.05253 -2.54045 0
M  V30 3958 H 369.385 0.23653 -3.65836 0
M  V30 3959 H 369.033 2.63154 -4.28671 0
M  V30 3960 H 368.733 1.54785 -5.66847 0
M  V30 3961 H 370.257 2.4762 -5.58137 0
M  V30 3962 H 371.671 0.209579 -5.72917 0
M  V30 3963 H 370.068 -0.541962 -5.97648 0
M  V30 3964 H 371.138 -1.16409 -4.7072 0
M  V30 3965 N 372.481 1.55866 -0.233164 0
M  V30 3966 C 373.428 2.20796 0.67215 0
M  V30 3967 C 374.398 1.16731 1.18166 0
M  V30 3968 O 375.583 1.45129 1.23864 0
M  V30 3969 C 372.723 2.90072 1.86955 0
M  V30 3970 C 371.836 4.08759 1.39786 0
M  V30 3971 C 370.971 4.65787 2.55374 0
M  V30 3972 C 370.01 5.76752 2.04998 0
M  V30 3973 N 369.147 6.28021 3.13901 0
M  V30 3974 H 373.987 2.9779 0.111749 0
M  V30 3975 H 371.524 1.47036 0.0434007 0
M  V30 3976 H 373.482 3.28428 2.57276 0
M  V30 3977 H 372.112 2.15575 2.40265 0
M  V30 3978 H 371.164 3.7581 0.589173 0
M  V30 3979 H 372.476 4.88906 0.98856 0
M  V30 3980 H 371.63 5.06646 3.33758 0
M  V30 3981 H 370.369 3.84828 2.99598 0
M  V30 3982 H 369.374 5.35383 1.25079 0
M  V30 3983 H 370.599 6.59553 1.61759 0
M  V30 3984 H 368.545 5.49971 3.57586 0
M  V30 3985 H 368.462 7.03323 2.7726 0
M  V30 3986 H 369.73 6.73538 3.92386 0
M  V30 3987 N 373.959 -0.0401083 1.57549 0
M  V30 3988 C 374.869 -1.06133 2.0922 0
M  V30 3989 C 375.885 -1.40356 1.0284 0
M  V30 3990 O 377.061 -1.49897 1.34509 0
M  V30 3991 C 374.126 -2.34658 2.55218 0
M  V30 3992 C 373.187 -2.07117 3.76033 0
M  V30 3993 C 372.42 -3.29514 4.19829 0
M  V30 3994 O 372.643 -4.39794 3.63232 0
M  V30 3995 O 371.577 -3.15863 5.12362 0
M  V30 3996 H 375.403 -0.652244 2.96613 0
M  V30 3997 H 372.988 -0.256368 1.47184 0
M  V30 3998 H 374.87 -3.10239 2.85184 0
M  V30 3999 H 373.545 -2.74883 1.70941 0
M  V30 4000 H 372.452 -1.29139 3.51104 0
M  V30 4001 H 373.785 -1.71754 4.61261 0
M  V30 4002 N 375.437 -1.54477 -0.31217 0
M  V30 4003 C 376.685 -1.72884 -1.04668 0
M  V30 4004 C 377.006 -0.511477 -1.88173 0
M  V30 4005 O 376.276 0.474407 -1.90069 0
M  V30 4006 H 374.856 -0.637461 -0.389425 0
M  V30 4007 H 377.518 -1.91807 -0.345852 0
M  V30 4008 H 376.614 -2.61334 -1.70619 0
M  V30 4009 N 376.915 0.57481 -1.46744 0
M  V30 4010 C 378.155 1.34369 -1.54027 0
M  V30 4011 C 378.519 1.91051 -0.190642 0
M  V30 4012 O 379.72 2.68444 -0.138255 0
M  V30 4013 C 377.991 2.43706 -2.61423 0
M  V30 4014 S 379.55 3.30915 -2.88167 0
M  V30 4015 H 376.368 0.45768 -0.544105 0
M  V30 4016 H 378.97 0.659959 -1.84024 0
M  V30 4017 H 377.674 2.0047 -3.58106 0
M  V30 4018 H 377.205 3.16842 -2.33184 0
M  V30 4019 H 379.22 4.42742 -2.24039 0
M  V30 4020 N 378.394 1.34581 0.820102 0
M  V30 4021 C 379.342 1.26401 1.95258 0
M  V30 4022 C 380.336 0.161553 1.68628 0
M  V30 4023 O 381.542 0.326703 1.7701 0
M  V30 4024 H 377.917 0.392749 0.64129 0
M  V30 4025 H 379.888 2.22105 1.99279 0
M  V30 4026 C 378.637 1.03919 3.31807 0
M  V30 4027 H 377.96 1.87984 3.52848 0
M  V30 4028 H 379.4 1.02232 4.11491 0
M  V30 4029 C 377.859 -0.257433 3.35915 0
M  V30 4030 O 378.389 -1.25784 3.81499 0
M  V30 4031 N 376.595 -0.291524 2.89134 0
M  V30 4032 H 376.142 0.523161 2.52232 0
M  V30 4033 H 376.1 -1.15883 2.92264 0
M  V30 4034 N 379.872 -1.04064 1.18357 0
M  V30 4035 C 381.121 -1.76662 0.973313 0
M  V30 4036 C 381.434 -1.89154 -0.497991 0
M  V30 4037 O 382.64 -2.58606 -0.826762 0
M  V30 4038 C 381.096 -3.17624 1.69242 0
M  V30 4039 C 380.704 -3.13225 3.20303 0
M  V30 4040 C 382.448 -3.946 1.56497 0
M  V30 4041 C 380.355 -4.49046 3.84853 0
M  V30 4042 H 379.285 -0.662214 0.36054 0
M  V30 4043 H 381.936 -1.16553 1.41731 0
M  V30 4044 H 380.318 -3.78129 1.1762 0
M  V30 4045 H 381.492 -2.62172 3.78949 0
M  V30 4046 H 379.807 -2.49749 3.33189 0
M  V30 4047 H 382.404 -4.95042 2.02084 0
M  V30 4048 H 382.747 -4.13074 0.517243 0
M  V30 4049 H 383.28 -3.4067 2.05399 0
M  V30 4050 H 380.019 -4.35777 4.89672 0
M  V30 4051 H 379.539 -5.00203 3.30994 0
M  V30 4052 H 381.218 -5.17961 3.87718 0
M  V30 4053 N 381.35 -0.985608 -1.22978 0
M  V30 4054 C 382.298 -0.522631 -2.26652 0
M  V30 4055 C 383.292 0.422998 -1.64034 0
M  V30 4056 O 384.498 0.296319 -1.77544 0
M  V30 4057 H 380.873 -0.150597 -0.736766 0
M  V30 4058 H 382.844 -1.40863 -2.63059 0
M  V30 4059 C 381.593 0.154238 -3.47358 0
M  V30 4060 H 380.916 -0.564329 -3.95797 0
M  V30 4061 H 382.356 0.441744 -4.21693 0
M  V30 4062 C 380.815 1.38719 -3.07016 0
M  V30 4063 O 381.345 2.48307 -3.15764 0
M  V30 4064 N 379.551 1.25975 -2.61875 0
M  V30 4065 H 379.098 0.368068 -2.54957 0
M  V30 4066 H 379.056 2.08578 -2.3525 0
M  V30 4067 N 382.828 1.3818 -0.7579 0
M  V30 4068 C 384.244 1.5353 -0.435972 0
M  V30 4069 C 384.444 1.71961 1.05032 0
M  V30 4070 O 383.5 1.73307 1.83633 0
M  V30 4071 C 384.813 2.73989 -1.23898 0
M  V30 4072 C 386.361 2.87841 -1.22949 0
M  V30 4073 C 386.836 4.11266 -2.01554 0
M  V30 4074 N 388.327 4.18352 -1.98837 0
M  V30 4075 C 389.062 5.12856 -2.5645 0
M  V30 4076 N 388.558 6.13005 -3.22794 0
M  V30 4077 N 390.351 5.05238 -2.46356 0
M  V30 4078 H 382.502 1.24467 -1.7211 0
M  V30 4079 H 384.765 0.604982 -0.729864 0
M  V30 4080 H 384.471 2.66789 -2.29165 0
M  V30 4081 H 384.345 3.67294 -0.858764 0
M  V30 4082 H 386.732 2.9452 -0.184854 0
M  V30 4083 H 386.813 1.95534 -1.64924 0
M  V30 4084 H 386.457 4.05349 -3.06031 0
M  V30 4085 H 386.387 5.02661 -1.5697 0
M  V30 4086 H 388.878 3.46628 -1.50524 0
M  V30 4087 H 389.191 6.81619 -3.64165 0
M  V30 4088 H 387.536 6.13325 -3.2689 0
M  V30 4089 H 390.727 4.25938 -1.9415 0
M  V30 4090 H 390.9 5.78707 -2.91552 0
M  V30 4091 N 384.306 0.507319 1.49211 0
M  V30 4092 C 385.531 -0.033725 2.07373 0
M  V30 4093 C 385.956 -1.29485 1.36437 0
M  V30 4094 O 385.314 -1.76294 0.423087 0
M  V30 4095 C 385.362 -0.263945 3.59633 0
M  V30 4096 O 384.466 -1.33737 3.90113 0
M  V30 4097 H 383.807 0.0290331 0.663365 0
M  V30 4098 H 386.337 0.708749 1.91932 0
M  V30 4099 H 386.347 -0.493536 4.05004 0
M  V30 4100 H 385.022 0.657424 4.10671 0
M  V30 4101 H 383.599 -1.09224 3.56545 0
M  V30 4102 N 385.784 -1.5574 0.241426 0
M  V30 4103 C 386.714 -2.24133 -0.654722 0
M  V30 4104 C 387.695 -1.21974 -1.1856 0
M  V30 4105 O 388.88 -1.50612 -1.22595 0
M  V30 4106 C 386.01 -2.93659 -1.85423 0
M  V30 4107 C 384.964 -4.0246 -1.45636 0
M  V30 4108 C 384.29 -4.59383 -2.73626 0
M  V30 4109 C 385.59 -5.18468 -0.631506 0
M  V30 4110 H 387.284 -2.99281 -0.0844353 0
M  V30 4111 H 384.83 -1.43947 -0.0391707 0
M  V30 4112 H 386.783 -3.40203 -2.48676 0
M  V30 4113 H 385.507 -2.15991 -2.44981 0
M  V30 4114 H 384.166 -3.56676 -0.847202 0
M  V30 4115 H 383.814 -3.78422 -3.3137 0
M  V30 4116 H 383.514 -5.32826 -2.4773 0
M  V30 4117 H 385.038 -5.08658 -3.37786 0
M  V30 4118 H 386.452 -5.61272 -1.1682 0
M  V30 4119 H 384.849 -5.98266 -0.468831 0
M  V30 4120 H 385.919 -4.8358 0.357506 0
M  V30 4121 N 387.262 0.0317525 -1.57568 0
M  V30 4122 C 388.509 0.723104 -1.89149 0
M  V30 4123 C 388.837 1.75504 -0.838377 0
M  V30 4124 O 388.092 1.95037 0.160982 0
M  V30 4125 C 388.391 1.43167 -3.27472 0
M  V30 4126 C 388.057 0.535972 -4.47703 0
M  V30 4127 C 386.719 0.289262 -4.8033 0
M  V30 4128 C 389.071 -0.0826125 -5.21135 0
M  V30 4129 C 386.399 -0.584853 -5.83778 0
M  V30 4130 C 388.751 -0.944414 -6.25511 0
M  V30 4131 C 387.415 -1.20061 -6.56614 0
M  V30 4132 H 386.685 0.264602 -0.692146 0
M  V30 4133 H 389.332 -0.0169496 -1.91492 0
M  V30 4134 H 387.637 2.24497 -3.21105 0
M  V30 4135 H 389.334 1.97209 -3.49155 0
M  V30 4136 H 385.924 0.738414 -4.22191 0
M  V30 4137 H 390.108 0.0950302 -4.96209 0
M  V30 4138 H 385.364 -0.79168 -6.06253 0
M  V30 4139 H 389.538 -1.43026 -6.81554 0
M  V30 4140 H 387.165 -1.87967 -7.36595 0
M  V30 4141 N 388.74 1.54641 0.303973 0
M  V30 4142 C 389.989 1.7299 1.03717 0
M  V30 4143 C 390.302 0.521168 1.88529 0
M  V30 4144 O 391.508 0.586408 2.65092 0
M  V30 4145 C 389.964 3.06051 1.89369 0
M  V30 4146 C 389.572 4.34393 1.09574 0
M  V30 4147 C 391.316 3.3376 2.62306 0
M  V30 4148 C 389.223 5.58506 1.94486 0
M  V30 4149 H 388.153 0.64473 0.390947 0
M  V30 4150 H 390.804 1.81124 0.294328 0
M  V30 4151 H 389.186 2.91874 2.67629 0
M  V30 4152 H 390.36 4.59396 0.359485 0
M  V30 4153 H 388.675 4.13597 0.482324 0
M  V30 4154 H 391.272 4.23687 3.26181 0
M  V30 4155 H 391.615 2.52503 3.3098 0
M  V30 4156 H 392.148 3.48894 1.91097 0
M  V30 4157 H 388.887 6.42422 1.30287 0
M  V30 4158 H 388.407 5.37694 2.65792 0
M  V30 4159 H 390.086 5.95651 2.52605 0
M  V30 4160 N 390.218 -0.567019 1.47046 0
M  V30 4161 C 391.148 -1.68482 1.61667 0
M  V30 4162 C 392.129 -1.6358 0.466418 0
M  V30 4163 O 393.314 -1.81354 0.694574 0
M  V30 4164 C 390.444 -3.07124 1.62148 0
M  V30 4165 C 389.398 -3.26867 2.76301 0
M  V30 4166 C 388.724 -4.66196 2.61849 0
M  V30 4167 C 390.024 -3.13186 4.17986 0
M  V30 4168 H 391.718 -1.56502 2.5524 0
M  V30 4169 H 389.264 -0.751486 1.22836 0
M  V30 4170 H 391.217 -3.8516 1.70968 0
M  V30 4171 H 389.941 -3.2004 0.651287 0
M  V30 4172 H 388.6 -2.51237 2.66975 0
M  V30 4173 H 388.248 -4.75898 1.62879 0
M  V30 4174 H 387.948 -4.80356 3.38425 0
M  V30 4175 H 389.472 -5.46379 2.72584 0
M  V30 4176 H 390.886 -3.81049 4.2834 0
M  V30 4177 H 389.283 -3.3886 4.95272 0
M  V30 4178 H 390.353 -2.10057 4.3704 0
M  V30 4179 N 391.696 -1.35014 -0.812953 0
M  V30 4180 C 392.944 -1.27678 -1.56661 0
M  V30 4181 C 393.265 0.150359 -1.94419 0
M  V30 4182 O 392.535 1.08532 -1.63088 0
M  V30 4183 H 391.115 -0.469602 -0.580933 0
M  V30 4184 H 393.777 -1.69043 -0.970076 0
M  V30 4185 H 392.873 -1.88833 -2.48492 0
M  V30 4186 N 393.175 1.03435 -1.18907 0
M  V30 4187 C 394.107 2.1165 -0.879595 0
M  V30 4188 C 395.12 1.62316 0.125439 0
M  V30 4189 O 396.309 1.78201 -0.103245 0
M  V30 4190 C 393.409 3.37622 -0.294042 0
M  V30 4191 C 392.582 4.16166 -1.34629 0
M  V30 4192 C 391.641 5.20457 -0.775274 0
M  V30 4193 O 390.667 5.50379 -1.4516 0
M  V30 4194 N 391.869 5.78949 0.424126 0
M  V30 4195 H 394.634 2.38791 -1.81105 0
M  V30 4196 H 392.195 1.19681 -1.09032 0
M  V30 4197 H 394.187 4.04572 0.101679 0
M  V30 4198 H 392.757 3.07873 0.541575 0
M  V30 4199 H 391.977 3.44444 -1.91707 0
M  V30 4200 H 393.265 4.65432 -2.05549 0
M  V30 4201 H 392.663 5.56948 0.991209 0
M  V30 4202 H 391.22 6.47334 0.761691 0
M  V30 4203 N 394.653 0.992116 1.22453 0
M  V30 4204 C 395.899 0.668523 1.91464 0
M  V30 4205 C 396.232 -0.797313 1.77078 0
M  V30 4206 O 395.507 -1.5765 1.13916 0
M  V30 4207 C 395.79 1.07424 3.43703 0
M  V30 4208 C 395.643 2.59857 3.67143 0
M  V30 4209 C 396.962 0.626891 4.35612 0
M  V30 4210 H 394.081 0.244341 0.695318 0
M  V30 4211 H 396.723 1.2355 1.44345 0
M  V30 4212 H 394.873 0.591816 3.83966 0
M  V30 4213 H 396.545 3.15764 3.3629 0
M  V30 4214 H 394.788 3.01961 3.11451 0
M  V30 4215 H 395.459 2.83296 4.73759 0
M  V30 4216 H 397.935 1.04125 4.02861 0
M  V30 4217 H 396.811 0.939076 5.40807 0
M  V30 4218 H 397.072 -0.472457 4.39568 0
M  V30 4219 N 396.131 -1.37776 0.765217 0
M  V30 4220 C 397.38 -1.99092 0.323307 0
M  V30 4221 C 397.693 -1.61434 -1.10446 0
M  V30 4222 O 398.899 -2.15805 -1.64743 0
M  V30 4223 C 397.355 -3.56019 0.527098 0
M  V30 4224 C 396.963 -4.0262 1.96471 0
M  V30 4225 C 398.707 -4.2424 0.148483 0
M  V30 4226 C 396.614 -5.52233 2.11644 0
M  V30 4227 H 395.544 -0.744846 0.117137 0
M  V30 4228 H 398.195 -1.57391 0.943417 0
M  V30 4229 H 396.577 -3.95667 -0.162372 0
M  V30 4230 H 397.751 -3.74234 2.68859 0
M  V30 4231 H 396.066 -3.47161 2.29931 0
M  V30 4232 H 398.663 -5.34159 0.240456 0
M  V30 4233 H 399.006 -4.06446 -0.900422 0
M  V30 4234 H 399.539 -3.89872 0.79025 0
M  V30 4235 H 396.278 -5.74945 3.1483 0
M  V30 4236 H 395.798 -5.82324 1.4373 0
M  V30 4237 H 397.477 -6.18106 1.91193 0
M  V30 4238 N 397.609 -0.515225 -1.4894 0
M  V30 4239 C 398.556 0.255567 -2.29381 0
M  V30 4240 C 399.526 0.947387 -1.36432 0
M  V30 4241 O 400.711 0.951288 -1.65394 0
M  V30 4242 C 397.851 1.30551 -3.19453 0
M  V30 4243 C 396.964 0.624029 -4.27469 0
M  V30 4244 C 396.099 1.65563 -5.0474 0
M  V30 4245 C 395.138 0.956802 -6.04576 0
M  V30 4246 N 394.275 1.93326 -6.74959 0
M  V30 4247 H 399.115 -0.436607 -2.94784 0
M  V30 4248 H 396.652 -0.227154 -1.45336 0
M  V30 4249 H 398.61 1.92639 -3.70062 0
M  V30 4250 H 397.24 1.96626 -2.56004 0
M  V30 4251 H 396.292 -0.110459 -3.8024 0
M  V30 4252 H 397.604 0.0746092 -4.98744 0
M  V30 4253 H 396.758 2.35119 -5.59289 0
M  V30 4254 H 395.497 2.23893 -4.3327 0
M  V30 4255 H 394.502 0.247097 -5.49244 0
M  V30 4256 H 395.727 0.379814 -6.78037 0
M  V30 4257 H 393.673 2.50591 -6.06251 0
M  V30 4258 H 393.59 1.43489 -7.42258 0
M  V30 4259 H 394.858 2.62126 -7.34105 0
M  V30 4260 N 399.087 1.5561 -0.249682 0
M  V30 4261 C 400.034 2.21496 0.648694 0
M  V30 4262 C 401.004 1.17977 1.16921 0
M  V30 4263 O 402.189 1.46434 1.22318 0
M  V30 4264 C 399.329 2.92039 1.83868 0
M  V30 4265 C 398.442 4.10219 1.35442 0
M  V30 4266 C 397.577 4.6847 2.50419 0
M  V30 4267 C 396.616 5.78893 1.98869 0
M  V30 4268 N 395.753 6.31315 3.07223 0
M  V30 4269 H 400.593 2.97892 0.0801582 0
M  V30 4270 H 398.13 1.47074 0.0278031 0
M  V30 4271 H 400.088 3.31138 2.53778 0
M  V30 4272 H 398.718 2.18111 2.37965 0
M  V30 4273 H 397.77 3.76413 0.54928 0
M  V30 4274 H 399.082 4.89927 0.936649 0
M  V30 4275 H 398.236 5.10158 3.28366 0
M  V30 4276 H 396.975 3.87984 2.95499 0
M  V30 4277 H 395.98 5.3668 1.19393 0
M  V30 4278 H 397.205 6.61232 1.54755 0
M  V30 4279 H 395.151 5.53733 3.51732 0
M  V30 4280 H 395.068 7.06224 2.69784 0
M  V30 4281 H 396.336 6.77662 3.8522 0
M  V30 4282 N 400.565 -0.0233959 1.57583 0
M  V30 4283 C 401.495 -1.02162 2.09965 0
M  V30 4284 C 402.476 -1.3735 1.00344 0
M  V30 4285 O 403.661 -1.46135 1.27899 0
M  V30 4286 C 400.791 -2.32081 2.58371 0
M  V30 4287 C 399.745 -2.1112 3.72307 0
M  V30 4288 C 399.071 -3.46848 4.06941 0
M  V30 4289 C 400.371 -1.49276 5.00514 0
M  V30 4290 H 402.065 -0.585557 2.93618 0
M  V30 4291 H 399.611 -0.280218 1.41247 0
M  V30 4292 H 401.564 -3.02249 2.93639 0
M  V30 4293 H 400.288 -2.77758 1.71808 0
M  V30 4294 H 398.947 -1.43384 3.37397 0
M  V30 4295 H 398.595 -3.90184 3.17436 0
M  V30 4296 H 398.295 -3.33646 4.83688 0
M  V30 4297 H 399.819 -4.18369 4.44747 0
M  V30 4298 H 401.233 -2.09368 5.33702 0
M  V30 4299 H 399.63 -1.46632 5.8191 0
M  V30 4300 H 400.7 -0.459217 4.82721 0
M  V30 4301 N 402.043 -1.548 -0.295768 0
M  V30 4302 C 403.268 -1.78653 -1.05346 0
M  V30 4303 C 403.693 -0.546894 -1.79974 0
M  V30 4304 O 403.051 0.502763 -1.7419 0
M  V30 4305 C 403.099 -2.99679 -2.00561 0
M  V30 4306 O 402.203 -2.7317 -3.08953 0
M  V30 4307 H 401.544 -0.59116 -0.302367 0
M  V30 4308 H 404.074 -2.01895 -0.331598 0
M  V30 4309 H 404.084 -3.27793 -2.42932 0
M  V30 4310 H 402.759 -3.89562 -1.4565 0
M  V30 4311 H 401.336 -2.56089 -2.71059 0
M  V30 4312 N 403.521 0.559213 -1.47345 0
M  V30 4313 C 404.798 1.31997 -1.44348 0
M  V30 4314 C 405.178 2.1064 -0.139358 0
M  V30 4315 O 404.526 2.1091 0.879153 0
M  V30 4316 C 404.736 2.22618 -2.68779 0
M  V30 4317 C 406.084 2.83701 -3.1591 0
M  V30 4318 O 407.108 2.32921 -2.69493 0
M  V30 4319 O 405.967 3.75993 -3.966 0
M  V30 4320 H 403.061 0.594251 -0.575147 0
M  V30 4321 H 405.607 0.578282 -1.59543 0
M  V30 4322 H 404.379 1.64093 -3.55231 0
M  V30 4323 H 404.002 3.04085 -2.5616 0
M  V30 4324 N 404.999 1.35443 0.805782 0
M  V30 4325 C 406.247 1.28507 1.55982 0
M  V30 4326 C 406.568 -0.140046 1.94496 0
M  V30 4327 O 405.838 -1.07666 1.63661 0
M  V30 4328 H 404.418 0.472676 0.578434 0
M  V30 4329 H 407.08 1.69555 0.961098 0
M  V30 4330 H 406.176 1.90148 2.47488 0
M  V30 4331 N 406.477 -1.02803 1.19454 0
M  V30 4332 C 407.409 -2.11181 0.890807 0
M  V30 4333 C 408.422 -1.6238 -0.116829 0
M  V30 4334 O 409.611 -1.78144 0.112694 0
M  V30 4335 C 406.711 -3.37461 0.311942 0
M  V30 4336 C 405.884 -4.15446 1.36834 0
M  V30 4337 C 404.943 -5.20039 0.802864 0
M  V30 4338 O 403.969 -5.49602 1.48077 0
M  V30 4339 N 405.171 -5.79165 -0.393417 0
M  V30 4340 H 407.936 -2.37827 1.82369 0
M  V30 4341 H 405.497 -1.19101 1.09666 0
M  V30 4342 H 407.489 -4.0462 -0.0802225 0
M  V30 4343 H 406.059 -3.08156 -0.52524 0
M  V30 4344 H 405.279 -3.43423 1.93531 0
M  V30 4345 H 406.567 -4.64335 2.08015 0
M  V30 4346 H 405.965 -5.57466 -0.961658 0
M  V30 4347 H 404.522 -6.47729 -0.727351 0
M  V30 4348 N 407.956 -0.998596 -1.21925 0
M  V30 4349 C 409.202 -0.678667 -1.91107 0
M  V30 4350 C 409.535 0.78791 -1.77498 0
M  V30 4351 O 408.81 1.57043 -1.1475 0
M  V30 4352 C 409.093 -1.09245 -3.43129 0
M  V30 4353 C 408.946 -2.61801 -3.6576 0
M  V30 4354 C 410.265 -0.649984 -4.35274 0
M  V30 4355 H 407.384 -0.248025 -0.694012 0
M  V30 4356 H 410.026 -1.24314 -1.43688 0
M  V30 4357 H 408.176 -0.612171 -3.83647 0
M  V30 4358 H 409.848 -3.17543 -3.34611 0
M  V30 4359 H 408.091 -3.03609 -3.09845 0
M  V30 4360 H 408.762 -2.85804 -4.7225 0
M  V30 4361 H 411.238 -1.0626 -4.02303 0
M  V30 4362 H 410.114 -0.967743 -5.40302 0
M  V30 4363 H 410.375 0.449139 -4.39813 0
M  V30 4364 N 409.434 1.37368 -0.772513 0
M  V30 4365 C 410.682 1.99279 -0.336516 0
M  V30 4366 C 411.003 1.6163 1.09091 0
M  V30 4367 O 410.273 0.882109 1.74916 0
M  V30 4368 H 408.853 0.737063 -0.121435 0
M  V30 4369 H 411.515 1.67836 -0.990809 0
M  V30 4370 H 410.611 3.09332 -0.414763 0
M  V30 4371 N 410.912 0.523116 1.48665 0
M  V30 4372 C 412.16 -0.0134497 2.02096 0
M  V30 4373 C 412.481 -1.35418 1.40311 0
M  V30 4374 O 411.751 -1.87543 0.566074 0
M  V30 4375 H 410.331 -0.00795915 0.746958 0
M  V30 4376 H 412.993 0.685388 1.82451 0
M  V30 4377 H 412.089 -0.126849 3.11842 0
M  V30 4378 N 412.39 -1.55475 0.257931 0
M  V30 4379 C 413.637 -1.99207 -0.363728 0
M  V30 4380 C 413.965 -1.1462 -1.57139 0
M  V30 4381 O 413.22 -0.199653 -1.94679 0
M  V30 4382 C 413.519 -3.48183 -0.806433 0
M  V30 4383 C 413.185 -4.49936 0.294684 0
M  V30 4384 C 411.847 -4.77481 0.597076 0
M  V30 4385 C 414.199 -5.10769 1.03751 0
M  V30 4386 C 411.527 -5.63132 1.64618 0
M  V30 4387 C 413.879 -5.97558 2.07622 0
M  V30 4388 C 412.543 -6.23432 2.38514 0
M  V30 4389 H 411.813 -0.728949 -0.133097 0
M  V30 4390 H 414.46 -1.8793 0.368059 0
M  V30 4391 H 412.765 -3.56848 -1.61761 0
M  V30 4392 H 414.462 -3.79415 -1.29789 0
M  V30 4393 H 411.052 -4.28572 0.0488649 0
M  V30 4394 H 415.236 -4.89527 0.817149 0
M  V30 4395 H 410.492 -5.8143 1.89074 0
M  V30 4396 H 414.666 -6.43735 2.65666 0
M  V30 4397 H 412.293 -6.89594 3.19943 0
M  V30 4398 N 413.868 0.0150385 -1.57593 0
M  V30 4399 C 415.117 0.702115 -1.89085 0
M  V30 4400 C 415.43 1.75764 -0.858277 0
M  V30 4401 O 416.636 2.49829 -1.0629 0
M  V30 4402 C 415.092 1.29992 -3.35604 0
M  V30 4403 C 414.7 0.280007 -4.47124 0
M  V30 4404 C 416.444 1.96606 -3.76227 0
M  V30 4405 C 414.351 0.886949 -5.84711 0
M  V30 4406 H 413.281 0.265997 -0.705522 0
M  V30 4407 H 415.932 -0.0430408 -1.8345 0
M  V30 4408 H 414.314 2.09525 -3.36029 0
M  V30 4409 H 415.488 -0.489631 -4.58191 0
M  V30 4410 H 413.803 -0.284835 -4.15425 0
M  V30 4411 H 416.4 2.42893 -4.76347 0
M  V30 4412 H 416.743 2.79024 -3.08952 0
M  V30 4413 H 417.276 1.23828 -3.78036 0
M  V30 4414 H 414.015 0.101876 -6.55421 0
M  V30 4415 H 413.535 1.6261 -5.77337 0
M  V30 4416 H 415.214 1.39011 -6.3189 0
M  V30 4417 N 415.346 1.54954 0.287554 0
M  V30 4418 C 416.294 1.87606 1.37502 0
M  V30 4419 C 417.288 0.751001 1.51843 0
M  V30 4420 O 418.494 0.935169 1.53801 0
M  V30 4421 H 414.869 0.595231 0.459569 0
M  V30 4422 H 416.84 2.78477 1.07206 0
M  V30 4423 C 415.589 2.15183 2.73115 0
M  V30 4424 H 414.912 3.01234 2.62866 0
M  V30 4425 H 416.352 2.4196 3.48183 0
M  V30 4426 C 414.811 0.954686 3.2309 0
M  V30 4427 O 415.341 0.181949 4.01288 0
M  V30 4428 N 413.547 0.756368 2.80584 0
M  V30 4429 H 413.094 1.38643 2.17108 0
M  V30 4430 H 413.052 -0.0430391 3.14371 0
M  V30 4431 N 416.824 -0.551391 1.4764 0
M  V30 4432 C 418.054 -1.33163 1.57959 0
M  V30 4433 C 418.462 -1.87785 0.23094 0
M  V30 4434 O 417.805 -1.65996 -0.786825 0
M  V30 4435 C 417.867 -2.53449 2.54958 0
M  V30 4436 C 417.531 -2.20071 4.00522 0
M  V30 4437 C 418.528 -1.77017 4.88836 0
M  V30 4438 C 416.213 -2.31252 4.45901 0
M  V30 4439 C 418.207 -1.4558 6.20552 0
M  V30 4440 C 415.894 -1.99427 5.77644 0
M  V30 4441 C 416.892 -1.56659 6.64791 0
M  V30 4442 O 416.58 -1.25242 7.94084 0
M  V30 4443 H 416.312 -0.412022 0.535923 0
M  V30 4444 H 418.866 -0.674186 1.9402 0
M  V30 4445 H 417.096 -3.22104 2.13976 0
M  V30 4446 H 418.785 -3.15523 2.55343 0
M  V30 4447 H 419.551 -1.67867 4.55023 0
M  V30 4448 H 415.43 -2.63498 3.78272 0
M  V30 4449 H 418.974 -1.12125 6.8853 0
M  V30 4450 H 414.871 -2.08211 6.10998 0
M  V30 4451 H 415.639 -1.38822 8.06642 0
M  V30 4452 N 418.302 -1.35869 -0.798587 0
M  V30 4453 C 419.718 -1.16082 -1.09532 0
M  V30 4454 C 419.918 0.0213124 -2.01489 0
M  V30 4455 O 418.974 0.689488 -2.42904 0
M  V30 4456 C 420.287 -2.46748 -1.7186 0
M  V30 4457 C 421.835 -2.53028 -1.84244 0
M  V30 4458 C 422.31 -3.83758 -2.49988 0
M  V30 4459 N 423.801 -3.85053 -2.57465 0
M  V30 4460 C 424.536 -4.8294 -3.09122 0
M  V30 4461 N 424.032 -5.91217 -3.61157 0
M  V30 4462 N 425.825 -4.70369 -3.0775 0
M  V30 4463 H 417.976 -2.11571 -0.187461 0
M  V30 4464 H 420.239 -0.936726 -0.145765 0
M  V30 4465 H 419.945 -3.33471 -1.11759 0
M  V30 4466 H 419.819 -2.61883 -2.71472 0
M  V30 4467 H 422.206 -1.66729 -2.43486 0
M  V30 4468 H 422.287 -2.418 -0.834643 0
M  V30 4469 H 421.931 -4.70459 -1.91393 0
M  V30 4470 H 421.861 -3.92278 -3.5132 0
M  V30 4471 H 424.352 -3.06822 -2.20609 0
M  V30 4472 H 424.665 -6.61892 -3.98896 0
M  V30 4473 H 423.01 -5.94899 -3.59333 0
M  V30 4474 H 426.201 -3.84914 -2.66381 0
M  V30 4475 H 426.374 -5.46816 -3.47701 0
M  V30 4476 N 419.78 1.02168 -1.19998 0
M  V30 4477 C 421.057 1.72816 -0.916191 0
M  V30 4478 C 421.437 2.03081 0.576325 0
M  V30 4479 O 420.785 1.69122 1.53656 0
M  V30 4480 C 420.995 2.9997 -1.78378 0
M  V30 4481 C 422.343 3.73336 -2.02251 0
M  V30 4482 O 423.367 3.09914 -1.75589 0
M  V30 4483 O 422.226 4.87371 -2.47249 0
M  V30 4484 H 419.32 0.752924 -0.342103 0
M  V30 4485 H 421.866 1.08062 -1.30846 0
M  V30 4486 H 420.638 2.73888 -2.79466 0
M  V30 4487 H 420.261 3.72464 -1.39126 0
M  V30 4488 N 421.258 1.00505 1.21394 0
M  V30 4489 C 422.483 0.706367 1.95001 0
M  V30 4490 C 422.908 -0.72463 1.73582 0
M  V30 4491 O 422.266 -1.49702 1.0227 0
M  V30 4492 C 422.314 1.03299 3.45487 0
M  V30 4493 O 421.418 0.138275 4.12168 0
M  V30 4494 H 420.759 0.263175 0.609619 0
M  V30 4495 H 423.289 1.34531 1.54151 0
M  V30 4496 H 423.299 0.979872 3.96059 0
M  V30 4497 H 421.974 2.07567 3.60401 0
M  V30 4498 H 420.551 0.247928 3.72075 0
M  V30 4499 N 422.737 -1.36956 0.779787 0
M  V30 4500 C 423.684 -2.30175 0.169697 0
M  V30 4501 C 424.654 -1.51501 -0.68094 0
M  V30 4502 O 425.839 -1.80042 -0.631629 0
M  V30 4503 C 422.979 -3.37985 -0.697131 0
M  V30 4504 C 422.092 -4.31661 0.170992 0
M  V30 4505 C 421.227 -5.2655 -0.701298 0
M  V30 4506 C 420.266 -6.11867 0.168869 0
M  V30 4507 N 419.403 -6.98973 -0.661855 0
M  V30 4508 H 424.243 -2.81767 0.970135 0
M  V30 4509 H 421.78 -1.38699 0.489994 0
M  V30 4510 H 423.738 -3.99128 -1.2146 0
M  V30 4511 H 422.368 -2.87739 -1.46309 0
M  V30 4512 H 421.42 -3.71756 0.80634 0
M  V30 4513 H 422.732 -4.91644 0.841875 0
M  V30 4514 H 421.886 -5.92937 -1.28494 0
M  V30 4515 H 420.625 -4.66998 -1.40584 0
M  V30 4516 H 419.63 -5.44452 0.764986 0
M  V30 4517 H 420.855 -6.73493 0.870863 0
M  V30 4518 H 418.801 -6.41941 -1.35086 0
M  V30 4519 H 418.718 -7.55984 -0.0484447 0
M  V30 4520 H 419.986 -7.6974 -1.22963 0
M  V30 4521 N 424.215 -0.530993 -1.48385 0
M  V30 4522 C 425.145 0.219985 -2.32461 0
M  V30 4523 C 426.126 0.934111 -1.42156 0
M  V30 4524 O 427.311 0.919694 -1.71042 0
M  V30 4525 C 424.441 1.26674 -3.23375 0
M  V30 4526 C 423.395 0.67069 -4.22712 0
M  V30 4527 C 422.721 1.82017 -5.02766 0
M  V30 4528 C 424.021 -0.358268 -5.2107 0
M  V30 4529 H 425.715 -0.48187 -2.95497 0
M  V30 4530 H 423.261 -0.233182 -1.42099 0
M  V30 4531 H 425.214 1.80006 -3.81019 0
M  V30 4532 H 423.938 1.99818 -2.58341 0
M  V30 4533 H 422.597 0.158878 -3.66256 0
M  V30 4534 H 422.245 2.54002 -4.34157 0
M  V30 4535 H 421.945 1.42727 -5.70003 0
M  V30 4536 H 423.469 2.35725 -5.63264 0
M  V30 4537 H 424.883 0.0880081 -5.73232 0
M  V30 4538 H 423.28 -0.66861 -5.96364 0
M  V30 4539 H 424.35 -1.26367 -4.68145 0
M  V30 4540 N 425.693 1.55336 -0.266172 0
M  V30 4541 C 426.921 2.03801 0.356756 0
M  V30 4542 C 427.336 1.14485 1.50129 0
M  V30 4543 O 426.693 0.163121 1.8177 0
M  V30 4544 C 426.744 3.51455 0.846281 0
M  V30 4545 O 426.465 4.37371 -0.252663 0
M  V30 4546 C 427.966 4.15767 1.53794 0
M  V30 4547 H 425.186 0.665906 0.0825218 0
M  V30 4548 H 427.73 2.00636 -0.39566 0
M  V30 4549 H 425.885 3.55092 1.54881 0
M  V30 4550 H 426.299 5.24358 0.122173 0
M  V30 4551 H 427.773 5.20714 1.83198 0
M  V30 4552 H 428.25 3.63404 2.46646 0
M  V30 4553 H 428.856 4.16107 0.879488 0
M  V30 4554 N 427.171 -0.0066808 1.57599 0
M  V30 4555 C 428.587 -0.36267 1.55425 0
M  V30 4556 C 428.787 -1.75209 0.995187 0
M  V30 4557 O 427.843 -2.44616 0.626058 0
M  V30 4558 C 429.156 -0.244017 2.99708 0
M  V30 4559 C 430.704 -0.319451 3.11366 0
M  V30 4560 C 431.179 -0.229998 4.57422 0
M  V30 4561 N 432.67 -0.288105 4.62303 0
M  V30 4562 C 433.405 -0.242127 5.72889 0
M  V30 4563 N 432.901 -0.147133 6.92644 0
M  V30 4564 N 434.694 -0.293502 5.61333 0
M  V30 4565 H 426.845 0.902314 1.92281 0
M  V30 4566 H 429.108 0.34525 0.882896 0
M  V30 4567 H 428.814 0.711678 3.44424 0
M  V30 4568 H 428.688 -1.02877 3.629 0
M  V30 4569 H 431.075 -1.26559 2.66584 0
M  V30 4570 H 431.156 0.495055 2.50964 0
M  V30 4571 H 430.8 0.712566 5.02877 0
M  V30 4572 H 430.73 -1.0629 5.15761 0
M  V30 4573 H 433.221 -0.363126 3.76151 0
M  V30 4574 H 433.534 -0.117763 7.7271 0
M  V30 4575 H 431.879 -0.112857 6.94908 0
M  V30 4576 H 435.07 -0.365864 4.66668 0
M  V30 4577 H 435.243 -0.254204 6.47501 0
M  V30 4578 N 428.649 -1.55105 -0.279332 0
M  V30 4579 C 429.898 -1.74618 -1.00952 0
M  V30 4580 C 430.211 -0.551096 -1.87676 0
M  V30 4581 O 431.417 -0.628507 -2.64125 0
M  V30 4582 C 429.873 -3.09025 -1.84476 0
M  V30 4583 C 429.481 -4.36081 -1.0265 0
M  V30 4584 C 431.225 -3.37891 -2.56963 0
M  V30 4585 C 429.132 -5.6153 -1.85576 0
M  V30 4586 H 428.062 -0.650868 -0.38064 0
M  V30 4587 H 430.713 -1.81569 -0.265475 0
M  V30 4588 H 429.095 -2.96095 -2.62952 0
M  V30 4589 H 430.269 -4.59909 -0.286354 0
M  V30 4590 H 428.584 -4.14312 -0.416464 0
M  V30 4591 H 431.181 -4.28822 -3.19399 0
M  V30 4592 H 431.524 -2.57737 -3.26921 0
M  V30 4593 H 432.057 -3.5189 -1.85522 0
M  V30 4594 H 428.796 -6.44413 -1.2005 0
M  V30 4595 H 428.316 -5.41854 -2.57204 0
M  V30 4596 H 429.995 -5.99594 -2.43096 0
M  V30 4597 N 430.127 0.543554 -1.4793 0
M  V30 4598 C 431.057 1.65888 -1.64327 0
M  V30 4599 C 432.038 1.62818 -0.492383 0
M  V30 4600 O 433.223 1.80226 -0.723338 0
M  V30 4601 C 430.353 3.04506 -1.67013 0
M  V30 4602 C 429.307 3.2243 -2.81466 0
M  V30 4603 C 428.633 4.61972 -2.69233 0
M  V30 4604 C 429.933 3.06496 -4.22915 0
M  V30 4605 H 431.627 1.52421 -2.57698 0
M  V30 4606 H 429.173 0.731849 -1.24016 0
M  V30 4607 H 431.126 3.82391 -1.77074 0
M  V30 4608 H 429.85 3.18964 -0.70212 0
M  V30 4609 H 428.509 2.46957 -2.70938 0
M  V30 4610 H 428.157 4.73247 -1.7043 0
M  V30 4611 H 427.857 4.74911 -3.46025 0
M  V30 4612 H 429.381 5.41974 -2.81242 0
M  V30 4613 H 430.795 3.74186 -4.34348 0
M  V30 4614 H 429.192 3.30938 -5.006 0
M  V30 4615 H 430.262 2.03077 -4.40327 0
M  V30 4616 N 431.605 1.3629 0.791371 0
M  V30 4617 C 432.537 1.26321 1.91248 0
M  V30 4618 C 433.55 0.18313 1.61767 0
M  V30 4619 O 434.739 0.437682 1.73051 0
M  V30 4620 C 431.839 0.925901 3.26007 0
M  V30 4621 C 431.012 2.10746 3.83281 0
M  V30 4622 C 430.071 1.74352 4.96475 0
M  V30 4623 O 429.097 2.46416 5.13096 0
M  V30 4624 N 430.299 0.676058 5.7655 0
M  V30 4625 H 433.064 2.22915 2.00323 0
M  V30 4626 H 430.625 1.29659 0.969546 0
M  V30 4627 H 432.617 0.663636 3.99222 0
M  V30 4628 H 431.187 0.0491581 3.12561 0
M  V30 4629 H 430.407 2.53264 3.02077 0
M  V30 4630 H 431.695 2.8969 4.18279 0
M  V30 4631 H 431.093 0.0776467 5.65647 0
M  V30 4632 H 429.65 0.473612 6.50077 0
M  V30 4633 N 433.083 -1.0153 1.20538 0
M  V30 4634 C 434.031 -2.12215 0.952235 0
M  V30 4635 C 435.025 -1.69123 -0.0968735 0
M  V30 4636 O 436.231 -1.7992 0.0536006 0
M  V30 4637 H 432.606 -0.693576 0.290613 0
M  V30 4638 H 434.577 -2.3075 1.89201 0
M  V30 4639 C 433.326 -3.43755 0.522287 0
M  V30 4640 H 432.649 -3.7734 1.32115 0
M  V30 4641 H 434.089 -4.22254 0.384389 0
M  V30 4642 C 432.548 -3.28088 -0.765489 0
M  V30 4643 O 433.078 -3.57921 -1.8236 0
M  V30 4644 N 431.284 -2.81333 -0.728011 0
M  V30 4645 H 430.831 -2.57255 0.133332 0
M  V30 4646 H 430.789 -2.71232 -1.58999 0
M  V30 4647 N 434.561 -1.01147 -1.20859 0
M  V30 4648 C 435.786 -0.716698 -1.94623 0
M  V30 4649 C 436.211 0.715415 -1.73964 0
M  V30 4650 O 435.569 1.49157 -1.03062 0
M  V30 4651 C 435.617 -1.0513 -3.44935 0
M  V30 4652 O 434.721 -0.160131 -4.12089 0
M  V30 4653 H 434.062 -0.266404 -0.608214 0
M  V30 4654 H 436.592 -1.35346 -1.53436 0
M  V30 4655 H 436.602 -1.00086 -3.95533 0
M  V30 4656 H 435.277 -2.09475 -3.59295 0
M  V30 4657 H 433.854 -0.267657 -3.71938 0
M  V30 4658 N 436.039 1.36541 -0.78704 0
M  V30 4659 C 436.969 2.32659 -0.197992 0
M  V30 4660 C 437.95 1.56533 0.665697 0
M  V30 4661 O 439.135 1.84698 0.60001 0
M  V30 4662 C 436.265 3.40778 0.669901 0
M  V30 4663 C 435.219 4.27897 -0.0937039 0
M  V30 4664 C 434.545 5.27163 0.894629 0
M  V30 4665 C 435.845 5.06334 -1.28154 0
M  V30 4666 H 437.539 2.82171 -1.00099 0
M  V30 4667 H 435.085 1.35665 -0.482793 0
M  V30 4668 H 437.038 4.07008 1.09191 0
M  V30 4669 H 435.762 2.89827 1.50558 0
M  V30 4670 H 434.421 3.6322 -0.49666 0
M  V30 4671 H 434.069 4.72486 1.72527 0
M  V30 4672 H 433.769 5.86317 0.388149 0
M  V30 4673 H 435.293 5.96266 1.31525 0
M  V30 4674 H 436.707 5.65617 -0.93541 0
M  V30 4675 H 435.104 5.74888 -1.72115 0
M  V30 4676 H 436.174 4.38114 -2.07807 0
M  V30 4677 N 437.518 0.538854 1.48102 0
M  V30 4678 C 438.766 0.00798599 2.02098 0
M  V30 4679 C 439.087 -1.33922 1.41739 0
M  V30 4680 O 438.357 -1.86932 0.585934 0
M  V30 4681 H 436.937 -3.62179e-05 0.747 0
M  V30 4682 H 439.599 0.7047 1.81714 0
M  V30 4683 H 438.695 -0.0937672 3.11959 0
M  V30 4684 N 438.996 -1.55193 0.274407 0
M  V30 4685 C 440.244 -1.99187 -0.341902 0
M  V30 4686 C 440.565 -1.16422 -1.56431 0
M  V30 4687 O 439.835 -0.253573 -1.94252 0
M  V30 4688 H 438.415 -0.735721 -0.129317 0
M  V30 4689 H 441.077 -1.91168 0.379578 0
M  V30 4690 H 440.173 -3.05629 -0.632253 0
M  V30 4691 N 440.474 -0.00167713 -1.576 0
M  V30 4692 C 441.422 1.0074 -2.09652 0
M  V30 4693 C 442.416 1.35483 -1.01689 0
M  V30 4694 O 443.622 1.34028 -1.20152 0
M  V30 4695 H 439.997 0.342537 -0.669457 0
M  V30 4696 H 441.968 0.542841 -2.93421 0
M  V30 4697 C 440.717 2.2899 -2.61647 0
M  V30 4698 H 440.04 2.03124 -3.44355 0
M  V30 4699 H 441.48 2.9787 -3.01744 0
M  V30 4700 C 439.939 3.00085 -1.53136 0
M  V30 4701 O 440.469 3.91135 -0.91524 0
M  V30 4702 N 438.675 2.6194 -1.25841 0
M  V30 4703 H 438.222 1.8798 -1.76129 0
M  V30 4704 H 438.18 3.09822 -0.534576 0
M  V30 4705 N 441.952 1.55251 0.271103 0
M  V30 4706 C 442.915 1.87484 1.31842 0
M  V30 4707 C 443.915 0.749545 1.42262 0
M  V30 4708 O 445.105 1.01771 1.4138 0
M  V30 4709 C 442.237 2.0818 2.69951 0
M  V30 4710 H 443.43 2.81108 1.0449 0
M  V30 4711 H 440.983 1.47771 0.509258 0
M  V30 4712 H 441.718 1.16944 3.02481 0
M  V30 4713 H 441.503 2.90114 2.63774 0
M  V30 4714 H 442.993 2.34385 3.4562 0
M  V30 4715 N 443.43 -0.535701 1.48216 0
M  V30 4716 C 444.377 -1.64083 1.62312 0
M  V30 4717 C 445.347 -1.59448 0.465365 0
M  V30 4718 O 446.532 -1.77959 0.688135 0
M  V30 4719 C 443.672 -3.0236 1.66349 0
M  V30 4720 C 442.785 -3.17273 2.93193 0
M  V30 4721 C 441.92 -4.46075 2.88427 0
M  V30 4722 C 440.959 -4.54496 4.1 0
M  V30 4723 N 440.096 -5.7468 4.03345 0
M  V30 4724 H 444.936 -1.51374 2.5669 0
M  V30 4725 H 442.473 -0.737059 1.27302 0
M  V30 4726 H 444.431 -3.82461 1.66672 0
M  V30 4727 H 443.061 -3.13854 0.754672 0
M  V30 4728 H 442.113 -2.30462 3.02641 0
M  V30 4729 H 443.425 -3.19357 3.83162 0
M  V30 4730 H 442.579 -5.3446 2.87119 0
M  V30 4731 H 441.318 -4.46504 1.96177 0
M  V30 4732 H 440.323 -3.64519 4.11589 0
M  V30 4733 H 441.548 -4.5581 5.03402 0
M  V30 4734 H 439.494 -5.76017 3.13912 0
M  V30 4735 H 439.411 -5.78234 4.87013 0
M  V30 4736 H 440.679 -6.65367 4.06087 0
M  V30 4737 N 444.908 -1.36708 -0.784132 0
M  V30 4738 C 446.136 -1.34398 -1.57305 0
M  V30 4739 C 446.551 0.0735577 -1.88657 0
M  V30 4740 O 445.908 1.03193 -1.50524 0
M  V30 4741 C 445.959 -2.17053 -2.89085 0
M  V30 4742 O 445.68 -3.53281 -2.59083 0
M  V30 4743 C 447.181 -2.22583 -3.83369 0
M  V30 4744 H 444.401 -0.460819 -0.487736 0
M  V30 4745 H 446.945 -1.79879 -0.972819 0
M  V30 4746 H 445.1 -1.75113 -3.45564 0
M  V30 4747 H 445.514 -3.9647 -3.43383 0
M  V30 4748 H 446.988 -2.84763 -4.72878 0
M  V30 4749 H 447.465 -1.23075 -4.21603 0
M  V30 4750 H 448.071 -2.64781 -3.32823 0
M  V30 4751 N 446.386 1.0089 -1.21074 0
M  V30 4752 C 447.802 1.2695 -0.967257 0
M  V30 4753 C 448.002 1.9846 0.348673 0
M  V30 4754 O 447.058 2.28459 1.0753 0
M  V30 4755 C 448.371 2.09697 -2.15517 0
M  V30 4756 C 449.919 2.22937 -2.197 0
M  V30 4757 C 450.394 3.09064 -3.37999 0
M  V30 4758 N 451.885 3.16653 -3.38061 0
M  V30 4759 C 452.62 3.8354 -4.26245 0
M  V30 4760 N 452.116 4.52488 -5.2462 0
M  V30 4761 N 453.909 3.80141 -4.14064 0
M  V30 4762 H 446.06 0.529005 -2.05707 0
M  V30 4763 H 448.323 0.296148 -0.900556 0
M  V30 4764 H 448.029 1.64497 -3.10859 0
M  V30 4765 H 447.903 3.10444 -2.14253 0
M  V30 4766 H 450.29 2.67357 -1.24916 0
M  V30 4767 H 450.371 1.21673 -2.2501 0
M  V30 4768 H 450.015 2.65347 -4.33074 0
M  V30 4769 H 449.945 4.10433 -3.29928 0
M  V30 4770 H 452.436 2.67566 -2.66865 0
M  V30 4771 H 452.749 5.01219 -5.88217 0
M  V30 4772 H 451.094 4.51288 -5.28549 0
M  V30 4773 H 454.285 3.25427 -3.36474 0
M  V30 4774 H 454.458 4.31992 -4.82998 0
M  V30 4775 N 447.864 1.01787 1.20321 0
M  V30 4776 C 449.113 0.703249 1.89043 0
M  V30 4777 C 449.426 -0.770445 1.79787 0
M  V30 4778 O 450.632 -1.19767 2.43656 0
M  V30 4779 C 449.088 1.20749 3.3904 0
M  V30 4780 C 448.696 2.70817 3.56878 0
M  V30 4781 C 450.44 0.968352 4.13308 0
M  V30 4782 C 448.347 3.14716 5.00708 0
M  V30 4783 H 447.277 0.259354 0.707991 0
M  V30 4784 H 449.928 1.23072 1.36108 0
M  V30 4785 H 448.31 0.607989 3.91305 0
M  V30 4786 H 449.484 3.36327 3.14993 0
M  V30 4787 H 447.799 2.92888 2.95983 0
M  V30 4788 H 450.396 1.27173 5.19356 0
M  V30 4789 H 450.739 -0.095149 4.16191 0
M  V30 4790 H 451.272 1.53129 3.67146 0
M  V30 4791 H 448.011 4.20347 5.02979 0
M  V30 4792 H 447.531 2.53927 5.43398 0
M  V30 4793 H 449.21 3.07426 5.69296 0
M  V30 4794 N 449.342 -1.36122 0.79427 0
M  V30 4795 C 450.591 -1.98361 0.365464 0
M  V30 4796 C 450.904 -1.6374 -1.06997 0
M  V30 4797 O 452.11 -2.19251 -1.60129 0
M  V30 4798 C 450.566 -3.54821 0.602496 0
M  V30 4799 C 450.174 -3.98362 2.04967 0
M  V30 4800 C 451.918 -4.2383 0.238437 0
M  V30 4801 C 449.825 -5.47619 2.2331 0
M  V30 4802 H 448.755 -0.742193 0.13291 0
M  V30 4803 H 451.406 -1.55354 0.976589 0
M  V30 4804 H 449.788 -3.95922 -0.078409 0
M  V30 4805 H 450.962 -3.68447 2.76737 0
M  V30 4806 H 449.277 -3.42206 2.37243 0
M  V30 4807 H 451.874 -5.33529 0.353705 0
M  V30 4808 H 452.217 -4.08264 -0.814006 0
M  V30 4809 H 452.75 -3.88108 0.872769 0
M  V30 4810 H 449.489 -5.68138 3.26955 0
M  V30 4811 H 449.009 -5.79145 1.5605 0
M  V30 4812 H 450.688 -6.13911 2.0426 0
M  V30 4813 N 450.82 -0.546701 -1.47814 0
M  V30 4814 C 452.06 -0.0209604 -2.04389 0
M  V30 4815 C 452.424 1.29993 -1.413 0
M  V30 4816 O 453.625 1.91273 -1.8886 0
M  V30 4817 C 451.896 0.0812844 -3.57308 0
M  V30 4818 S 453.455 0.55467 -4.3528 0
M  V30 4819 H 450.273 -0.0200865 -0.710716 0
M  V30 4820 H 452.875 -0.731055 -1.81317 0
M  V30 4821 H 451.579 -0.884616 -4.00753 0
M  V30 4822 H 451.11 0.815253 -3.8486 0
M  V30 4823 H 453.125 1.81627 -4.61764 0
M  V30 4824 N 452.299 1.55045 -0.282633 0
M  V30 4825 C 453.527 2.04168 0.33512 0
M  V30 4826 C 453.942 1.16071 1.48906 0
M  V30 4827 O 453.299 0.182391 1.81586 0
M  V30 4828 C 453.35 3.52332 0.808957 0
M  V30 4829 O 453.071 4.37078 -0.299038 0
M  V30 4830 C 454.572 4.17375 1.49375 0
M  V30 4831 H 451.792 0.666744 0.0754543 0
M  V30 4832 H 454.336 2.00205 -0.416918 0
M  V30 4833 H 452.491 3.56715 1.51106 0
M  V30 4834 H 452.905 5.24458 0.0665514 0
M  V30 4835 H 454.379 5.22627 1.77664 0
M  V30 4836 H 454.856 3.65999 2.42778 0
M  V30 4837 H 455.462 4.17016 0.835305 0
M  V30 4838 N 453.777 0.010035 1.57597 0
M  V30 4839 C 455.026 -0.671945 1.90178 0
M  V30 4840 C 455.339 -1.74376 0.886131 0
M  V30 4841 O 456.545 -2.48107 1.10252 0
M  V30 4842 C 455.001 -1.24636 3.3763 0
M  V30 4843 C 454.609 -0.208838 4.47513 0
M  V30 4844 C 456.353 -1.90595 3.79307 0
M  V30 4845 C 454.26 -0.793814 5.86048 0
M  V30 4846 H 453.19 -0.25474 0.709665 0
M  V30 4847 H 455.841 0.0722206 1.83358 0
M  V30 4848 H 454.223 -2.04152 3.3932 0
M  V30 4849 H 455.397 0.562463 4.57354 0
M  V30 4850 H 453.712 0.350889 4.14919 0
M  V30 4851 H 456.309 -2.35284 4.80151 0
M  V30 4852 H 456.652 -2.74074 3.13352 0
M  V30 4853 H 457.185 -1.17798 3.79958 0
M  V30 4854 H 453.924 0.00240855 6.555 0
M  V30 4855 H 453.444 -1.53404 5.79851 0
M  V30 4856 H 455.123 -1.2894 6.34022 0
M  V30 4857 N 455.255 -1.55392 -0.262866 0
M  V30 4858 C 456.483 -1.80513 -1.01108 0
M  V30 4859 C 456.898 -0.583533 -1.79556 0
M  V30 4860 O 456.255 0.447585 -1.76926 0
M  V30 4861 C 456.306 -3.03648 -1.96164 0
M  V30 4862 O 456.027 -4.2109 -1.20893 0
M  V30 4863 C 457.528 -3.41448 -2.82715 0
M  V30 4864 H 454.748 -0.601079 -0.298236 0
M  V30 4865 H 457.292 -2.02425 -0.290582 0
M  V30 4866 H 455.447 -2.83832 -2.63663 0
M  V30 4867 H 455.861 -4.90771 -1.85051 0
M  V30 4868 H 457.335 -4.30751 -3.45192 0
M  V30 4869 H 457.812 -2.61308 -3.53008 0
M  V30 4870 H 458.418 -3.63559 -2.20693 0
M  V30 4871 N 456.733 0.527833 -1.48498 0
M  V30 4872 C 458.144 1.10975 -1.50138 0
M  V30 4873 C 458.495 1.943 -0.272378 0
M  V30 4874 O 457.62 2.07319 0.620301 0
M  V30 4875 C 458.215 2.01927 -2.72049 0
M  V30 4876 C 456.774 2.55332 -2.76554 0
M  V30 4877 C 455.921 1.32341 -2.43683 0
M  V30 4878 H 458.872 0.312986 -1.55583 0
M  V30 4879 H 458.893 2.86244 -2.50689 0
M  V30 4880 H 458.405 1.41254 -3.61481 0
M  V30 4881 H 456.506 3.19721 -1.91336 0
M  V30 4882 H 456.619 2.94319 -3.78038 0
M  V30 4883 H 454.983 1.63989 -1.94884 0
M  V30 4884 H 455.766 0.734165 -3.35358 0
M  V30 4885 N 458.211 1.37122 0.776871 0
M  V30 4886 C 459.457 1.32243 1.53752 0
M  V30 4887 C 459.79 -0.0944745 1.9397 0
M  V30 4888 O 459.065 -1.05068 1.6368 0
M  V30 4889 C 459.348 2.25681 2.80607 0
M  V30 4890 C 459.201 3.76127 2.46676 0
M  V30 4891 C 460.52 2.17657 3.82509 0
M  V30 4892 H 457.639 0.481704 0.557791 0
M  V30 4893 H 460.281 1.6778 0.891612 0
M  V30 4894 H 458.431 1.95505 3.35723 0
M  V30 4895 H 460.103 4.16877 1.97513 0
M  V30 4896 H 458.346 3.94946 1.79443 0
M  V30 4897 H 459.017 4.36933 3.37333 0
M  V30 4898 H 461.493 2.44245 3.36873 0
M  V30 4899 H 460.369 2.85185 4.69 0
M  V30 4900 H 460.63 1.16785 4.26396 0
M  V30 4901 N 459.689 -1.00246 1.21608 0
M  V30 4902 C 460.914 -1.78167 1.06167 0
M  V30 4903 C 461.339 -1.84138 -0.384035 0
M  V30 4904 O 460.697 -1.28683 -1.27712 0
M  V30 4905 C 460.745 -3.19786 1.66642 0
M  V30 4906 O 459.849 -4.02153 0.913613 0
M  V30 4907 H 459.19 -0.549 0.37349 0
M  V30 4908 H 461.72 -1.25994 1.61204 0
M  V30 4909 H 461.73 -3.70451 1.70969 0
M  V30 4910 H 460.405 -3.14754 2.7185 0
M  V30 4911 H 458.982 -3.60711 0.945635 0
M  V30 4912 N 461.167 -1.02423 -1.1978 0
M  V30 4913 C 462.414 -0.717988 -1.89344 0
M  V30 4914 C 462.742 0.753036 -1.79331 0
M  V30 4915 O 461.997 1.56355 -1.17692 0
M  V30 4916 C 462.296 -1.1088 -3.39765 0
M  V30 4917 C 461.962 -2.57731 -3.6998 0
M  V30 4918 C 460.624 -2.97854 -3.77937 0
M  V30 4919 C 462.976 -3.52763 -3.83677 0
M  V30 4920 C 460.304 -4.31931 -3.97054 0
M  V30 4921 C 462.656 -4.86538 -4.04306 0
M  V30 4922 C 461.32 -5.26356 -4.10494 0
M  V30 4923 H 460.59 -0.26273 -0.692859 0
M  V30 4924 H 463.237 -1.28623 -1.41875 0
M  V30 4925 H 461.542 -0.459094 -3.89101 0
M  V30 4926 H 463.239 -0.849432 -3.919 0
M  V30 4927 H 459.829 -2.25646 -3.64393 0
M  V30 4928 H 464.013 -3.2292 -3.76877 0
M  V30 4929 H 459.269 -4.62324 -4.00083 0
M  V30 4930 H 463.443 -5.60093 -4.13846 0
M  V30 4931 H 461.07 -6.3026 -4.2506 0
M  V30 4932 N 462.645 1.35699 -0.801477 0
M  V30 4933 C 463.922 1.9324 -0.302937 0
M  V30 4934 C 464.302 1.73209 1.20672 0
M  V30 4935 O 463.65 1.09809 2.00385 0
M  V30 4936 C 463.86 3.41728 -0.708747 0
M  V30 4937 C 465.208 4.18868 -0.695328 0
M  V30 4938 O 466.232 3.5022 -0.649971 0
M  V30 4939 O 465.091 5.41342 -0.749081 0
M  V30 4940 H 462.185 0.82331 -0.0780367 0
M  V30 4941 H 464.731 1.44806 -0.884832 0
M  V30 4942 H 463.503 3.50015 -1.74944 0
M  V30 4943 H 463.126 3.97471 -0.101384 0
M  V30 4944 N 464.123 0.554532 1.47522 0
M  V30 4945 C 465.033 -0.197865 2.33764 0
M  V30 4946 C 466.049 -0.914576 1.48025 0
M  V30 4947 O 467.225 -0.884067 1.80959 0
M  V30 4948 C 464.29 -1.21628 3.24665 0
M  V30 4949 C 463.351 -0.507283 4.26292 0
M  V30 4950 C 462.584 -1.47718 5.1285 0
M  V30 4951 O 462.807 -2.7118 5.01814 0
M  V30 4952 O 461.741 -1.00313 5.93482 0
M  V30 4953 H 465.567 0.50949 2.99396 0
M  V30 4954 H 463.152 0.315176 1.46038 0
M  V30 4955 H 465.034 -1.80421 3.80823 0
M  V30 4956 H 463.709 -1.9056 2.61665 0
M  V30 4957 H 462.616 0.121778 3.73902 0
M  V30 4958 H 463.949 0.140544 4.91999 0
M  V30 4959 N 465.601 -1.54893 0.290851 0
M  V30 4960 C 466.829 -2.04343 -0.324288 0
M  V30 4961 C 467.244 -1.16859 -1.48289 0
M  V30 4962 O 466.601 -0.192018 -1.81487 0
M  V30 4963 C 466.652 -3.52756 -0.79026 0
M  V30 4964 O 466.373 -4.36913 0.322213 0
M  V30 4965 C 467.874 -4.18161 -1.4716 0
M  V30 4966 H 465.094 -0.667135 -0.0719173 0
M  V30 4967 H 467.638 -1.99981 0.427529 0
M  V30 4968 H 465.793 -3.57511 -1.49213 0
M  V30 4969 H 466.207 -5.24486 -0.0387372 0
M  V30 4970 H 467.681 -5.23562 -1.7489 0
M  V30 4971 H 468.158 -3.67282 -2.40834 0
M  V30 4972 H 468.764 -4.17454 -0.813178 0
M  V30 4973 N 467.08 -0.0183926 -1.57589 0
M  V30 4974 C 468.01 0.965596 -2.12599 0
M  V30 4975 C 468.991 1.34641 -1.0395 0
M  V30 4976 O 470.176 1.42693 -1.31729 0
M  V30 4977 C 467.306 2.25149 -2.64434 0
M  V30 4978 C 466.26 2.01175 -3.77773 0
M  V30 4979 C 465.586 3.35937 -4.15994 0
M  V30 4980 C 466.886 1.35953 -5.04296 0
M  V30 4981 H 468.58 0.507504 -2.95067 0
M  V30 4982 H 466.126 0.242671 -1.41941 0
M  V30 4983 H 468.079 2.94357 -3.01549 0
M  V30 4984 H 466.803 2.73105 -1.79112 0
M  V30 4985 H 465.462 1.34388 -3.4108 0
M  V30 4986 H 465.11 3.81631 -3.27669 0
M  V30 4987 H 464.81 3.20705 -4.92364 0
M  V30 4988 H 466.334 4.0643 -4.55683 0
M  V30 4989 H 467.748 1.95144 -5.39065 0
M  V30 4990 H 466.145 1.31152 -5.85593 0
M  V30 4991 H 467.215 0.331071 -4.83768 0
M  V30 4992 N 468.558 1.5553 0.254621 0
M  V30 4993 C 469.786 1.81046 1.00149 0
M  V30 4994 C 470.201 0.593047 1.79244 0
M  V30 4995 O 469.558 -0.438196 1.77161 0
M  V30 4996 C 469.609 3.04684 1.94551 0
M  V30 4997 O 469.33 4.21725 1.18658 0
M  V30 4998 C 470.831 3.42943 2.80901 0
M  V30 4999 H 468.051 0.602653 0.295044 0
M  V30 5000 H 470.595 2.02576 0.279842 0
M  V30 5001 H 468.75 2.85226 2.62154 0
M  V30 5002 H 469.164 4.91746 1.82445 0
M  V30 5003 H 470.638 4.32576 3.42902 0
M  V30 5004 H 471.115 2.63176 3.51617 0
M  V30 5005 H 471.721 3.64724 2.18762 0
M  V30 5006 N 470.036 -0.519951 1.48776 0
M  V30 5007 C 470.999 -1.60574 1.6355 0
M  V30 5008 C 471.999 -1.52557 0.508234 0
M  V30 5009 O 473.189 -1.56047 0.774262 0
M  V30 5010 C 470.321 -3.00211 1.61512 0
M  V30 5011 H 471.514 -1.4881 2.60376 0
M  V30 5012 H 469.067 -0.742772 1.37523 0
M  V30 5013 H 469.802 -3.17471 0.662009 0
M  V30 5014 H 469.587 -3.07439 2.43359 0
M  V30 5015 H 471.077 -3.79134 1.75064 0
M  V30 5016 N 471.514 -1.37532 -0.769588 0
M  V30 5017 C 472.444 -1.36172 -1.89682 0
M  V30 5018 C 473.425 -0.23001 -1.68538 0
M  V30 5019 O 474.61 -0.43069 -1.89364 0
M  V30 5020 C 471.74 -1.1701 -3.26995 0
M  V30 5021 C 470.694 -2.27216 -3.62708 0
M  V30 5022 C 470.02 -1.93174 -4.98586 0
M  V30 5023 C 471.32 -3.6941 -3.69234 0
M  V30 5024 H 473.014 -2.30499 -1.91078 0
M  V30 5025 H 470.56 -1.10953 -0.917902 0
M  V30 5026 H 472.513 -1.14688 -4.05493 0
M  V30 5027 H 471.237 -0.191395 -3.26039 0
M  V30 5028 H 469.896 -2.28697 -2.86519 0
M  V30 5029 H 469.544 -0.938281 -4.94171 0
M  V30 5030 H 469.244 -2.66973 -5.23449 0
M  V30 5031 H 470.768 -1.92443 -5.79481 0
M  V30 5032 H 472.182 -3.70047 -4.37879 0
M  V30 5033 H 470.579 -4.4228 -4.05597 0
M  V30 5034 H 471.649 -4.0288 -2.69844 0
M  V30 5035 N 472.992 0.995999 -1.22138 0
M  V30 5036 C 473.924 2.08745 -0.946485 0
M  V30 5037 C 474.937 1.62633 0.0737356 0
M  V30 5038 O 476.126 1.77782 -0.159886 0
M  V30 5039 C 473.226 3.36516 -0.401305 0
M  V30 5040 C 472.399 4.11672 -1.47801 0
M  V30 5041 C 471.458 5.17728 -0.940461 0
M  V30 5042 O 470.484 5.45482 -1.62596 0
M  V30 5043 N 471.686 5.80005 0.239723 0
M  V30 5044 H 474.451 2.32908 -1.88611 0
M  V30 5045 H 472.012 1.16152 -1.12785 0
M  V30 5046 H 474.004 4.04691 -0.0270837 0
M  V30 5047 H 472.574 3.0944 0.443354 0
M  V30 5048 H 471.794 3.38171 -2.02568 0
M  V30 5049 H 473.082 4.58657 -2.20253 0
M  V30 5050 H 472.48 5.5982 0.813518 0
M  V30 5051 H 471.037 6.4943 0.555361 0
M  V30 5052 N 474.47 1.03057 1.19235 0
M  V30 5053 C 475.717 0.728019 1.88961 0
M  V30 5054 C 476.045 -0.743515 1.79728 0
M  V30 5055 O 475.3 -1.55729 1.1852 0
M  V30 5056 C 475.599 1.1268 3.39172 0
M  V30 5057 C 475.265 2.5969 3.68608 0
M  V30 5058 C 473.927 2.99854 3.76352 0
M  V30 5059 C 476.279 3.54793 3.81801 0
M  V30 5060 C 473.607 4.34031 3.94758 0
M  V30 5061 C 475.959 4.88675 4.0172 0
M  V30 5062 C 474.623 5.28526 4.07697 0
M  V30 5063 H 473.893 0.266401 0.691456 0
M  V30 5064 H 476.54 1.29373 1.41191 0
M  V30 5065 H 474.845 0.479722 3.88852 0
M  V30 5066 H 476.542 0.870203 3.91444 0
M  V30 5067 H 473.132 2.27575 3.63191 0
M  V30 5068 H 477.316 3.24914 3.7516 0
M  V30 5069 H 472.572 4.6444 3.97625 0
M  V30 5070 H 476.746 5.6228 4.1087 0
M  V30 5071 H 474.373 6.32506 4.21712 0
M  V30 5072 N 475.948 -1.35272 0.808662 0
M  V30 5073 C 476.911 -2.28082 0.226093 0
M  V30 5074 C 477.911 -1.49673 -0.587762 0
M  V30 5075 O 479.101 -1.69404 -0.405943 0
M  V30 5076 C 476.233 -3.33955 -0.684596 0
M  V30 5077 H 477.426 -2.81116 1.04469 0
M  V30 5078 H 474.979 -1.45162 0.579466 0
M  V30 5079 H 475.714 -2.86111 -1.5268 0
M  V30 5080 H 475.499 -3.91965 -0.102699 0
M  V30 5081 H 476.989 -4.03219 -1.08646 0
M  V30 5082 N 477.426 -0.562348 -1.47226 0
M  V30 5083 C 478.651 -0.0432632 -2.07355 0
M  V30 5084 C 479.076 1.24332 -1.41149 0
M  V30 5085 O 478.434 1.74603 -0.488226 0
M  V30 5086 C 478.482 0.130288 -3.60365 0
M  V30 5087 O 477.586 1.19166 -3.94808 0
M  V30 5088 H 476.927 -0.0536334 -0.66183 0
M  V30 5089 H 479.457 -0.779495 -1.89169 0
M  V30 5090 H 479.467 0.342881 -4.06557 0
M  V30 5091 H 478.142 -0.809389 -4.07948 0
M  V30 5092 H 476.719 0.959153 -3.60354 0
M  V30 5093 N 478.904 1.54736 -0.299062 0
M  V30 5094 C 480.132 2.04512 0.313447 0
M  V30 5095 C 480.547 1.17643 1.47667 0
M  V30 5096 O 479.904 0.20164 1.81383 0
M  V30 5097 C 479.955 3.53171 0.771542 0
M  V30 5098 O 479.676 4.36736 -0.345379 0
M  V30 5099 C 481.177 4.18936 1.4494 0
M  V30 5100 H 478.397 0.667507 0.0683784 0
M  V30 5101 H 480.941 1.99752 -0.438129 0
M  V30 5102 H 479.096 3.58298 1.47314 0
M  V30 5103 H 479.51 5.24499 0.0109219 0
M  V30 5104 H 480.984 5.24482 1.72111 0
M  V30 5105 H 481.461 3.68554 2.38883 0
M  V30 5106 H 482.067 4.17879 0.791028 0
M  V30 5107 N 480.382 0.0267497 1.57577 0
M  V30 5108 C 481.345 -0.940916 2.08996 0
M  V30 5109 C 482.345 -1.25561 1.00455 0
M  V30 5110 O 483.535 -1.19634 1.26623 0
M  V30 5111 C 480.667 -2.25814 2.55384 0
M  V30 5112 H 481.86 -0.495628 2.95776 0
M  V30 5113 H 479.413 -0.221241 1.54726 0
M  V30 5114 H 480.148 -2.74976 1.71926 0
M  V30 5115 H 479.933 -2.04285 3.34679 0
M  V30 5116 H 481.423 -2.95178 2.95398 0
M  V30 5117 N 481.861 -1.55662 -0.24637 0
M  V30 5118 C 482.808 -1.90361 -1.30504 0
M  V30 5119 C 483.778 -0.757905 -1.47801 0
M  V30 5120 O 484.963 -1.01161 -1.61775 0
M  V30 5121 C 482.103 -2.2042 -2.65535 0
M  V30 5122 C 481.216 -3.47799 -2.56242 0
M  V30 5123 C 480.351 -3.67426 -3.8363 0
M  V30 5124 C 479.39 -4.88403 -3.68956 0
M  V30 5125 N 478.527 -5.04548 -4.88237 0
M  V30 5126 H 483.367 -2.80645 -1.00213 0
M  V30 5127 H 480.904 -1.38924 -0.483577 0
M  V30 5128 H 482.862 -2.35853 -3.44135 0
M  V30 5129 H 481.492 -1.3334 -2.93973 0
M  V30 5130 H 480.544 -3.40694 -1.69208 0
M  V30 5131 H 481.856 -4.36544 -2.4131 0
M  V30 5132 H 481.01 -3.82821 -4.70673 0
M  V30 5133 H 479.749 -2.76914 -4.01459 0
M  V30 5134 H 478.754 -4.72984 -2.80296 0
M  V30 5135 H 479.979 -5.80375 -3.52621 0
M  V30 5136 H 477.925 -4.16974 -5.06427 0
M  V30 5137 H 477.842 -5.87384 -4.75937 0
M  V30 5138 H 479.11 -5.24355 -5.76777 0
M  V30 5139 N 483.339 0.512053 -1.4905 0
M  V30 5140 C 484.569 1.28928 -1.61434 0
M  V30 5141 C 484.977 1.87107 -0.280647 0
M  V30 5142 O 484.32 1.68024 0.742537 0
M  V30 5143 C 484.382 2.466 -2.61588 0
M  V30 5144 C 484.046 2.09375 -4.06216 0
M  V30 5145 C 485.043 1.63994 -4.93358 0
M  V30 5146 C 482.728 2.19348 -4.51876 0
M  V30 5147 C 484.722 1.29076 -6.24194 0
M  V30 5148 C 482.409 1.84041 -5.82728 0
M  V30 5149 C 483.407 1.38978 -6.68711 0
M  V30 5150 O 483.095 1.04144 -7.97126 0
M  V30 5151 H 482.827 0.397668 -0.546659 0
M  V30 5152 H 485.381 0.622507 -1.9574 0
M  V30 5153 H 483.611 3.16318 -2.22441 0
M  V30 5154 H 485.3 3.08642 -2.63619 0
M  V30 5155 H 486.066 1.55744 -4.59313 0
M  V30 5156 H 481.945 2.53376 -3.85125 0
M  V30 5157 H 485.489 0.938303 -6.91261 0
M  V30 5158 H 481.386 1.91938 -6.16304 0
M  V30 5159 H 482.154 1.17387 -8.10039 0
M  V30 5160 N 484.817 1.37938 0.762283 0
M  V30 5161 C 485.75 1.2884 1.88349 0
M  V30 5162 C 486.728 0.167084 1.61739 0
M  V30 5163 O 487.912 0.34292 1.85355 0
M  V30 5164 C 485.039 0.994257 3.23778 0
M  V30 5165 C 484.085 2.13376 3.69287 0
M  V30 5166 S 484.918 3.75439 3.81845 0
M  V30 5167 C 486.074 3.48195 5.20107 0
M  V30 5168 H 486.307 2.23736 1.95779 0
M  V30 5169 H 483.84 1.23672 0.924368 0
M  V30 5170 H 485.798 0.83138 4.01993 0
M  V30 5171 H 484.459 0.0626251 3.14038 0
M  V30 5172 H 483.652 1.88319 4.67495 0
M  V30 5173 H 483.254 2.25726 2.98201 0
M  V30 5174 H 485.546 3.0377 6.05583 0
M  V30 5175 H 486.489 4.45765 5.50181 0
M  V30 5176 H 486.897 2.82905 4.88493 0
M  V30 5177 N 486.295 -0.989507 1.22664 0
M  V30 5178 C 487.242 -2.08024 0.999733 0
M  V30 5179 C 488.212 -1.65909 -0.0797047 0
M  V30 5180 O 489.397 -1.90669 0.0705715 0
M  V30 5181 C 486.537 -3.40067 0.587234 0
M  V30 5182 C 485.65 -3.95505 1.73781 0
M  V30 5183 C 484.785 -5.15722 1.27297 0
M  V30 5184 C 483.824 -5.63305 2.39488 0
M  V30 5185 N 482.961 -6.74758 1.94026 0
M  V30 5186 H 487.801 -2.26768 1.9334 0
M  V30 5187 H 485.338 -1.11171 0.963297 0
M  V30 5188 H 487.296 -4.15899 0.329227 0
M  V30 5189 H 485.926 -3.21314 -0.309426 0
M  V30 5190 H 484.978 -3.16513 2.11006 0
M  V30 5191 H 486.29 -4.26797 2.58158 0
M  V30 5192 H 485.444 -5.98854 0.972546 0
M  V30 5193 H 484.183 -4.86061 0.399445 0
M  V30 5194 H 483.188 -4.78759 2.70315 0
M  V30 5195 H 484.413 -5.94988 3.27362 0
M  V30 5196 H 482.359 -6.46874 1.09041 0
M  V30 5197 H 482.276 -7.05386 2.71968 0
M  V30 5198 H 483.544 -7.61387 1.67062 0
M  V30 5199 N 487.773 -1.03688 -1.18687 0
M  V30 5200 C 488.721 -0.618292 -2.24232 0
M  V30 5201 C 489.715 0.353045 -1.6568 0
M  V30 5202 O 490.921 0.220749 -1.78641 0
M  V30 5203 H 487.296 -0.181711 -0.729716 0
M  V30 5204 H 489.267 -1.51893 -2.56848 0
M  V30 5205 C 488.016 0.00677342 -3.47699 0
M  V30 5206 H 487.339 -0.731692 -3.93047 0
M  V30 5207 H 488.779 0.262492 -4.23187 0
M  V30 5208 C 487.238 1.25572 -3.12623 0
M  V30 5209 O 487.768 2.34691 -3.26011 0
M  V30 5210 N 485.974 1.14755 -2.66982 0
M  V30 5211 H 485.521 0.259601 -2.56289 0
M  V30 5212 H 485.479 1.98412 -2.43885 0
M  V30 5213 N 489.251 1.34841 -0.815825 0
M  V30 5214 C 490.479 2.0273 -0.413294 0
M  V30 5215 C 490.894 1.61459 0.978599 0
M  V30 5216 O 490.251 0.816584 1.63212 0
M  V30 5217 C 490.302 3.58058 -0.497676 0
M  V30 5218 O 490.023 3.97832 -1.8347 0
M  V30 5219 C 491.524 4.4321 -0.0891339 0
M  V30 5220 H 488.744 0.649956 -0.166728 0
M  V30 5221 H 491.288 1.72267 -1.10201 0
M  V30 5222 H 489.443 3.87136 0.142886 0
M  V30 5223 H 489.857 4.92501 -1.80396 0
M  V30 5224 H 491.331 5.5164 -0.199274 0
M  V30 5225 H 491.808 4.28432 0.966571 0
M  V30 5226 H 492.414 4.19446 -0.703214 0
M  V30 5227 N 490.729 0.570148 1.46925 0
M  V30 5228 C 492.14 0.1402 1.86173 0
M  V30 5229 C 492.491 -1.29347 1.47526 0
M  V30 5230 O 491.616 -1.97508 0.884292 0
M  V30 5231 C 492.211 0.247661 3.37894 0
M  V30 5232 C 490.77 -0.127332 3.76185 0
M  V30 5233 C 489.917 0.589349 2.70965 0
M  V30 5234 H 492.868 0.779117 1.38259 0
M  V30 5235 H 492.889 -0.530341 3.76786 0
M  V30 5236 H 492.401 1.29121 3.65991 0
M  V30 5237 H 490.502 -1.17149 3.53704 0
M  V30 5238 H 490.615 0.240238 4.78497 0
M  V30 5239 H 488.979 0.0309824 2.54681 0
M  V30 5240 H 489.762 1.6343 3.01903 0
M  V30 5241 N 492.207 -1.54576 0.307264 0
M  V30 5242 C 493.437 -2.04378 -0.302158 0
M  V30 5243 C 493.845 -1.18381 -1.47589 0
M  V30 5244 O 493.188 -0.20352 -1.82569 0
M  V30 5245 C 493.25 -3.50133 -0.815305 0
M  V30 5246 C 492.914 -4.56401 0.233977 0
M  V30 5247 C 493.911 -5.08884 1.06456 0
M  V30 5248 C 491.596 -5.0088 0.377478 0
M  V30 5249 C 493.59 -6.04394 2.02452 0
M  V30 5250 C 491.277 -5.96208 1.34088 0
M  V30 5251 C 492.275 -6.47849 2.16288 0
M  V30 5252 O 491.963 -7.41308 3.10994 0
M  V30 5253 H 491.695 -0.672502 -0.0686839 0
M  V30 5254 H 494.249 -2.00484 0.446682 0
M  V30 5255 H 492.479 -3.51371 -1.61478 0
M  V30 5256 H 494.168 -3.83098 -1.34129 0
M  V30 5257 H 494.934 -4.75311 0.964596 0
M  V30 5258 H 490.813 -4.60309 -0.252405 0
M  V30 5259 H 494.357 -6.44626 2.66652 0
M  V30 5260 H 490.254 -6.29198 1.44154 0
M  V30 5261 H 491.022 -7.5913 3.06045 0
M  V30 5262 N 493.685 -0.035106 -1.57561 0
M  V30 5263 C 494.931 0.64318 -1.92331 0
M  V30 5264 C 495.264 1.71434 -0.912368 0
M  V30 5265 O 494.539 1.94395 0.0640303 0
M  V30 5266 C 494.822 1.25411 -3.37556 0
M  V30 5267 C 494.675 0.192109 -4.4939 0
M  V30 5268 C 495.994 2.17041 -3.82859 0
M  V30 5269 H 493.113 0.232341 -0.699419 0
M  V30 5270 H 495.755 -0.0935889 -1.89769 0
M  V30 5271 H 493.905 1.88205 -3.39869 0
M  V30 5272 H 495.577 -0.438849 -4.59208 0
M  V30 5273 H 493.82 -0.481725 -4.31117 0
M  V30 5274 H 494.491 0.659292 -5.48049 0
M  V30 5275 H 496.967 1.64228 -3.8232 0
M  V30 5276 H 495.843 2.56738 -4.85157 0
M  V30 5277 H 496.104 3.06401 -3.18702 0
M  V30 5278 N 495.163 1.55791 0.238111 0
M  V30 5279 C 496.111 1.91885 1.31464 0
M  V30 5280 C 497.105 0.798929 1.49377 0
M  V30 5281 O 498.311 0.983626 1.50747 0
M  V30 5282 H 494.686 0.609551 0.440399 0
M  V30 5283 H 496.657 2.81747 0.982925 0
M  V30 5284 C 495.406 2.23763 2.6613 0
M  V30 5285 H 494.729 3.09444 2.53149 0
M  V30 5286 H 496.169 2.52915 3.40309 0
M  V30 5287 C 494.628 1.05699 3.1989 0
M  V30 5288 O 495.158 0.309524 4.00506 0
M  V30 5289 N 493.364 0.845251 2.78036 0
M  V30 5290 H 492.911 1.4548 2.12588 0
M  V30 5291 H 492.869 0.0569973 3.14348 0
M  V30 5292 N 496.642 -0.504142 1.49319 0
M  V30 5293 C 497.552 -1.63248 1.68486 0
M  V30 5294 C 498.568 -1.64488 0.567432 0
M  V30 5295 O 499.744 -1.82966 0.841749 0
M  V30 5296 C 496.809 -2.99627 1.74426 0
M  V30 5297 C 495.87 -3.09039 2.97982 0
M  V30 5298 C 495.103 -4.38913 3.0363 0
M  V30 5299 O 495.326 -5.27528 2.16958 0
M  V30 5300 O 494.26 -4.53231 3.96062 0
M  V30 5301 H 498.086 -1.50008 2.64067 0
M  V30 5302 H 495.671 -0.680086 1.33023 0
M  V30 5303 H 497.553 -3.80689 1.80705 0
M  V30 5304 H 496.228 -3.13136 0.820233 0
M  V30 5305 H 495.135 -2.27177 2.97223 0
M  V30 5306 H 496.468 -3.00456 3.89855 0
M  V30 5307 N 498.12 -1.38341 -0.754957 0
M  V30 5308 C 499.366 -1.34672 -1.51628 0
M  V30 5309 C 499.699 0.0636036 -1.94096 0
M  V30 5310 O 498.974 1.0245 -1.6533 0
M  V30 5311 C 499.257 -2.30116 -2.76981 0
M  V30 5312 C 499.11 -3.80003 -2.4066 0
M  V30 5313 C 500.429 -2.23715 -3.78998 0
M  V30 5314 H 497.548 -0.490517 -0.550056 0
M  V30 5315 H 500.19 -1.69178 -0.864807 0
M  V30 5316 H 498.34 -2.00821 -3.3257 0
M  V30 5317 H 500.012 -4.19966 -1.90856 0
M  V30 5318 H 498.255 -3.97751 -1.73137 0
M  V30 5319 H 498.926 -4.42244 -3.30339 0
M  V30 5320 H 501.402 -2.49574 -3.32945 0
M  V30 5321 H 500.278 -2.9261 -4.64403 0
M  V30 5322 H 500.539 -1.23554 -4.24484 0
M  V30 5323 N 499.598 0.982988 -1.23187 0
M  V30 5324 C 500.823 1.76455 -1.08988 0
M  V30 5325 C 501.248 1.84726 0.354691 0
M  V30 5326 O 500.606 1.30699 1.25649 0
M  V30 5327 C 500.654 3.17094 -1.71708 0
M  V30 5328 O 499.758 4.00648 -0.977477 0
M  V30 5329 H 499.099 0.542988 -0.382177 0
M  V30 5330 H 501.629 1.23413 -1.63188 0
M  V30 5331 H 501.639 3.67684 -1.76841 0
M  V30 5332 H 500.314 3.10389 -2.76823 0
M  V30 5333 H 498.891 3.59161 -1.0029 0
M  V30 5334 N 501.076 1.04316 1.18135 0
M  V30 5335 C 502.304 0.768117 1.92113 0
M  V30 5336 C 502.719 -0.675057 1.76319 0
M  V30 5337 O 502.076 -1.46038 1.09449 0
M  V30 5338 C 502.127 1.12808 3.43448 0
M  V30 5339 O 501.848 2.5146 3.58747 0
M  V30 5340 C 503.349 0.8779 4.3452 0
M  V30 5341 H 500.569 0.279937 0.609817 0
M  V30 5342 H 503.113 1.39149 1.49859 0
M  V30 5343 H 501.268 0.549623 3.83481 0
M  V30 5344 H 501.682 2.65313 4.52448 0
M  V30 5345 H 503.156 1.17959 5.39249 0
M  V30 5346 H 503.633 -0.187239 4.38801 0
M  V30 5347 H 504.239 1.43977 4.00188 0
M  V30 5348 N 502.554 -1.34406 0.822964 0
M  V30 5349 C 503.831 -1.92733 0.333641 0
M  V30 5350 C 504.211 -1.75107 -1.17901 0
M  V30 5351 O 503.559 -1.12983 -1.98613 0
M  V30 5352 C 503.769 -3.40557 0.763023 0
M  V30 5353 C 505.117 -4.17709 0.761879 0
M  V30 5354 O 506.141 -3.49141 0.705606 0
M  V30 5355 O 505 -5.40082 0.835109 0
M  V30 5356 H 502.094 -0.821964 0.0911249 0
M  V30 5357 H 504.64 -1.4338 0.907757 0
M  V30 5358 H 503.412 -3.47187 1.8049 0
M  V30 5359 H 503.035 -3.97259 0.164605 0
M  V30 5360 N 504.032 -0.577932 -1.46621 0
M  V30 5361 C 504.942 0.160651 -2.34049 0
M  V30 5362 C 505.958 0.890911 -1.49462 0
M  V30 5363 O 507.134 0.855166 -1.82343 0
M  V30 5364 C 504.199 1.16447 -3.26559 0
M  V30 5365 C 503.26 0.4394 -4.27045 0
M  V30 5366 C 502.493 1.3954 -5.15135 0
M  V30 5367 O 502.716 2.63162 -5.06065 0
M  V30 5368 O 501.65 0.908585 -5.95003 0
M  V30 5369 H 505.476 -0.557057 -2.98547 0
M  V30 5370 H 503.061 -0.338369 -1.45518 0
M  V30 5371 H 504.943 1.7434 -3.83645 0
M  V30 5372 H 503.618 1.86373 -2.64663 0
M  V30 5373 H 502.525 -0.181247 -3.73661 0
M  V30 5374 H 503.858 -0.218799 -4.91713 0
M  V30 5375 N 505.51 1.54411 -0.315457 0
M  V30 5376 C 506.473 2.22713 0.54142 0
M  V30 5377 C 507.473 1.2179 1.04995 0
M  V30 5378 O 508.663 1.46426 0.943667 0
M  V30 5379 C 505.795 2.92485 1.75116 0
M  V30 5380 H 506.988 2.99849 -0.0555508 0
M  V30 5381 H 504.541 1.56159 -0.0664453 0
M  V30 5382 H 505.276 2.19466 2.38758 0
M  V30 5383 H 505.061 3.66483 1.39401 0
M  V30 5384 H 506.551 3.44548 2.35959 0
M  V30 5385 N 506.988 0.0434614 1.5754 0
M  V30 5386 C 507.918 -0.931651 2.14109 0
M  V30 5387 C 508.899 -1.32971 1.06079 0
M  V30 5388 O 510.084 -1.40579 1.33982 0
M  V30 5389 C 507.214 -2.20914 2.67982 0
M  V30 5390 C 506.168 -1.95139 3.80926 0
M  V30 5391 C 505.494 -3.29276 4.21285 0
M  V30 5392 C 506.794 -1.27913 5.06395 0
M  V30 5393 H 508.488 -0.460497 2.95837 0
M  V30 5394 H 506.034 -0.220058 1.42309 0
M  V30 5395 H 507.987 -2.89522 3.06194 0
M  V30 5396 H 506.711 -2.70221 1.83434 0
M  V30 5397 H 505.37 -1.28945 3.43175 0
M  V30 5398 H 505.018 -3.76369 3.33699 0
M  V30 5399 H 504.718 -3.12831 4.97404 0
M  V30 5400 H 506.242 -3.99129 4.62091 0
M  V30 5401 H 507.656 -1.86544 5.42102 0
M  V30 5402 H 506.053 -1.2182 5.87605 0
M  V30 5403 H 507.123 -0.254066 4.84234 0
M  V30 5404 N 508.466 -1.55915 -0.229846 0
M  V30 5405 C 509.396 -1.94754 -1.28815 0
M  V30 5406 C 510.377 -0.814657 -1.49323 0
M  V30 5407 O 511.562 -1.07631 -1.61645 0
M  V30 5408 C 508.692 -2.25705 -2.63959 0
M  V30 5409 C 507.646 -3.41406 -2.5812 0
M  V30 5410 C 506.972 -3.57941 -3.97218 0
M  V30 5411 C 508.272 -4.76616 -2.13623 0
M  V30 5412 H 509.966 -2.83404 -0.965547 0
M  V30 5413 H 507.512 -1.36353 -0.463028 0
M  V30 5414 H 509.465 -2.51467 -3.38146 0
M  V30 5415 H 508.189 -1.339 -2.9789 0
M  V30 5416 H 506.848 -3.1568 -1.86391 0
M  V30 5417 H 506.496 -2.63526 -4.28443 0
M  V30 5418 H 506.196 -4.35757 -3.94195 0
M  V30 5419 H 507.72 -3.86042 -4.73079 0
M  V30 5420 H 509.134 -5.01637 -2.77549 0
M  V30 5421 H 507.531 -5.57655 -2.21677 0
M  V30 5422 H 508.601 -4.7253 -1.08829 0
M  V30 5423 N 509.944 0.496216 -1.49584 0
M  V30 5424 C 510.891 1.59722 -1.66606 0
M  V30 5425 C 511.861 1.58158 -0.507477 0
M  V30 5426 O 513.046 1.76072 -0.735076 0
M  V30 5427 C 510.186 2.97844 -1.74308 0
M  V30 5428 C 509.299 3.09388 -3.01502 0
M  V30 5429 C 508.434 4.38271 -3.00153 0
M  V30 5430 C 507.473 4.43466 -4.21906 0
M  V30 5431 N 506.61 5.63784 -4.1844 0
M  V30 5432 H 511.45 1.44515 -2.60613 0
M  V30 5433 H 508.987 0.703048 -1.29212 0
M  V30 5434 H 510.945 3.77907 -1.76754 0
M  V30 5435 H 509.575 3.11743 -0.837619 0
M  V30 5436 H 508.627 2.22357 -3.08645 0
M  V30 5437 H 509.939 3.09085 -3.91494 0
M  V30 5438 H 509.093 5.2666 -3.01188 0
M  V30 5439 H 507.832 4.41146 -2.07947 0
M  V30 5440 H 506.837 3.53478 -4.21109 0
M  V30 5441 H 508.062 4.42303 -5.1531 0
M  V30 5442 H 506.008 5.67491 -3.29074 0
M  V30 5443 H 505.925 5.65118 -5.02173 0
M  V30 5444 H 507.193 6.54367 -4.23585 0
M  V30 5445 N 511.423 1.38739 0.74761 0
M  V30 5446 C 512.839 1.20067 1.05148 0
M  V30 5447 C 513.039 0.0534835 2.01429 0
M  V30 5448 O 512.095 -0.59886 2.45296 0
M  V30 5449 C 513.408 2.52957 1.62584 0
M  V30 5450 C 514.956 2.59692 1.74726 0
M  V30 5451 C 515.431 3.92772 2.35573 0
M  V30 5452 N 516.922 3.94343 2.42997 0
M  V30 5453 C 517.657 4.9408 2.90985 0
M  V30 5454 N 517.153 6.04214 3.38965 0
M  V30 5455 N 518.946 4.81466 2.9008 0
M  V30 5456 H 511.097 2.12121 0.108808 0
M  V30 5457 H 513.36 0.941491 0.110899 0
M  V30 5458 H 513.066 3.37389 0.993051 0
M  V30 5459 H 512.94 2.71779 2.61565 0
M  V30 5460 H 515.327 1.75651 2.3713 0
M  V30 5461 H 515.408 2.44731 0.744326 0
M  V30 5462 H 515.052 4.77238 1.738 0
M  V30 5463 H 514.982 4.05046 3.36519 0
M  V30 5464 H 517.473 3.14799 2.0907 0
M  V30 5465 H 517.786 6.76241 3.74056 0
M  V30 5466 H 516.131 6.07825 3.37007 0
M  V30 5467 H 519.322 3.94535 2.51912 0
M  V30 5468 H 519.495 5.59344 3.27166 0
M  V30 5469 N 512.901 -0.976442 1.23707 0
M  V30 5470 C 514.131 -1.75087 1.09673 0
M  V30 5471 C 514.539 -1.85852 -0.354344 0
M  V30 5472 O 513.882 -1.33985 -1.25673 0
M  V30 5473 C 513.944 -3.19272 1.65245 0
M  V30 5474 C 513.608 -3.32004 3.14042 0
M  V30 5475 C 514.605 -3.18017 4.11292 0
M  V30 5476 C 512.29 -3.56525 3.53829 0
M  V30 5477 C 514.284 -3.28363 5.46312 0
M  V30 5478 C 511.971 -3.6651 4.88993 0
M  V30 5479 C 512.969 -3.52439 5.85043 0
M  V30 5480 O 512.657 -3.62063 7.1775 0
M  V30 5481 H 512.389 -0.556164 0.384262 0
M  V30 5482 H 514.943 -1.23518 1.64111 0
M  V30 5483 H 513.173 -3.72107 1.05231 0
M  V30 5484 H 514.862 -3.7849 1.46629 0
M  V30 5485 H 515.628 -2.98966 3.81896 0
M  V30 5486 H 511.507 -3.66547 2.79579 0
M  V30 5487 H 515.051 -3.17297 6.21263 0
M  V30 5488 H 510.948 -3.85072 5.18063 0
M  V30 5489 H 511.716 -3.78833 7.25553 0
M  V30 5490 N 514.379 -1.04941 -1.1758 0
M  V30 5491 C 515.795 -0.770282 -1.39781 0
M  V30 5492 C 515.995 0.636417 -1.91186 0
M  V30 5493 O 515.051 1.39923 -2.10185 0
M  V30 5494 C 516.364 -1.82376 -2.3908 0
M  V30 5495 C 517.912 -1.84569 -2.52791 0
M  V30 5496 C 518.387 -2.88933 -3.55361 0
M  V30 5497 N 519.878 -2.8788 -3.62877 0
M  V30 5498 C 520.613 -3.65282 -4.41992 0
M  V30 5499 N 520.109 -4.52461 -5.24643 0
M  V30 5500 N 521.902 -3.53732 -4.36841 0
M  V30 5501 H 514.053 -1.95705 -0.825438 0
M  V30 5502 H 516.316 -0.847284 -0.425222 0
M  V30 5503 H 516.022 -2.83323 -2.08376 0
M  V30 5504 H 515.896 -1.66327 -3.38549 0
M  V30 5505 H 518.283 -0.842879 -2.82807 0
M  V30 5506 H 518.364 -2.04696 -1.53406 0
M  V30 5507 H 518.008 -3.89398 -3.26085 0
M  V30 5508 H 517.938 -2.66059 -4.54445 0
M  V30 5509 H 520.429 -2.24666 -3.03864 0
M  V30 5510 H 520.742 -5.08211 -5.82187 0
M  V30 5511 H 519.087 -4.56524 -5.24033 0
M  V30 5512 H 522.278 -2.85021 -3.71323 0
M  V30 5513 H 522.451 -4.14302 -4.98255 0
M  V30 5514 N 515.857 1.33968 -0.830081 0
M  V30 5515 C 516.804 2.29387 -0.255008 0
M  V30 5516 C 517.774 1.53923 0.624243 0
M  V30 5517 O 518.959 1.82262 0.564372 0
M  V30 5518 C 516.099 3.4034 0.571209 0
M  V30 5519 C 515.212 4.30729 -0.331083 0
M  V30 5520 C 514.347 5.2879 0.505389 0
M  V30 5521 C 513.386 6.10819 -0.395843 0
M  V30 5522 N 512.523 7.00948 0.401979 0
M  V30 5523 H 517.363 2.77972 -1.07404 0
M  V30 5524 H 514.9 1.36785 -0.541133 0
M  V30 5525 H 516.858 4.03361 1.06562 0
M  V30 5526 H 515.488 2.9297 1.35529 0
M  V30 5527 H 514.54 3.68507 -0.943759 0
M  V30 5528 H 515.852 4.88181 -1.02377 0
M  V30 5529 H 515.006 5.97297 1.06399 0
M  V30 5530 H 513.745 4.71894 1.23155 0
M  V30 5531 H 512.75 5.41238 -0.966529 0
M  V30 5532 H 513.975 6.69797 -1.12023 0
M  V30 5533 H 511.921 6.46512 1.11168 0
M  V30 5534 H 511.838 7.55643 -0.232167 0
M  V30 5535 H 513.106 7.73774 0.943102 0
M  V30 5536 N 517.335 0.585699 1.46312 0
M  V30 5537 C 518.245 -0.148236 2.34131 0
M  V30 5538 C 519.261 -0.882972 1.49932 0
M  V30 5539 O 520.437 -0.845484 1.82794 0
M  V30 5540 C 517.502 -1.14714 3.27172 0
M  V30 5541 C 516.563 -0.416746 4.27272 0
M  V30 5542 C 515.796 -1.36806 5.15868 0
M  V30 5543 O 516.019 -2.60475 5.07454 0
M  V30 5544 O 514.953 -0.877018 5.95476 0
M  V30 5545 H 518.779 0.572882 2.98248 0
M  V30 5546 H 516.364 0.346082 1.45336 0
M  V30 5547 H 518.246 -1.72303 3.84564 0
M  V30 5548 H 516.921 -1.84967 2.65648 0
M  V30 5549 H 515.828 0.201061 3.73559 0
M  V30 5550 H 517.161 0.244872 4.9159 0
M  V30 5551 N 518.813 -1.54241 0.323641 0
M  V30 5552 C 520.062 -1.9975 -0.279806 0
M  V30 5553 C 520.375 -1.2156 -1.5324 0
M  V30 5554 O 521.581 -1.57447 -2.21185 0
M  V30 5555 C 520.037 -3.55686 -0.549115 0
M  V30 5556 C 519.645 -4.4271 0.686432 0
M  V30 5557 C 521.389 -4.09663 -1.11251 0
M  V30 5558 C 519.296 -5.90119 0.389022 0
M  V30 5559 H 518.226 -0.746177 -0.10833 0
M  V30 5560 H 520.877 -1.78248 0.435877 0
M  V30 5561 H 519.259 -3.73176 -1.32499 0
M  V30 5562 H 520.433 -4.36996 1.46188 0
M  V30 5563 H 518.748 -3.99623 1.17005 0
M  V30 5564 H 521.345 -5.17386 -1.34965 0
M  V30 5565 H 521.688 -3.61651 -2.06191 0
M  V30 5566 H 522.221 -3.95806 -0.39782 0
M  V30 5567 H 518.96 -6.42326 1.30759 0
M  V30 5568 H 518.48 -5.98785 -0.348722 0
M  V30 5569 H 520.159 -6.47 -0.0011164 0
M  V30 5570 N 520.291 -0.0518155 -1.57515 0
M  V30 5571 C 521.224 0.957758 -2.07129 0
M  V30 5572 C 522.202 1.30355 -0.971927 0
M  V30 5573 O 523.386 1.41631 -1.2439 0
M  V30 5574 C 520.513 2.27157 -2.51232 0
M  V30 5575 C 519.559 2.07879 -3.72409 0
M  V30 5576 S 520.392 1.35656 -5.18033 0
M  V30 5577 C 521.548 2.68359 -5.65451 0
M  V30 5578 H 521.781 0.53552 -2.92437 0
M  V30 5579 H 519.314 0.160465 -1.53564 0
M  V30 5580 H 521.272 3.02676 -2.77304 0
M  V30 5581 H 519.933 2.66509 -1.66228 0
M  V30 5582 H 519.126 3.05061 -4.01191 0
M  V30 5583 H 518.728 1.40499 -3.46606 0
M  V30 5584 H 521.02 3.64526 -5.71076 0
M  V30 5585 H 521.963 2.44213 -6.64654 0
M  V30 5586 H 522.371 2.74647 -4.93183 0
M  V30 5587 N 521.769 1.56035 0.221574 0
M  V30 5588 C 523.046 1.69837 0.970301 0
M  V30 5589 C 523.426 0.599065 2.02421 0
M  V30 5590 O 522.774 -0.393929 2.25079 0
M  V30 5591 C 522.984 3.11148 1.58076 0
M  V30 5592 C 524.332 3.70555 2.07302 0
M  V30 5593 O 525.356 3.14109 1.6797 0
M  V30 5594 O 524.215 4.69562 2.79596 0
M  V30 5595 H 521.309 0.691727 0.453257 0
M  V30 5596 H 523.855 1.68353 0.213358 0
M  V30 5597 H 522.627 3.82617 0.819759 0
M  V30 5598 H 522.25 3.16749 2.40324 0
M  V30 5599 N 523.247 -0.488276 1.49845 0
M  V30 5600 C 524.177 -1.59675 1.70371 0
M  V30 5601 C 525.158 -1.60878 0.552473 0
M  V30 5602 O 526.343 -1.77417 0.78973 0
M  V30 5603 C 523.473 -2.98098 1.782 0
M  V30 5604 C 522.427 -3.11761 2.93239 0
M  V30 5605 C 521.753 -4.51661 2.86193 0
M  V30 5606 C 523.053 -2.90589 4.33999 0
M  V30 5607 H 524.747 -1.42752 2.63177 0
M  V30 5608 H 522.293 -0.685317 1.26647 0
M  V30 5609 H 524.246 -3.75555 1.91144 0
M  V30 5610 H 522.97 -3.16138 0.820018 0
M  V30 5611 H 521.629 -2.36732 2.79917 0
M  V30 5612 H 521.277 -4.66595 1.87877 0
M  V30 5613 H 520.977 -4.61742 3.63412 0
M  V30 5614 H 522.501 -5.31162 3.01163 0
M  V30 5615 H 523.915 -3.57807 4.47936 0
M  V30 5616 H 522.312 -3.1213 5.12538 0
M  V30 5617 H 523.382 -1.86595 4.4756 0
M  V30 5618 N 524.725 -1.39134 -0.740242 0
M  V30 5619 C 525.672 -1.37434 -1.8542 0
M  V30 5620 C 526.642 -0.234822 -1.64432 0
M  V30 5621 O 527.827 -0.429125 -1.85912 0
M  V30 5622 C 524.967 -1.21844 -3.22875 0
M  V30 5623 C 524.08 -2.45296 -3.55603 0
M  V30 5624 C 523.215 -2.22334 -4.82432 0
M  V30 5625 C 522.254 -3.41488 -5.07988 0
M  V30 5626 N 521.391 -3.17877 -6.26018 0
M  V30 5627 H 526.231 -2.3266 -1.86207 0
M  V30 5628 H 523.768 -1.15578 -0.909946 0
M  V30 5629 H 525.726 -1.10818 -4.02213 0
M  V30 5630 H 524.356 -0.3025 -3.21379 0
M  V30 5631 H 523.408 -2.66945 -2.71006 0
M  V30 5632 H 524.72 -3.34063 -3.7041 0
M  V30 5633 H 523.874 -2.0852 -5.69741 0
M  V30 5634 H 522.613 -1.30954 -4.6979 0
M  V30 5635 H 521.618 -3.55807 -4.19144 0
M  V30 5636 H 522.843 -4.33763 -5.22519 0
M  V30 5637 H 520.789 -2.29156 -6.14673 0
M  V30 5638 H 520.706 -4.00198 -6.41387 0
M  V30 5639 H 521.974 -3.07746 -7.16179 0
M  V30 5640 N 526.204 0.969867 -1.24223 0
M  V30 5641 C 527.151 2.06407 -1.0327 0
M  V30 5642 C 528.121 1.66014 0.0533 0
M  V30 5643 O 529.306 1.90533 -0.100896 0
M  V30 5644 C 526.446 3.3909 -0.641262 0
M  V30 5645 C 525.559 3.9269 -1.80051 0
M  V30 5646 C 524.694 5.13631 -1.35486 0
M  V30 5647 C 523.733 5.59423 -2.48419 0
M  V30 5648 N 522.87 6.71586 -2.04737 0
M  V30 5649 H 527.71 2.23663 -1.96923 0
M  V30 5650 H 525.247 1.09624 -0.980862 0
M  V30 5651 H 527.205 4.15323 -0.395351 0
M  V30 5652 H 525.835 3.21765 0.258269 0
M  V30 5653 H 524.887 3.13116 -2.16014 0
M  V30 5654 H 526.199 4.22636 -2.64916 0
M  V30 5655 H 525.353 5.97231 -1.0677 0
M  V30 5656 H 524.092 4.85364 -0.476722 0
M  V30 5657 H 523.097 4.74398 -2.77897 0
M  V30 5658 H 524.322 5.89705 -3.36786 0
M  V30 5659 H 522.268 6.45058 -1.19318 0
M  V30 5660 H 522.185 7.0097 -2.83156 0
M  V30 5661 H 523.453 7.58633 -1.79154 0
M  V30 5662 N 527.682 1.05563 1.17022 0
M  V30 5663 C 528.614 0.617888 2.20714 0
M  V30 5664 C 529.627 -0.320303 1.59618 0
M  V30 5665 O 530.816 -0.112449 1.78145 0
M  V30 5666 C 527.916 -0.115333 3.38704 0
M  V30 5667 C 527.089 0.834493 4.29366 0
M  V30 5668 C 526.148 0.141855 5.26009 0
M  V30 5669 O 525.174 0.777151 5.6387 0
M  V30 5670 N 526.376 -1.11934 5.69606 0
M  V30 5671 H 529.141 1.50981 2.58892 0
M  V30 5672 H 526.702 0.938008 1.31958 0
M  V30 5673 H 528.694 -0.588918 4.00392 0
M  V30 5674 H 527.264 -0.908967 2.99093 0
M  V30 5675 H 526.484 1.48762 3.65053 0
M  V30 5676 H 527.772 1.4791 4.86827 0
M  V30 5677 H 527.17 -1.65574 5.40927 0
M  V30 5678 H 525.727 -1.53692 6.33421 0
M  V30 5679 N 529.16 -1.33526 0.837174 0
M  V30 5680 C 530.09 -2.31764 0.284206 0
M  V30 5681 C 531.071 -1.58896 -0.607142 0
M  V30 5682 O 532.256 -1.86798 -0.531047 0
M  V30 5683 C 529.386 -3.43029 -0.542962 0
M  V30 5684 C 528.34 -4.27255 0.252451 0
M  V30 5685 C 527.666 -5.3012 -0.69836 0
M  V30 5686 C 528.966 -5.01229 1.46858 0
M  V30 5687 H 530.66 -2.78262 1.10502 0
M  V30 5688 H 528.206 -1.3378 0.532812 0
M  V30 5689 H 530.159 -4.1078 -0.940096 0
M  V30 5690 H 528.883 -2.95216 -1.39697 0
M  V30 5691 H 527.542 -3.61127 0.631124 0
M  V30 5692 H 527.19 -4.78564 -1.54872 0
M  V30 5693 H 526.89 -5.87353 -0.170274 0
M  V30 5694 H 528.414 -6.00737 -1.09305 0
M  V30 5695 H 529.828 -5.61756 1.14469 0
M  V30 5696 H 528.225 -5.68104 1.93333 0
M  V30 5697 H 529.295 -4.301 2.23924 0
M  V30 5698 N 530.638 -0.59345 -1.46 0
M  V30 5699 C 531.548 0.135817 -2.34207 0
M  V30 5700 C 532.564 0.875008 -1.50398 0
M  V30 5701 O 533.74 0.835778 -1.83239 0
M  V30 5702 C 530.805 1.12977 -3.27776 0
M  V30 5703 C 529.866 0.394081 -4.27487 0
M  V30 5704 C 529.099 1.34068 -5.16586 0
M  V30 5705 O 529.322 2.5778 -5.08828 0
M  V30 5706 O 528.256 0.845426 -5.95933 0
M  V30 5707 H 532.082 -0.588691 -2.9794 0
M  V30 5708 H 529.667 -0.353784 -1.45151 0
M  V30 5709 H 531.549 1.70261 -3.85473 0
M  V30 5710 H 530.224 1.83556 -2.66625 0
M  V30 5711 H 529.131 -0.220869 -3.73447 0
M  V30 5712 H 530.464 -0.270939 -4.91454 0
M  V30 5713 N 532.116 1.54067 -0.331816 0
M  V30 5714 C 533.026 2.28322 0.539104 0
M  V30 5715 C 534.042 1.32985 1.1221 0
M  V30 5716 O 535.218 1.6601 1.1403 0
M  V30 5717 C 532.283 3.03277 1.68 0
M  V30 5718 C 531.344 4.14216 1.12798 0
M  V30 5719 C 530.577 4.85588 2.2145 0
M  V30 5720 O 530.8 4.56536 3.41952 0
M  V30 5721 O 529.734 5.72309 1.86404 0
M  V30 5722 H 533.56 3.03632 -0.0641692 0
M  V30 5723 H 531.145 1.49083 -0.0972365 0
M  V30 5724 H 533.027 3.50189 2.34405 0
M  V30 5725 H 531.702 2.30834 2.2693 0
M  V30 5726 H 530.609 3.71635 0.428782 0
M  V30 5727 H 531.942 4.88727 0.583698 0
M  V30 5728 N 533.594 0.0601682 1.57485 0
M  V30 5729 C 534.84 -0.612501 1.93329 0
M  V30 5730 C 535.173 -1.6996 0.939526 0
M  V30 5731 O 534.448 -1.94472 -0.0330957 0
M  V30 5732 C 534.731 -1.20025 3.39508 0
M  V30 5733 C 534.584 -0.12059 4.49638 0
M  V30 5734 C 535.903 -2.10923 3.86264 0
M  V30 5735 H 533.022 -0.221185 0.703027 0
M  V30 5736 H 535.664 0.123768 1.89596 0
M  V30 5737 H 533.814 -1.82774 3.42821 0
M  V30 5738 H 535.486 0.51185 4.58452 0
M  V30 5739 H 533.729 0.550251 4.30296 0
M  V30 5740 H 534.4 -0.572019 5.49028 0
M  V30 5741 H 536.876 -1.58124 3.84884 0
M  V30 5742 H 535.752 -2.48987 4.8918 0
M  V30 5743 H 536.013 -3.01292 3.23536 0
M  V30 5744 N 535.072 -1.5615 -0.213296 0
M  V30 5745 C 536.297 -1.83986 -0.957282 0
M  V30 5746 C 536.722 -0.641526 -1.76822 0
M  V30 5747 O 536.08 0.409722 -1.7661 0
M  V30 5748 C 536.128 -3.09889 -1.84393 0
M  V30 5749 O 535.232 -2.89163 -2.94038 0
M  V30 5750 H 534.573 -0.606357 -0.270605 0
M  V30 5751 H 537.103 -2.03369 -0.224111 0
M  V30 5752 H 537.113 -3.40209 -2.25215 0
M  V30 5753 H 535.788 -3.96735 -1.24795 0
M  V30 5754 H 534.365 -2.70097 -2.57103 0
M  V30 5755 N 536.55 0.480323 -1.50102 0
M  V30 5756 C 537.48 1.58769 -1.71215 0
M  V30 5757 C 538.461 1.60583 -0.560997 0
M  V30 5758 O 539.646 1.76996 -0.799127 0
M  V30 5759 C 536.776 2.97148 -1.79778 0
M  V30 5760 C 535.73 3.10201 -2.94888 0
M  V30 5761 C 535.056 4.50137 -2.88584 0
M  V30 5762 C 536.356 2.88283 -4.35534 0
M  V30 5763 H 538.05 1.41354 -2.6393 0
M  V30 5764 H 535.596 0.678591 -1.27008 0
M  V30 5765 H 537.549 3.74536 -1.93133 0
M  V30 5766 H 536.273 3.15699 -0.836772 0
M  V30 5767 H 534.932 2.35244 -2.81169 0
M  V30 5768 H 534.58 4.65593 -1.90349 0
M  V30 5769 H 534.28 4.59808 -3.65856 0
M  V30 5770 H 535.804 5.29558 -3.03976 0
M  V30 5771 H 537.218 3.55427 -4.49827 0
M  V30 5772 H 535.615 3.09408 -5.14186 0
M  V30 5773 H 536.685 1.84219 -4.48544 0
M  V30 5774 N 538.028 1.39524 0.732853 0
M  V30 5775 C 538.938 1.40695 1.87729 0
M  V30 5776 C 539.954 0.301496 1.71368 0
M  V30 5777 O 541.13 0.543313 1.93933 0
M  V30 5778 C 538.195 1.25098 3.23344 0
M  V30 5779 C 537.256 2.45634 3.52083 0
M  V30 5780 C 536.489 2.30772 4.81228 0
M  V30 5781 O 536.712 1.31233 5.55098 0
M  V30 5782 O 535.646 3.19799 5.09914 0
M  V30 5783 H 539.472 2.37168 1.89697 0
M  V30 5784 H 537.057 1.20663 0.880959 0
M  V30 5785 H 538.939 1.18541 4.04383 0
M  V30 5786 H 537.614 0.317209 3.22142 0
M  V30 5787 H 536.521 2.57767 2.71122 0
M  V30 5788 H 537.854 3.37712 3.58066 0
M  V30 5789 N 539.506 -0.963266 1.24736 0
M  V30 5790 C 540.734 -1.74166 1.11686 0
M  V30 5791 C 541.149 -1.8589 -0.330187 0
M  V30 5792 O 540.506 -1.35042 -1.2276 0
M  V30 5793 C 540.557 -3.15989 1.75595 0
M  V30 5794 O 540.278 -3.04847 3.14642 0
M  V30 5795 C 541.779 -4.10145 1.68213 0
M  V30 5796 H 538.999 -0.546031 0.389989 0
M  V30 5797 H 541.543 -1.20907 1.64929 0
M  V30 5798 H 539.698 -3.66219 1.26343 0
M  V30 5799 H 540.112 -3.9425 3.4593 0
M  V30 5800 H 541.586 -5.07299 2.17604 0
M  V30 5801 H 542.063 -4.3445 0.644208 0
M  V30 5802 H 542.669 -3.65827 2.16912 0
M  V30 5803 N 540.985 -1.06182 -1.16461 0
M  V30 5804 C 542.401 -0.785065 -1.38956 0
M  V30 5805 C 542.601 0.616103 -1.9185 0
M  V30 5806 O 541.657 1.37686 -2.11657 0
M  V30 5807 C 542.97 -1.84902 -2.37132 0
M  V30 5808 C 544.518 -1.8724 -2.50819 0
M  V30 5809 C 544.993 -2.92686 -3.52277 0
M  V30 5810 N 546.484 -2.91712 -3.59803 0
M  V30 5811 C 547.219 -3.69949 -4.38093 0
M  V30 5812 N 546.715 -4.58 -5.19815 0
M  V30 5813 N 548.508 -3.58346 -4.33064 0
M  V30 5814 H 540.659 -1.96569 -0.804634 0
M  V30 5815 H 542.922 -0.851747 -0.416211 0
M  V30 5816 H 542.628 -2.85518 -2.0536 0
M  V30 5817 H 542.502 -1.69908 -3.36766 0
M  V30 5818 H 544.889 -0.872827 -2.81897 0
M  V30 5819 H 544.97 -2.06311 -1.51226 0
M  V30 5820 H 544.614 -3.92835 -3.21937 0
M  V30 5821 H 544.544 -2.70864 -4.51598 0
M  V30 5822 H 547.035 -2.27876 -3.01464 0
M  V30 5823 H 547.348 -5.14357 -5.76764 0
M  V30 5824 H 545.693 -4.62056 -5.19162 0
M  V30 5825 H 548.884 -2.88943 -3.68279 0
M  V30 5826 H 549.057 -4.19563 -4.93833 0
M  V30 5827 N 542.463 1.3308 -0.844243 0
M  V30 5828 C 543.426 2.27403 -0.286485 0
M  V30 5829 C 544.426 1.51179 0.547872 0
M  V30 5830 O 545.616 1.70421 0.360886 0
M  V30 5831 C 542.748 3.35653 0.595813 0
M  V30 5832 H 543.941 2.78248 -1.11885 0
M  V30 5833 H 541.494 1.43574 -0.617749 0
M  V30 5834 H 542.229 2.90058 1.4504 0
M  V30 5835 H 542.014 3.921 -0.00125994 0
M  V30 5836 H 543.504 4.05958 0.979168 0
M  V30 5837 N 543.941 0.601185 1.45683 0
M  V30 5838 C 544.873 -0.159446 2.28645 0
M  V30 5839 C 545.886 -0.837882 1.39583 0
M  V30 5840 O 547.075 -0.704344 1.64016 0
M  V30 5841 C 544.175 -1.24641 3.15147 0
M  V30 5842 C 543.348 -0.656334 4.32448 0
M  V30 5843 C 542.407 -1.63337 5.00208 0
M  V30 5844 O 541.433 -1.16217 5.57209 0
M  V30 5845 N 542.635 -2.96773 4.98905 0
M  V30 5846 H 545.4 0.5524 2.94565 0
M  V30 5847 H 542.961 0.440223 1.558 0
M  V30 5848 H 544.953 -1.8997 3.57342 0
M  V30 5849 H 543.523 -1.86087 2.51178 0
M  V30 5850 H 542.743 0.174879 3.93812 0
M  V30 5851 H 544.031 -0.242211 5.08223 0
M  V30 5852 H 543.429 -3.37662 4.53873 0
M  V30 5853 H 541.986 -3.57541 5.44984 0
M  V30 5854 N 545.419 -1.53889 0.339982 0
M  V30 5855 C 546.382 -2.23547 -0.50592 0
M  V30 5856 C 547.382 -1.23445 -1.03044 0
M  V30 5857 O 548.572 -1.47909 -0.920253 0
M  V30 5858 C 545.704 -2.95234 -1.7044 0
M  V30 5859 H 546.897 -2.99722 0.103247 0
M  V30 5860 H 544.45 -1.56033 0.0912804 0
M  V30 5861 H 545.185 -2.23236 -2.35236 0
M  V30 5862 H 544.97 -3.68654 -1.33553 0
M  V30 5863 H 546.46 -3.48258 -2.30447 0
M  V30 5864 N 546.897 -0.0685191 -1.57451 0
M  V30 5865 C 547.83 0.935736 -2.08133 0
M  V30 5866 C 548.808 1.29317 -0.985698 0
M  V30 5867 O 549.992 1.40304 -1.25886 0
M  V30 5868 C 547.119 2.2448 -2.53627 0
M  V30 5869 C 546.165 2.03917 -3.74593 0
M  V30 5870 S 546.998 1.30154 -5.19442 0
M  V30 5871 C 548.154 2.62346 -5.68265 0
M  V30 5872 H 548.387 0.504473 -2.92989 0
M  V30 5873 H 545.92 0.144169 -1.53725 0
M  V30 5874 H 547.878 2.99718 -2.80499 0
M  V30 5875 H 546.539 2.64731 -1.69045 0
M  V30 5876 H 545.732 3.00788 -4.04404 0
M  V30 5877 H 545.334 1.36815 -3.48077 0
M  V30 5878 H 547.626 3.58448 -5.7491 0
M  V30 5879 H 548.569 2.3715 -6.67207 0
M  V30 5880 H 548.977 2.69401 -4.96068 0
M  V30 5881 N 548.375 1.56261 0.205012 0
M  V30 5882 C 549.285 1.96944 1.27476 0
M  V30 5883 C 550.301 0.875636 1.50362 0
M  V30 5884 O 551.477 1.18058 1.6317 0
M  V30 5885 C 548.542 2.29219 2.60115 0
M  V30 5886 C 547.603 3.52255 2.45387 0
M  V30 5887 C 546.836 3.8298 3.71701 0
M  V30 5888 O 547.059 3.15138 4.75441 0
M  V30 5889 O 545.993 4.76435 3.67823 0
M  V30 5890 H 549.819 2.88144 0.959527 0
M  V30 5891 H 547.404 1.43686 0.409217 0
M  V30 5892 H 549.286 2.51098 3.3842 0
M  V30 5893 H 547.961 1.4119 2.91285 0
M  V30 5894 H 546.868 3.35635 1.65227 0
M  V30 5895 H 548.201 4.40719 2.19152 0
M  V30 5896 N 549.853 -0.472356 1.50355 0
M  V30 5897 C 550.8 -1.57051 1.69126 0
M  V30 5898 C 551.77 -1.5733 0.532574 0
M  V30 5899 O 552.955 -1.7488 0.762994 0
M  V30 5900 C 550.095 -2.95033 1.79024 0
M  V30 5901 C 549.208 -3.04552 3.06386 0
M  V30 5902 C 548.343 -4.33441 3.07087 0
M  V30 5903 C 547.382 -4.36697 4.28908 0
M  V30 5904 N 546.519 -5.57056 4.27356 0
M  V30 5905 H 551.359 -1.40351 2.62879 0
M  V30 5906 H 548.896 -0.682403 1.30314 0
M  V30 5907 H 550.854 -3.75048 1.82744 0
M  V30 5908 H 549.484 -3.10371 0.887109 0
M  V30 5909 H 548.536 -2.17419 3.12143 0
M  V30 5910 H 549.848 -3.02818 3.96362 0
M  V30 5911 H 549.002 -5.21801 3.09529 0
M  V30 5912 H 547.741 -4.37782 2.14939 0
M  V30 5913 H 546.746 -3.46734 4.2668 0
M  V30 5914 H 547.971 -4.34049 5.22282 0
M  V30 5915 H 545.917 -5.62184 3.3806 0
M  V30 5916 H 545.834 -5.57058 5.111 0
M  V30 5917 H 547.102 -6.47545 4.33942 0
M  V30 5918 N 551.331 -1.39911 -0.725443 0
M  V30 5919 C 552.608 -1.28158 -1.47766 0
M  V30 5920 C 552.988 0.104545 -2.10841 0
M  V30 5921 O 552.336 1.11657 -1.99361 0
M  V30 5922 C 552.546 -2.41306 -2.52135 0
M  V30 5923 C 553.894 -2.81076 -3.18247 0
M  V30 5924 O 554.918 -2.40827 -2.62452 0
M  V30 5925 O 553.777 -3.50581 -4.19231 0
M  V30 5926 H 550.871 -0.502761 -0.656628 0
M  V30 5927 H 553.417 -1.51808 -0.758456 0
M  V30 5928 H 552.189 -3.33932 -2.03974 0
M  V30 5929 H 551.812 -2.19374 -3.31603 0
M  V30 5930 N 552.809 0.956637 -1.25245 0
M  V30 5931 C 553.741 2.05628 -1.01242 0
M  V30 5932 C 554.754 1.62785 0.0219579 0
M  V30 5933 O 555.943 1.77184 -0.216365 0
M  V30 5934 C 553.043 3.35069 -0.508161 0
M  V30 5935 C 552.216 4.06761 -1.60823 0
M  V30 5936 C 551.275 5.14473 -1.1047 0
M  V30 5937 O 550.301 5.40033 -1.79868 0
M  V30 5938 N 551.503 5.80474 0.0550773 0
M  V30 5939 H 554.268 2.2679 -1.95925 0
M  V30 5940 H 551.829 1.12505 -1.16423 0
M  V30 5941 H 553.821 4.044 -0.155819 0
M  V30 5942 H 552.391 3.10694 0.344683 0
M  V30 5943 H 551.611 3.31555 -2.13224 0
M  V30 5944 H 552.899 4.51418 -2.34733 0
M  V30 5945 H 552.297 5.62125 0.635004 0
M  V30 5946 H 550.854 6.50868 0.348469 0
M  V30 5947 N 554.287 1.06798 1.15896 0
M  V30 5948 C 555.217 0.704677 2.22613 0
M  V30 5949 C 556.198 -0.305252 1.67339 0
M  V30 5950 O 557.383 -0.179247 1.93371 0
M  V30 5951 C 554.513 0.0957325 3.47168 0
M  V30 5952 C 553.467 1.0322 4.15367 0
M  V30 5953 C 552.793 0.286293 5.33933 0
M  V30 5954 C 554.093 2.36341 4.65768 0
M  V30 5955 H 555.787 1.59688 2.53259 0
M  V30 5956 H 553.333 0.769257 1.21731 0
M  V30 5957 H 555.286 -0.170333 4.21056 0
M  V30 5958 H 554.01 -0.831516 3.15838 0
M  V30 5959 H 552.669 1.28309 3.43413 0
M  V30 5960 H 552.317 -0.644237 4.98857 0
M  V30 5961 H 552.017 0.910436 5.80504 0
M  V30 5962 H 553.541 0.0278938 6.10594 0
M  V30 5963 H 554.955 2.1561 5.31211 0
M  V30 5964 H 553.352 2.94299 5.2298 0
M  V30 5965 H 554.422 2.99047 3.81705 0
M  V30 5966 N 555.766 -1.3263 0.851289 0
M  V30 5967 C 556.729 -2.27247 0.298541 0
M  V30 5968 C 557.729 -1.51467 -0.539847 0
M  V30 5969 O 558.919 -1.7061 -0.351843 0
M  V30 5970 C 556.051 -3.35964 -0.578004 0
M  V30 5971 H 557.244 -2.7765 1.13359 0
M  V30 5972 H 554.797 -1.43245 0.625354 0
M  V30 5973 H 555.532 -2.90823 -1.435 0
M  V30 5974 H 555.317 -3.92094 0.0220539 0
M  V30 5975 H 556.807 -4.06472 -0.957626 0
M  V30 5976 N 557.244 -0.608902 -1.45362 0
M  V30 5977 C 558.176 0.147318 -2.28726 0
M  V30 5978 C 559.189 0.830468 -1.40025 0
M  V30 5979 O 560.378 0.695636 -1.64387 0
M  V30 5980 C 557.478 1.22968 -3.15804 0
M  V30 5981 C 556.651 0.633391 -4.3279 0
M  V30 5982 C 555.71 1.60682 -5.01067 0
M  V30 5983 O 554.736 1.13261 -5.57818 0
M  V30 5984 N 555.938 2.94123 -5.00472 0
M  V30 5985 H 558.703 -0.568014 -2.94268 0
M  V30 5986 H 556.264 -0.448479 -1.55564 0
M  V30 5987 H 558.256 1.88072 -3.58345 0
M  V30 5988 H 556.826 1.84752 -2.52162 0
M  V30 5989 H 556.046 -0.195762 -3.93714 0
M  V30 5990 H 557.334 0.215255 -5.08344 0
M  V30 5991 H 556.732 3.3525 -4.55657 0
M  V30 5992 H 555.289 3.54646 -5.46872 0
M  V30 5993 N 558.722 1.53707 -0.348139 0
M  V30 5994 C 559.652 2.28111 0.498766 0
M  V30 5995 C 560.633 1.29851 1.09876 0
M  V30 5996 O 561.818 1.587 1.11928 0
M  V30 5997 C 558.948 3.05735 1.64753 0
M  V30 5998 C 557.902 4.11537 1.17565 0
M  V30 5999 C 557.228 4.77142 2.4133 0
M  V30 6000 C 558.528 5.21587 0.272844 0
M  V30 6001 H 560.222 2.99152 -0.121934 0
M  V30 6002 H 557.768 1.43875 -0.0600842 0
M  V30 6003 H 559.721 3.56526 2.24649 0
M  V30 6004 H 558.445 2.32354 2.2952 0
M  V30 6005 H 557.104 3.61665 0.599483 0
M  V30 6006 H 556.752 4.0035 3.04514 0
M  V30 6007 H 556.452 5.48626 2.10436 0
M  V30 6008 H 557.976 5.30719 3.01943 0
M  V30 6009 H 559.39 5.67986 0.778779 0
M  V30 6010 H 557.787 6.00074 0.0555849 0
M  V30 6011 H 558.857 4.79969 -0.689785 0
M  V30 6012 N 560.2 0.0768682 1.57412 0
M  V30 6013 C 561.13 -0.886026 2.16037 0
M  V30 6014 C 562.111 -1.30691 1.08876 0
M  V30 6015 O 563.296 -1.37705 1.36934 0
M  V30 6016 C 560.426 -2.1518 2.72608 0
M  V30 6017 C 559.38 -1.87015 3.8498 0
M  V30 6018 C 558.706 -3.20266 4.28175 0
M  V30 6019 C 560.006 -1.17143 5.08994 0
M  V30 6020 H 561.7 -0.397642 2.96748 0
M  V30 6021 H 559.246 -0.189823 1.42743 0
M  V30 6022 H 561.199 -2.82962 3.12266 0
M  V30 6023 H 559.923 -2.66269 1.89125 0
M  V30 6024 H 558.582 -1.21636 3.45833 0
M  V30 6025 H 558.23 -3.69207 3.41607 0
M  V30 6026 H 557.93 -3.0221 5.03927 0
M  V30 6027 H 559.454 -3.89237 4.70454 0
M  V30 6028 H 560.868 -1.75003 5.45937 0
M  V30 6029 H 559.265 -1.09328 5.90057 0
M  V30 6030 H 560.335 -0.151295 4.84664 0
M  V30 6031 N 561.678 -1.56367 -0.196722 0
M  V30 6032 C 562.588 -1.97617 -1.2643 0
M  V30 6033 C 563.604 -0.883598 -1.49895 0
M  V30 6034 O 564.78 -1.18921 -1.62541 0
M  V30 6035 C 561.845 -2.30595 -2.58895 0
M  V30 6036 C 560.906 -3.53551 -2.43516 0
M  V30 6037 C 560.139 -3.84946 -3.69665 0
M  V30 6038 O 560.362 -3.17655 -4.73763 0
M  V30 6039 O 559.296 -4.78379 -3.65291 0
M  V30 6040 H 563.122 -2.88648 -0.944233 0
M  V30 6041 H 560.707 -1.43901 -0.401592 0
M  V30 6042 H 562.589 -2.52889 -3.37083 0
M  V30 6043 H 561.264 -1.42732 -2.90533 0
M  V30 6044 H 560.171 -3.36507 -1.63445 0
M  V30 6045 H 561.504 -4.41875 -2.16812 0
M  V30 6046 N 563.156 0.464375 -1.50603 0
M  V30 6047 C 564.066 1.58723 -1.72754 0
M  V30 6048 C 565.082 1.62925 -0.610844 0
M  V30 6049 O 566.258 1.8067 -0.889963 0
M  V30 6050 C 563.323 2.94897 -1.82309 0
M  V30 6051 C 562.384 3.0103 -3.06071 0
M  V30 6052 C 561.617 4.30708 -3.1516 0
M  V30 6053 O 561.84 5.2159 -2.30868 0
M  V30 6054 O 560.774 4.42571 -4.0794 0
M  V30 6055 H 564.6 1.42954 -2.67951 0
M  V30 6056 H 562.185 0.644579 -1.3478 0
M  V30 6057 H 564.067 3.75764 -1.90735 0
M  V30 6058 H 562.742 3.10851 -0.902967 0
M  V30 6059 H 561.649 2.19217 -3.03142 0
M  V30 6060 H 562.982 2.90014 -3.97684 0
M  V30 6061 N 564.634 1.40294 0.718013 0
M  V30 6062 C 565.581 1.40367 1.8321 0
M  V30 6063 C 566.551 0.260952 1.64037 0
M  V30 6064 O 567.736 0.458648 1.85205 0
M  V30 6065 C 564.876 1.26965 3.20895 0
M  V30 6066 C 563.989 2.50922 3.51656 0
M  V30 6067 C 563.124 2.29981 4.78834 0
M  V30 6068 C 562.163 3.49527 5.02491 0
M  V30 6069 N 561.3 3.27796 6.20882 0
M  V30 6070 H 566.14 2.35593 1.82482 0
M  V30 6071 H 563.677 1.17012 0.891444 0
M  V30 6072 H 565.635 1.17202 4.00399 0
M  V30 6073 H 564.265 0.353591 3.20858 0
M  V30 6074 H 563.317 2.71223 2.66725 0
M  V30 6075 H 564.629 3.39913 3.65048 0
M  V30 6076 H 563.783 2.17558 5.66351 0
M  V30 6077 H 562.522 1.38411 4.67647 0
M  V30 6078 H 561.527 3.6243 4.1343 0
M  V30 6079 H 562.752 4.42021 5.15553 0
M  V30 6080 H 560.698 2.38906 6.1095 0
M  V30 6081 H 560.615 4.10351 6.34939 0
M  V30 6082 H 561.883 3.19101 7.11193 0
M  V30 6083 N 566.112 -0.949982 1.2575 0
M  V30 6084 C 567.389 -1.6718 1.01539 0
M  V30 6085 C 567.769 -2.06095 -0.456942 0
M  V30 6086 O 567.117 -1.77792 -1.43534 0
M  V30 6087 C 567.327 -2.8906 1.95564 0
M  V30 6088 C 568.675 -3.60909 2.23673 0
M  V30 6089 O 569.699 -2.9915 1.9336 0
M  V30 6090 O 568.558 -4.72127 2.75243 0
M  V30 6091 H 565.652 -0.731697 0.385419 0
M  V30 6092 H 568.198 -1.00249 1.36924 0
M  V30 6093 H 566.97 -2.57128 2.94959 0
M  V30 6094 H 566.593 -3.63719 1.60605 0
M  V30 6095 N 567.59 -1.07411 -1.15328 0
M  V30 6096 C 568.52 -0.716472 -2.22236 0
M  V30 6097 C 569.501 0.296373 -1.67498 0
M  V30 6098 O 570.686 0.168989 -1.93463 0
M  V30 6099 C 567.816 -0.114142 -3.47112 0
M  V30 6100 C 566.77 -1.05421 -4.14814 0
M  V30 6101 C 566.096 -0.314604 -5.33774 0
M  V30 6102 C 567.396 -2.38808 -4.64508 0
M  V30 6103 H 569.09 -1.61029 -2.52408 0
M  V30 6104 H 566.636 -0.775702 -1.21321 0
M  V30 6105 H 568.589 0.148001 -4.2114 0
M  V30 6106 H 567.313 0.814755 -3.16274 0
M  V30 6107 H 565.972 -1.30128 -3.42728 0
M  V30 6108 H 565.62 0.617772 -4.99192 0
M  V30 6109 H 565.32 -0.941209 -5.80013 0
M  V30 6110 H 566.844 -0.0602747 -6.1057 0
M  V30 6111 H 568.258 -2.18424 -5.3006 0
M  V30 6112 H 566.655 -2.97069 -5.21412 0
M  V30 6113 H 567.725 -3.01067 -3.80114 0
M  V30 6114 N 569.068 1.32177 -0.85831 0
M  V30 6115 C 569.998 2.31282 -0.321041 0
M  V30 6116 C 570.979 1.59841 0.581786 0
M  V30 6117 O 572.164 1.87619 0.501262 0
M  V30 6118 C 569.294 3.4385 0.48832 0
M  V30 6119 C 568.248 4.26799 -0.320391 0
M  V30 6120 C 567.574 5.31164 0.613934 0
M  V30 6121 C 568.874 4.98829 -1.54813 0
M  V30 6122 H 570.568 2.76469 -1.14915 0
M  V30 6123 H 568.114 1.32916 -0.554028 0
M  V30 6124 H 570.067 4.12224 0.874626 0
M  V30 6125 H 568.791 2.97401 1.34983 0
M  V30 6126 H 567.45 3.60077 -0.688497 0
M  V30 6127 H 567.098 4.80967 1.47239 0
M  V30 6128 H 566.798 5.8755 0.0768097 0
M  V30 6129 H 568.322 6.024 0.997336 0
M  V30 6130 H 569.736 5.59864 -1.23392 0
M  V30 6131 H 568.133 5.64957 -2.02346 0
M  V30 6132 H 569.203 4.26483 -2.30739 0
M  V30 6133 N 570.547 0.616602 1.45037 0
M  V30 6134 C 571.479 -0.135186 2.28801 0
M  V30 6135 C 572.492 -0.82303 1.40464 0
M  V30 6136 O 573.681 -0.686909 1.64754 0
M  V30 6137 C 570.781 -1.21292 3.16451 0
M  V30 6138 C 569.954 -0.61043 4.3312 0
M  V30 6139 C 569.013 -1.58022 5.01912 0
M  V30 6140 O 568.039 -1.10301 5.58411 0
M  V30 6141 N 569.241 -2.91464 5.02025 0
M  V30 6142 H 572.006 0.583612 2.93963 0
M  V30 6143 H 569.567 0.456723 1.55324 0
M  V30 6144 H 571.559 -1.86169 3.59337 0
M  V30 6145 H 570.129 -1.83412 2.53138 0
M  V30 6146 H 569.349 0.216638 3.93604 0
M  V30 6147 H 570.637 -0.188293 5.08451 0
M  V30 6148 H 570.035 -3.32829 4.57429 0
M  V30 6149 H 568.592 -3.51741 5.48745 0
M  V30 6150 N 572.025 -1.5352 0.356285 0
M  V30 6151 C 572.972 -2.25439 -0.494569 0
M  V30 6152 C 573.942 -1.25752 -1.08516 0
M  V30 6153 O 575.127 -1.54513 -1.1194 0
M  V30 6154 C 572.267 -3.04011 -1.63313 0
M  V30 6155 C 571.38 -4.18574 -1.06862 0
M  V30 6156 C 570.515 -4.84607 -2.17552 0
M  V30 6157 C 569.554 -5.91218 -1.58518 0
M  V30 6158 N 568.691 -6.50979 -2.63003 0
M  V30 6159 H 573.531 -2.97737 0.125244 0
M  V30 6160 H 571.068 -1.46916 0.0735789 0
M  V30 6161 H 573.026 -3.47834 -2.30363 0
M  V30 6162 H 571.656 -2.33986 -2.22374 0
M  V30 6163 H 570.708 -3.79303 -0.288672 0
M  V30 6164 H 572.02 -4.95215 -0.596924 0
M  V30 6165 H 571.174 -5.31566 -2.92442 0
M  V30 6166 H 569.913 -4.07418 -2.6807 0
M  V30 6167 H 568.918 -5.4363 -0.821391 0
M  V30 6168 H 570.143 -6.70322 -1.08836 0
M  V30 6169 H 568.089 -5.76648 -3.12751 0
M  V30 6170 H 568.006 -7.23131 -2.20493 0
M  V30 6171 H 569.274 -7.02589 -3.37623 0
M  V30 6172 N 573.503 -0.0852151 -1.57369 0
M  V30 6173 C 574.749 0.581666 -1.94279 0
M  V30 6174 C 575.082 1.68444 -0.966446 0
M  V30 6175 O 574.357 1.945 0.00215277 0
M  V30 6176 C 574.64 1.14609 -3.41375 0
M  V30 6177 C 574.493 0.0490414 -4.49773 0
M  V30 6178 C 575.812 2.04751 -3.8957 0
M  V30 6179 H 572.931 0.209972 -0.706456 0
M  V30 6180 H 575.573 -0.153915 -1.89376 0
M  V30 6181 H 573.723 1.77297 -3.45685 0
M  V30 6182 H 575.395 -0.584721 -4.57579 0
M  V30 6183 H 573.638 -0.618638 -4.29366 0
M  V30 6184 H 574.309 0.484601 -5.49869 0
M  V30 6185 H 576.785 1.51981 -3.87351 0
M  V30 6186 H 575.661 2.41173 -4.93079 0
M  V30 6187 H 575.922 2.96107 -3.28288 0
M  V30 6188 N 574.981 1.5647 0.188427 0
M  V30 6189 C 575.913 1.91611 1.25769 0
M  V30 6190 C 576.926 0.807436 1.41366 0
M  V30 6191 O 578.115 1.08586 1.41673 0
M  V30 6192 C 575.215 2.13874 2.6289 0
M  V30 6193 C 574.388 3.45047 2.68815 0
M  V30 6194 C 573.447 3.56342 3.87178 0
M  V30 6195 O 572.473 4.29109 3.73971 0
M  V30 6196 N 573.675 2.89924 5.02916 0
M  V30 6197 H 576.44 2.8393 0.959373 0
M  V30 6198 H 574.001 1.57418 0.378306 0
M  V30 6199 H 575.993 2.18713 3.4051 0
M  V30 6200 H 574.563 1.28022 2.85183 0
M  V30 6201 H 573.783 3.52017 1.77419 0
M  V30 6202 H 575.071 4.31395 2.6977 0
M  V30 6203 H 574.469 2.30644 5.16546 0
M  V30 6204 H 573.026 3.0038 5.78459 0
M  V30 6205 N 576.459 -0.456382 1.50847 0
M  V30 6206 C 577.407 -1.57318 1.71329 0
M  V30 6207 C 578.401 -1.59187 0.579287 0
M  V30 6208 O 579.607 -1.6316 0.76018 0
M  V30 6209 H 575.982 -0.5223 0.541024 0
M  V30 6210 H 577.953 -1.3721 2.64983 0
M  V30 6211 C 576.702 -2.95142 1.83811 0
M  V30 6212 H 576.025 -2.94428 2.70467 0
M  V30 6213 H 577.465 -3.72702 2.02161 0
M  V30 6214 C 575.924 -3.31636 0.593224 0
M  V30 6215 O 576.454 -4.00852 -0.260898 0
M  V30 6216 N 574.66 -2.87205 0.442902 0
M  V30 6217 H 574.207 -2.31051 1.13901 0
M  V30 6218 H 574.165 -3.11986 -0.38884 0
M  V30 6219 N 577.937 -1.40673 -0.710563 0
M  V30 6220 C 578.847 -1.43663 -1.85467 0
M  V30 6221 C 579.863 -0.328721 -1.70867 0
M  V30 6222 O 581.039 -0.574098 -1.93044 0
M  V30 6223 C 578.104 -1.30226 -3.21313 0
M  V30 6224 C 577.165 -2.51204 -3.48131 0
M  V30 6225 C 576.398 -2.38398 -4.77495 0
M  V30 6226 O 576.621 -1.40048 -5.5294 0
M  V30 6227 O 575.555 -3.2787 -5.04762 0
M  V30 6228 H 579.381 -2.40156 -1.859 0
M  V30 6229 H 576.966 -1.22049 -0.861652 0
M  V30 6230 H 578.848 -1.2496 -4.02446 0
M  V30 6231 H 577.523 -0.368419 -3.21597 0
M  V30 6232 H 576.43 -2.62048 -2.66987 0
M  V30 6233 H 577.763 -3.43366 -3.52648 0
M  V30 6234 N 579.415 0.9433 -1.26252 0
M  V30 6235 C 580.362 2.0417 -1.07625 0
M  V30 6236 C 581.332 1.6609 0.0180738 0
M  V30 6237 O 582.517 1.90276 -0.141289 0
M  V30 6238 C 579.657 3.37653 -0.713043 0
M  V30 6239 C 578.77 3.88783 -1.8834 0
M  V30 6240 C 577.905 5.10642 -1.4635 0
M  V30 6241 C 576.944 5.54028 -2.60229 0
M  V30 6242 N 576.081 6.67092 -2.18936 0
M  V30 6243 H 580.921 2.19436 -2.01623 0
M  V30 6244 H 578.458 1.07519 -1.00389 0
M  V30 6245 H 580.416 4.14391 -0.483358 0
M  V30 6246 H 579.046 3.22241 0.18996 0
M  V30 6247 H 578.098 3.08464 -2.22608 0
M  V30 6248 H 579.41 4.16922 -2.73821 0
M  V30 6249 H 578.564 5.94832 -1.19414 0
M  V30 6250 H 577.303 4.84244 -0.579568 0
M  V30 6251 H 576.308 4.68396 -2.87898 0
M  V30 6252 H 577.533 5.82429 -3.49219 0
M  V30 6253 H 575.479 6.42381 -1.32974 0
M  V30 6254 H 575.396 6.94806 -2.97961 0
M  V30 6255 H 576.664 7.54662 -1.95206 0
M  V30 6256 N 580.893 1.08022 1.14757 0
M  V30 6257 C 582.142 0.802468 1.8505 0
M  V30 6258 C 582.455 -0.674061 1.83619 0
M  V30 6259 O 583.661 -1.06683 2.49662 0
M  V30 6260 C 582.117 1.38551 3.32162 0
M  V30 6261 C 581.725 2.89354 3.42021 0
M  V30 6262 C 583.469 1.18608 4.07594 0
M  V30 6263 C 581.376 3.40815 4.83321 0
M  V30 6264 H 580.306 0.296518 0.693248 0
M  V30 6265 H 582.957 1.30114 1.29393 0
M  V30 6266 H 581.339 0.814556 3.87532 0
M  V30 6267 H 582.513 3.52552 2.96722 0
M  V30 6268 H 580.828 3.08165 2.80041 0
M  V30 6269 H 583.425 1.54525 5.11885 0
M  V30 6270 H 583.768 0.125599 4.1611 0
M  V30 6271 H 584.301 1.72375 3.58513 0
M  V30 6272 H 581.04 4.46418 4.79991 0
M  V30 6273 H 580.56 2.82374 5.29174 0
M  V30 6274 H 582.239 3.37171 5.522 0
M  V30 6275 N 582.371 -1.3172 0.865308 0
M  V30 6276 C 583.281 -2.32394 0.320935 0
M  V30 6277 C 584.297 -1.64511 -0.566746 0
M  V30 6278 O 585.473 -1.95969 -0.464575 0
M  V30 6279 C 582.538 -3.43462 -0.472701 0
M  V30 6280 C 581.599 -4.27015 0.442385 0
M  V30 6281 C 580.832 -5.32779 -0.313469 0
M  V30 6282 O 581.055 -5.49158 -1.54214 0
M  V30 6283 O 579.989 -6.01015 0.326257 0
M  V30 6284 H 583.815 -2.80868 1.15528 0
M  V30 6285 H 581.4 -1.35535 0.628545 0
M  V30 6286 H 583.282 -4.11172 -0.922781 0
M  V30 6287 H 581.957 -2.97159 -1.28367 0
M  V30 6288 H 580.864 -3.62075 0.940866 0
M  V30 6289 H 582.197 -4.76871 1.21882 0
M  V30 6290 N 583.85 -0.624285 -1.44708 0
M  V30 6291 C 584.798 0.0969952 -2.32398 0
M  V30 6292 C 585.792 0.842762 -1.46949 0
M  V30 6293 O 586.998 0.756436 -1.63334 0
M  V30 6294 H 583.373 0.0501306 -0.750327 0
M  V30 6295 H 585.344 -0.660767 -2.90992 0
M  V30 6296 C 584.093 1.06967 -3.30837 0
M  V30 6297 H 583.416 0.505242 -3.96595 0
M  V30 6298 H 584.856 1.54397 -3.94889 0
M  V30 6299 C 583.315 2.15153 -2.5925 0
M  V30 6300 O 583.845 3.23139 -2.3863 0
M  V30 6301 N 582.051 1.90898 -2.19103 0
M  V30 6302 H 581.598 1.03086 -2.36074 0
M  V30 6303 H 581.556 2.63485 -1.71531 0
M  V30 6304 N 585.328 1.53329 -0.364422 0
M  V30 6305 C 586.258 2.28627 0.474543 0
M  V30 6306 C 587.239 1.31009 1.08492 0
M  V30 6307 O 588.424 1.59878 1.10239 0
M  V30 6308 C 585.554 3.07465 1.61501 0
M  V30 6309 C 584.508 4.1276 1.13194 0
M  V30 6310 C 583.834 4.79674 2.36255 0
M  V30 6311 C 585.134 5.21847 0.217507 0
M  V30 6312 H 586.828 2.99005 -0.153656 0
M  V30 6313 H 584.374 1.43803 -0.0753406 0
M  V30 6314 H 586.327 3.58889 2.20855 0
M  V30 6315 H 585.051 2.34775 2.27042 0
M  V30 6316 H 583.71 3.62281 0.56109 0
M  V30 6317 H 583.358 4.03557 3.00251 0
M  V30 6318 H 583.058 5.50827 2.04606 0
M  V30 6319 H 584.582 5.33892 2.96297 0
M  V30 6320 H 585.996 5.6878 0.718493 0
M  V30 6321 H 584.393 6.00099 -0.00806408 0
M  V30 6322 H 585.463 4.7921 -0.740653 0
M  V30 6323 N 586.806 0.0935595 1.57322 0
M  V30 6324 C 588.034 -0.578934 1.98635 0
M  V30 6325 C 588.449 -1.61819 0.972626 0
M  V30 6326 O 587.806 -1.82461 -0.0379638 0
M  V30 6327 C 587.857 -1.22802 3.40003 0
M  V30 6328 O 587.578 -0.230334 4.37494 0
M  V30 6329 C 589.079 -1.98627 3.96311 0
M  V30 6330 H 586.299 -0.155324 0.652775 0
M  V30 6331 H 588.843 0.172393 2.03772 0
M  V30 6332 H 586.998 -1.93029 3.35885 0
M  V30 6333 H 587.412 -0.698649 5.19826 0
M  V30 6334 H 588.886 -2.39405 4.97382 0
M  V30 6335 H 589.363 -2.85151 3.34044 0
M  V30 6336 H 589.969 -1.3322 4.03897 0
M  V30 6337 N 588.284 -1.56567 -0.180126 0
M  V30 6338 C 589.7 -1.50488 -0.531559 0
M  V30 6339 C 589.9 -0.796267 -1.851 0
M  V30 6340 O 588.956 -0.352978 -2.50021 0
M  V30 6341 C 590.269 -2.95201 -0.572456 0
M  V30 6342 C 591.817 -3.05957 -0.660264 0
M  V30 6343 C 592.292 -4.5211 -0.732135 0
M  V30 6344 N 593.783 -4.56322 -0.795262 0
M  V30 6345 C 594.518 -5.66742 -0.871296 0
M  V30 6346 N 594.014 -6.86815 -0.908708 0
M  V30 6347 N 595.807 -5.54691 -0.909639 0
M  V30 6348 H 587.958 -2.01045 0.685165 0
M  V30 6349 H 590.221 -0.915536 0.245962 0
M  V30 6350 H 589.927 -3.50165 0.328208 0
M  V30 6351 H 589.801 -3.49369 -1.422 0
M  V30 6352 H 592.188 -2.51032 -1.55136 0
M  V30 6353 H 592.269 -2.54888 0.215783 0
M  V30 6354 H 591.913 -5.07664 0.154664 0
M  V30 6355 H 591.843 -5.00926 -1.6242 0
M  V30 6356 H 594.334 -3.69868 -0.77499 0
M  V30 6357 H 594.647 -7.66718 -0.967654 0
M  V30 6358 H 592.992 -6.89443 -0.877132 0
M  V30 6359 H 596.183 -4.59804 -0.877353 0
M  V30 6360 H 596.356 -6.40768 -0.965434 0
M  V30 6361 N 589.762 0.448376 -1.51087 0
M  V30 6362 C 590.695 1.56298 -1.66272 0
M  V30 6363 C 591.673 1.54381 -0.510419 0
M  V30 6364 O 592.857 1.73671 -0.732854 0
M  V30 6365 C 589.984 2.94883 -1.66618 0
M  V30 6366 C 589.03 3.14868 -2.87681 0
M  V30 6367 S 589.863 2.9234 -4.48662 0
M  V30 6368 C 591.019 4.33227 -4.51735 0
M  V30 6369 H 591.252 1.43182 -2.6055 0
M  V30 6370 H 588.785 0.637309 -1.40633 0
M  V30 6371 H 590.743 3.74771 -1.67502 0
M  V30 6372 H 589.404 3.05371 -0.735358 0
M  V30 6373 H 588.597 4.16166 -2.84292 0
M  V30 6374 H 588.199 2.42788 -2.84482 0
M  V30 6375 H 590.491 5.26247 -4.26697 0
M  V30 6376 H 591.434 4.41653 -5.53487 0
M  V30 6377 H 591.842 4.16367 -3.81181 0
M  V30 6378 N 591.24 1.41047 0.703093 0
M  V30 6379 C 592.17 1.45067 1.82969 0
M  V30 6380 C 593.151 0.31016 1.67248 0
M  V30 6381 O 594.336 0.520548 1.87093 0
M  V30 6382 C 591.466 1.32478 3.2104 0
M  V30 6383 C 590.42 2.44262 3.51454 0
M  V30 6384 C 589.746 2.16742 4.88801 0
M  V30 6385 C 591.046 3.86606 3.51189 0
M  V30 6386 H 592.74 2.39353 1.79863 0
M  V30 6387 H 590.286 1.15206 0.863919 0
M  V30 6388 H 592.239 1.33904 3.99559 0
M  V30 6389 H 590.963 0.346735 3.24754 0
M  V30 6390 H 589.622 2.42107 2.75282 0
M  V30 6391 H 589.27 1.17299 4.89132 0
M  V30 6392 H 588.97 2.91643 5.10116 0
M  V30 6393 H 590.494 2.19872 5.69639 0
M  V30 6394 H 591.908 3.90517 4.19725 0
M  V30 6395 H 590.305 4.61128 3.84033 0
M  V30 6396 H 591.375 4.15296 2.50315 0
M  V30 6397 N 592.718 -0.936591 1.26751 0
M  V30 6398 C 593.964 -1.6858 1.12733 0
M  V30 6399 C 594.297 -1.91414 -0.327745 0
M  V30 6400 O 593.572 -1.49812 -1.24043 0
M  V30 6401 C 593.855 -3.05779 1.90187 0
M  V30 6402 C 593.708 -2.90242 3.43627 0
M  V30 6403 C 595.027 -4.0597 1.69931 0
M  V30 6404 H 592.146 -0.61182 0.410908 0
M  V30 6405 H 594.788 -1.08747 1.55801 0
M  V30 6406 H 592.938 -3.56853 1.53584 0
M  V30 6407 H 594.61 -2.46354 3.9001 0
M  V30 6408 H 592.853 -2.2577 3.70419 0
M  V30 6409 H 593.524 -3.87572 3.93055 0
M  V30 6410 H 596 -3.63874 2.0183 0
M  V30 6411 H 594.876 -4.99974 2.26534 0
M  V30 6412 H 595.137 -4.37369 0.64502 0
M  V30 6413 N 594.196 -1.08629 -1.14182 0
M  V30 6414 C 595.424 -0.838889 -1.8913 0
M  V30 6415 C 595.839 0.609153 -1.78703 0
M  V30 6416 O 595.196 1.41876 -1.14794 0
M  V30 6417 C 595.247 -1.25477 -3.39025 0
M  V30 6418 O 594.968 -2.64601 -3.49167 0
M  V30 6419 C 596.469 -1.03856 -4.30963 0
M  V30 6420 H 593.689 -0.302377 -0.599007 0
M  V30 6421 H 596.233 -1.44615 -1.44592 0
M  V30 6422 H 594.388 -0.691571 -3.81177 0
M  V30 6423 H 594.802 -2.81922 -4.42289 0
M  V30 6424 H 596.276 -1.37892 -5.345 0
M  V30 6425 H 596.753 0.0242522 -4.39193 0
M  V30 6426 H 597.359 -1.58731 -3.94569 0
M  V30 6427 N 595.674 1.31259 -0.872281 0
M  V30 6428 C 596.899 2.0133 -0.498099 0
M  V30 6429 C 597.324 1.65031 0.902568 0
M  V30 6430 O 596.682 0.860164 1.59596 0
M  V30 6431 C 596.73 3.54411 -0.665205 0
M  V30 6432 O 595.834 4.11347 0.294473 0
M  V30 6433 H 595.175 0.633844 -0.197832 0
M  V30 6434 H 597.705 1.67402 -1.17633 0
M  V30 6435 H 597.715 4.04147 -0.559373 0
M  V30 6436 H 596.39 3.80171 -1.68651 0
M  V30 6437 H 594.967 3.72624 0.143403 0
M  V30 6438 N 597.152 0.631951 1.44375 0
M  V30 6439 C 598.377 0.142146 2.06912 0
M  V30 6440 C 598.802 -1.17456 1.4692 0
M  V30 6441 O 598.16 -1.72074 0.570975 0
M  V30 6442 C 598.208 0.0417952 3.60576 0
M  V30 6443 O 597.312 -1.00194 4.00044 0
M  V30 6444 H 596.653 0.0851491 0.658518 0
M  V30 6445 H 599.183 0.868863 1.85235 0
M  V30 6446 H 599.193 -0.148517 4.0773 0
M  V30 6447 H 597.868 1.0031 4.03622 0
M  V30 6448 H 596.445 -0.786131 3.64519 0
M  V30 6449 N 598.631 -1.53133 0.372548 0
M  V30 6450 C 599.856 -2.0625 -0.218098 0
M  V30 6451 C 600.281 -1.24375 -1.41111 0
M  V30 6452 O 599.639 -0.264554 -1.79359 0
M  V30 6453 C 599.687 -3.55858 -0.582876 0
M  V30 6454 O 598.791 -3.76667 -1.67917 0
M  V30 6455 H 598.132 -0.663317 -0.030104 0
M  V30 6456 H 600.662 -1.97477 0.535169 0
M  V30 6457 H 600.672 -3.99007 -0.851925 0
M  V30 6458 H 599.347 -4.14892 0.289428 0
M  V30 6459 H 597.924 -3.45413 -1.40513 0
M  V30 6460 N 600.109 -0.101901 -1.5727 0
M  V30 6461 C 601.039 0.851544 -2.17419 0
M  V30 6462 C 602.02 1.28942 -1.10941 0
M  V30 6463 O 603.205 1.35509 -1.39107 0
M  V30 6464 C 600.335 2.10816 -2.75996 0
M  V30 6465 C 599.289 1.80867 -3.87906 0
M  V30 6466 C 598.615 3.13413 -4.33216 0
M  V30 6467 C 599.915 1.0903 -5.10793 0
M  V30 6468 H 601.609 0.350381 -2.97343 0
M  V30 6469 H 599.155 0.16709 -1.43027 0
M  V30 6470 H 601.108 2.77959 -3.16729 0
M  V30 6471 H 599.832 2.63227 -1.93337 0
M  V30 6472 H 598.491 1.16119 -3.47724 0
M  V30 6473 H 598.139 3.63725 -3.47438 0
M  V30 6474 H 597.839 2.94155 -5.08671 0
M  V30 6475 H 599.363 3.81704 -4.76586 0
M  V30 6476 H 600.777 1.66295 -5.48652 0
M  V30 6477 H 599.174 0.99927 -5.91722 0
M  V30 6478 H 600.244 0.0741704 -4.84843 0
M  V30 6479 N 601.587 1.56661 0.17182 0
M  V30 6480 C 602.815 1.861 0.904115 0
M  V30 6481 C 603.23 0.687227 1.75848 0
M  V30 6482 O 602.587 -0.343671 1.79235 0
M  V30 6483 C 602.638 3.14568 1.78127 0
M  V30 6484 O 602.359 4.27422 0.961366 0
M  V30 6485 C 603.86 3.5735 2.62327 0
M  V30 6486 H 601.08 0.617445 0.262684 0
M  V30 6487 H 603.624 2.03775 0.172068 0
M  V30 6488 H 601.779 2.98721 2.46666 0
M  V30 6489 H 602.193 5.00725 1.56123 0
M  V30 6490 H 603.667 4.50144 3.1949 0
M  V30 6491 H 604.144 2.81445 3.37173 0
M  V30 6492 H 604.75 3.75807 1.99121 0
M  V30 6493 N 603.065 -0.440357 1.51323 0
M  V30 6494 C 603.995 -1.54174 1.75364 0
M  V30 6495 C 604.976 -1.59039 0.603375 0
M  V30 6496 O 606.161 -1.74815 0.845774 0
M  V30 6497 C 603.291 -2.92277 1.87593 0
M  V30 6498 C 602.245 -3.02274 3.03009 0
M  V30 6499 C 601.571 -4.42327 3.00418 0
M  V30 6500 C 602.871 -2.76634 4.43024 0
M  V30 6501 H 604.565 -1.34307 2.67585 0
M  V30 6502 H 602.111 -0.644678 1.28763 0
M  V30 6503 H 604.064 -3.69284 2.02995 0
M  V30 6504 H 602.788 -3.13369 0.920179 0
M  V30 6505 H 601.447 -2.27706 2.87307 0
M  V30 6506 H 601.095 -4.60382 2.02626 0
M  V30 6507 H 600.795 -4.49946 3.77918 0
M  V30 6508 H 602.319 -5.21312 3.17909 0
M  V30 6509 H 603.733 -3.43376 4.59093 0
M  V30 6510 H 602.13 -2.95666 5.22208 0
M  V30 6511 H 603.2 -1.72262 4.5327 0
M  V30 6512 N 604.543 -1.41418 -0.695603 0
M  V30 6513 C 605.475 -1.39195 -1.82092 0
M  V30 6514 C 606.488 -0.294132 -1.60121 0
M  V30 6515 O 607.677 -0.555854 -1.69625 0
M  V30 6516 C 604.777 -1.14828 -3.18854 0
M  V30 6517 C 603.95 -2.36649 -3.67853 0
M  V30 6518 C 603.009 -2.08139 -4.83285 0
M  V30 6519 O 602.035 -2.81177 -4.94902 0
M  V30 6520 N 603.237 -1.07162 -5.70523 0
M  V30 6521 H 606.002 -2.36185 -1.84491 0
M  V30 6522 H 603.563 -1.3603 -0.877923 0
M  V30 6523 H 605.555 -0.937075 -3.93702 0
M  V30 6524 H 604.125 -0.264358 -3.1148 0
M  V30 6525 H 603.345 -2.73472 -2.83913 0
M  V30 6526 H 604.633 -3.17816 -3.97329 0
M  V30 6527 H 604.031 -0.467124 -5.63768 0
M  V30 6528 H 602.588 -0.920311 -6.4527 0
M  V30 6529 N 606.021 0.929856 -1.27246 0
M  V30 6530 C 606.953 2.03434 -1.0558 0
M  V30 6531 C 607.966 1.62795 -0.0125762 0
M  V30 6532 O 609.155 1.76685 -0.2539 0
M  V30 6533 C 606.255 3.33915 -0.57912 0
M  V30 6534 C 605.428 4.03259 -1.69415 0
M  V30 6535 C 604.487 5.12014 -1.21357 0
M  V30 6536 O 603.513 5.36097 -1.91282 0
M  V30 6537 N 604.715 5.8046 -0.0680622 0
M  V30 6538 H 607.48 2.22583 -2.00691 0
M  V30 6539 H 605.041 1.1001 -1.18783 0
M  V30 6540 H 607.033 4.03978 -0.241563 0
M  V30 6541 H 605.603 3.11355 0.278703 0
M  V30 6542 H 604.823 3.26958 -2.20209 0
M  V30 6543 H 606.111 4.46337 -2.44255 0
M  V30 6544 H 605.509 5.63345 0.515626 0
M  V30 6545 H 604.066 6.51461 0.210332 0
M  V30 6546 N 607.499 1.09233 1.13605 0
M  V30 6547 C 608.409 0.741939 2.22559 0
M  V30 6548 C 609.425 -0.255236 1.72118 0
M  V30 6549 O 610.601 -0.0970747 2.01166 0
M  V30 6550 C 607.666 0.165595 3.46304 0
M  V30 6551 C 606.727 1.21846 4.11645 0
M  V30 6552 C 605.96 0.669526 5.29484 0
M  V30 6553 O 606.183 -0.508228 5.68131 0
M  V30 6554 O 605.117 1.42361 5.84822 0
M  V30 6555 H 608.943 1.65107 2.54899 0
M  V30 6556 H 606.528 0.866584 1.21699 0
M  V30 6557 H 608.41 -0.152592 4.21124 0
M  V30 6558 H 607.085 -0.716573 3.15669 0
M  V30 6559 H 605.992 1.58931 3.38662 0
M  V30 6560 H 607.325 2.07321 4.46407 0
M  V30 6561 N 608.977 -1.30795 0.87923 0
M  V30 6562 C 609.907 -2.30742 0.357796 0
M  V30 6563 C 610.888 -1.60747 -0.556283 0
M  V30 6564 O 612.073 -1.88393 -0.47135 0
M  V30 6565 C 609.203 -3.44583 -0.433555 0
M  V30 6566 C 608.157 -4.26235 0.388251 0
M  V30 6567 C 607.483 -5.32073 -0.529352 0
M  V30 6568 C 608.783 -4.96303 1.62729 0
M  V30 6569 H 610.477 -2.74605 1.19299 0
M  V30 6570 H 608.023 -1.32017 0.575104 0
M  V30 6571 H 609.976 -4.13563 -0.808934 0
M  V30 6572 H 608.7 -2.99511 -1.30234 0
M  V30 6573 H 607.359 -3.58936 0.745695 0
M  V30 6574 H 607.007 -4.83249 -1.39569 0
M  V30 6575 H 606.707 -5.87598 0.0166741 0
M  V30 6576 H 608.231 -6.0391 -0.901373 0
M  V30 6577 H 609.645 -5.5783 1.32283 0
M  V30 6578 H 608.042 -5.61666 2.11309 0
M  V30 6579 H 609.112 -4.22758 2.37494 0
M  V30 6580 N 610.455 -0.639598 -1.44038 0
M  V30 6581 C 611.402 0.0602458 -2.30721 0
M  V30 6582 C 612.372 0.828352 -1.43971 0
M  V30 6583 O 613.557 0.807693 -1.72861 0
M  V30 6584 C 610.697 1.03008 -3.29368 0
M  V30 6585 C 609.81 0.259502 -4.3122 0
M  V30 6586 C 608.945 1.22191 -5.16955 0
M  V30 6587 C 607.984 0.440978 -6.10509 0
M  V30 6588 N 607.121 1.35428 -6.88915 0
M  V30 6589 H 611.961 -0.684867 -2.90023 0
M  V30 6590 H 609.498 -0.349509 -1.42888 0
M  V30 6591 H 611.456 1.60583 -3.85057 0
M  V30 6592 H 610.086 1.74222 -2.71747 0
M  V30 6593 H 609.138 -0.432317 -3.77935 0
M  V30 6594 H 610.45 -0.348347 -4.97582 0
M  V30 6595 H 609.604 1.86873 -5.77203 0
M  V30 6596 H 608.343 1.86367 -4.50687 0
M  V30 6597 H 607.348 -0.219279 -5.49363 0
M  V30 6598 H 608.573 -0.196192 -6.78817 0
M  V30 6599 H 606.519 1.9831 -6.25307 0
M  V30 6600 H 606.436 0.800657 -7.51748 0
M  V30 6601 H 607.704 1.98967 -7.53679 0
M  V30 6602 N 611.933 1.52934 -0.380664 0
M  V30 6603 C 612.896 2.24809 0.446473 0
M  V30 6604 C 613.896 1.26133 0.997347 0
M  V30 6605 O 615.086 1.50297 0.880714 0
M  V30 6606 C 612.218 2.99649 1.62553 0
M  V30 6607 H 613.411 2.99343 -0.182677 0
M  V30 6608 H 610.964 1.55736 -0.132618 0
M  V30 6609 H 611.699 2.29395 2.29235 0
M  V30 6610 H 611.484 3.72066 1.23732 0
M  V30 6611 H 612.974 3.54246 2.21133 0
M  V30 6612 N 613.412 0.11024 1.57214 0
M  V30 6613 C 614.359 -0.843195 2.14846 0
M  V30 6614 C 615.329 -1.26954 1.07107 0
M  V30 6615 O 616.514 -1.34861 1.34971 0
M  V30 6616 C 613.654 -2.09123 2.74521 0
M  V30 6617 C 612.767 -1.71404 3.96541 0
M  V30 6618 C 611.902 -2.91107 4.44331 0
M  V30 6619 C 610.941 -2.49586 5.58903 0
M  V30 6620 N 610.078 -3.62175 6.01477 0
M  V30 6621 H 614.918 -0.344886 2.95998 0
M  V30 6622 H 612.455 -0.15855 1.46243 0
M  V30 6623 H 614.413 -2.82234 3.07246 0
M  V30 6624 H 613.043 -2.56427 1.96074 0
M  V30 6625 H 612.095 -0.88201 3.70033 0
M  V30 6626 H 613.407 -1.36884 4.7965 0
M  V30 6627 H 612.561 -3.72454 4.78919 0
M  V30 6628 H 611.3 -3.28848 3.60153 0
M  V30 6629 H 610.305 -1.6667 5.23929 0
M  V30 6630 H 611.53 -2.12973 6.4484 0
M  V30 6631 H 609.476 -3.99605 5.20242 0
M  V30 6632 H 609.393 -3.3155 6.79419 0
M  V30 6633 H 610.661 -4.43987 6.407 0
M  V30 6634 N 614.89 -1.56749 -0.16351 0
M  V30 6635 C 616.306 -1.51043 -0.515567 0
M  V30 6636 C 616.506 -0.815855 -1.84245 0
M  V30 6637 O 615.562 -0.379477 -2.49632 0
M  V30 6638 C 616.875 -2.95791 -0.541114 0
M  V30 6639 C 618.423 -3.0664 -0.627776 0
M  V30 6640 C 618.898 -4.52861 -0.684141 0
M  V30 6641 N 620.389 -4.5714 -0.746818 0
M  V30 6642 C 621.124 -5.67634 -0.811137 0
M  V30 6643 N 620.62 -6.8774 -0.835811 0
M  V30 6644 N 622.413 -5.55624 -0.850756 0
M  V30 6645 H 614.564 -2.00307 0.70645 0
M  V30 6646 H 616.827 -0.912876 0.255659 0
M  V30 6647 H 616.533 -3.49797 0.365329 0
M  V30 6648 H 616.407 -3.50858 -1.38487 0
M  V30 6649 H 618.794 -2.52663 -1.52464 0
M  V30 6650 H 618.875 -2.54645 0.242805 0
M  V30 6651 H 618.519 -5.07472 0.2085 0
M  V30 6652 H 618.449 -5.02621 -1.57098 0
M  V30 6653 H 620.94 -3.70669 -0.735717 0
M  V30 6654 H 621.253 -7.67701 -0.886279 0
M  V30 6655 H 619.598 -6.90334 -0.803958 0
M  V30 6656 H 622.789 -4.60709 -0.828535 0
M  V30 6657 H 622.962 -6.41756 -0.897418 0
M  V30 6658 N 616.368 0.432326 -1.51554 0
M  V30 6659 C 617.315 1.52512 -1.7323 0
M  V30 6660 C 618.285 1.55863 -0.5741 0
M  V30 6661 O 619.47 1.72796 -0.809093 0
M  V30 6662 C 616.61 2.90183 -1.86783 0
M  V30 6663 C 615.723 2.96322 -3.14352 0
M  V30 6664 C 614.858 4.25147 -3.18471 0
M  V30 6665 C 613.897 4.25172 -4.40335 0
M  V30 6666 N 613.034 5.45529 -4.41975 0
M  V30 6667 H 617.874 1.33332 -2.66508 0
M  V30 6668 H 615.411 0.647613 -1.32077 0
M  V30 6669 H 617.369 3.70071 -1.92623 0
M  V30 6670 H 615.999 3.0791 -0.969087 0
M  V30 6671 H 615.051 2.09066 -3.17798 0
M  V30 6672 H 616.363 2.92203 -4.04251 0
M  V30 6673 H 615.517 5.13411 -3.23255 0
M  V30 6674 H 614.256 4.31929 -2.2647 0
M  V30 6675 H 613.261 3.353 -4.35723 0
M  V30 6676 H 614.486 4.20049 -5.33606 0
M  V30 6677 H 612.432 5.53024 -3.52847 0
M  V30 6678 H 612.349 5.43311 -5.25689 0
M  V30 6679 H 613.617 6.35812 -4.50958 0
M  V30 6680 N 617.846 1.41785 0.688094 0
M  V30 6681 C 619.262 1.24419 0.999608 0
M  V30 6682 C 619.462 0.138868 2.01021 0
M  V30 6683 O 618.518 -0.494283 2.47615 0
M  V30 6684 C 619.831 2.59625 1.51709 0
M  V30 6685 C 621.379 2.66869 1.63554 0
M  V30 6686 C 621.854 4.0241 2.18702 0
M  V30 6687 N 623.345 4.04295 2.26053 0
M  V30 6688 C 624.08 5.05977 2.69768 0
M  V30 6689 N 623.576 6.18047 3.13033 0
M  V30 6690 N 625.369 4.93336 2.69398 0
M  V30 6691 H 617.52 2.12392 0.0187427 0
M  V30 6692 H 619.783 0.945347 0.0708673 0
M  V30 6693 H 619.489 3.41297 0.849059 0
M  V30 6694 H 619.363 2.82628 2.49803 0
M  V30 6695 H 621.75 1.8555 2.29467 0
M  V30 6696 H 621.831 2.47668 0.639857 0
M  V30 6697 H 621.475 4.8418 1.53402 0
M  V30 6698 H 621.405 4.18955 3.19037 0
M  V30 6699 H 623.896 3.23383 1.9553 0
M  V30 6700 H 624.209 6.91498 3.45038 0
M  V30 6701 H 622.554 6.21572 3.10923 0
M  V30 6702 H 625.745 4.04865 2.34952 0
M  V30 6703 H 625.918 5.72717 3.03148 0
M  V30 6704 N 619.324 -0.923095 1.27737 0
M  V30 6705 C 620.74 -1.19985 1.05241 0
M  V30 6706 C 620.94 -2.00391 -0.21113 0
M  V30 6707 O 619.996 -2.35324 -0.915366 0
M  V30 6708 C 621.309 -1.94352 2.29451 0
M  V30 6709 C 622.857 -2.07273 2.34536 0
M  V30 6710 C 623.332 -2.85046 3.58487 0
M  V30 6711 N 624.823 -2.92612 3.59072 0
M  V30 6712 C 625.558 -3.53266 4.51654 0
M  V30 6713 N 625.054 -4.15274 5.54545 0
M  V30 6714 N 626.847 -3.50714 4.39268 0
M  V30 6715 H 618.998 -0.386042 2.08862 0
M  V30 6716 H 621.261 -0.233407 0.918817 0
M  V30 6717 H 620.967 -1.42692 3.21453 0
M  V30 6718 H 620.841 -2.94947 2.3513 0
M  V30 6719 H 623.228 -2.58117 1.43037 0
M  V30 6720 H 623.309 -1.05884 2.32857 0
M  V30 6721 H 622.953 -2.34884 4.50324 0
M  V30 6722 H 622.883 -3.8673 3.57418 0
M  V30 6723 H 625.374 -2.48547 2.84663 0
M  V30 6724 H 625.687 -4.59507 6.21348 0
M  V30 6725 H 624.032 -4.13806 5.58382 0
M  V30 6726 H 627.223 -3.01475 3.58093 0
M  V30 6727 H 627.396 -3.97693 5.1161 0
M  V30 6728 N 620.802 -1.09834 -1.13024 0
M  V30 6729 C 622.048 -0.83819 -1.84668 0
M  V30 6730 C 622.381 0.634645 -1.83537 0
M  V30 6731 O 621.656 1.46753 -1.27647 0
M  V30 6732 C 621.939 -1.37933 -3.32636 0
M  V30 6733 C 621.792 -2.91857 -3.42257 0
M  V30 6734 C 623.111 -1.01654 -4.28199 0
M  V30 6735 H 620.23 -0.30595 -0.670495 0
M  V30 6736 H 622.872 -1.36044 -1.32635 0
M  V30 6737 H 621.022 -0.935111 -3.77078 0
M  V30 6738 H 622.694 -3.44759 -3.06495 0
M  V30 6739 H 620.937 -3.28776 -2.83 0
M  V30 6740 H 621.608 -3.24799 -4.46329 0
M  V30 6741 H 624.084 -1.39973 -3.9185 0
M  V30 6742 H 622.96 -1.42217 -5.30156 0
M  V30 6743 H 623.221 0.0747794 -4.42037 0
M  V30 6744 N 622.28 1.30327 -0.886154 0
M  V30 6745 C 623.508 2.00254 -0.520176 0
M  V30 6746 C 623.923 1.66419 0.891637 0
M  V30 6747 O 623.28 0.901951 1.58654 0
M  V30 6748 C 623.331 3.54916 -0.686775 0
M  V30 6749 O 623.052 3.87547 -2.04301 0
M  V30 6750 C 624.553 4.42115 -0.323945 0
M  V30 6751 H 621.773 0.640204 -0.200947 0
M  V30 6752 H 624.317 1.66183 -1.19178 0
M  V30 6753 H 622.472 3.8735 -0.0625273 0
M  V30 6754 H 622.886 4.82247 -2.06249 0
M  V30 6755 H 624.36 5.49808 -0.491407 0
M  V30 6756 H 624.837 4.32953 0.73811 0
M  V30 6757 H 625.443 4.15129 -0.924565 0
M  V30 6758 N 623.758 0.647228 1.43697 0
M  V30 6759 C 625.004 0.167001 2.02713 0
M  V30 6760 C 625.359 -1.20351 1.50111 0
M  V30 6761 O 624.652 -1.79047 0.682113 0
M  V30 6762 C 624.846 0.111481 3.57226 0
M  V30 6763 C 624.675 1.47507 4.2482 0
M  V30 6764 C 623.445 2.06594 4.61137 0
M  V30 6765 C 625.643 2.41224 4.54219 0
M  V30 6766 N 623.625 3.3602 5.13774 0
M  V30 6767 C 624.996 3.55278 5.08112 0
M  V30 6768 C 627.051 2.40102 4.36183 0
M  V30 6769 C 625.754 4.68426 5.45866 0
M  V30 6770 C 627.78 3.52326 4.74995 0
M  V30 6771 C 627.142 4.65104 5.29015 0
M  V30 6772 H 623.241 0.105402 0.774864 0
M  V30 6773 H 625.825 0.854229 1.7496 0
M  V30 6774 H 623.996 -0.545073 3.84556 0
M  V30 6775 H 625.728 -0.379063 4.02921 0
M  V30 6776 H 622.483 1.59366 4.45981 0
M  V30 6777 H 622.907 4.02233 5.44552 0
M  V30 6778 H 627.549 1.54151 3.93697 0
M  V30 6779 H 625.267 5.55074 5.87298 0
M  V30 6780 H 628.853 3.52652 4.6274 0
M  V30 6781 H 627.733 5.50506 5.58492 0
M  V30 6782 N 625.236 -1.5273 0.388769 0
M  V30 6783 C 626.476 -2.03483 -0.193372 0
M  V30 6784 C 626.84 -1.26897 -1.44087 0
M  V30 6785 O 628.041 -1.67773 -2.10014 0
M  V30 6786 C 626.312 -3.54488 -0.455325 0
M  V30 6787 S 627.871 -4.27069 -1.00783 0
M  V30 6788 H 624.689 -0.708907 -0.0545131 0
M  V30 6789 H 627.291 -1.8798 0.536993 0
M  V30 6790 H 625.995 -4.07817 0.459722 0
M  V30 6791 H 625.526 -3.74196 -1.21413 0
M  V30 6792 H 627.541 -4.40185 -2.29023 0
M  V30 6793 N 626.714 -0.118576 -1.57153 0
M  V30 6794 C 627.644 0.828436 -2.1831 0
M  V30 6795 C 628.625 1.27758 -1.12303 0
M  V30 6796 O 629.81 1.34026 -1.40537 0
M  V30 6797 C 626.94 2.07876 -2.78217 0
M  V30 6798 C 625.894 1.76742 -3.89803 0
M  V30 6799 C 625.22 3.08801 -4.36516 0
M  V30 6800 C 626.52 1.03606 -5.11921 0
M  V30 6801 H 628.214 0.318824 -2.97698 0
M  V30 6802 H 625.76 0.151911 -1.43196 0
M  V30 6803 H 627.713 2.74584 -3.19659 0
M  V30 6804 H 626.437 2.61161 -1.96118 0
M  V30 6805 H 625.096 1.12424 -3.48936 0
M  V30 6806 H 624.744 3.6002 -3.51276 0
M  V30 6807 H 624.444 2.88743 -5.11763 0
M  V30 6808 H 625.968 3.76627 -4.80608 0
M  V30 6809 H 627.382 1.60467 -5.50385 0
M  V30 6810 H 625.779 0.936454 -5.92748 0
M  V30 6811 H 626.849 0.0227421 -4.84895 0
M  V30 6812 N 628.193 1.56834 0.155195 0
M  V30 6813 C 629.441 1.82536 0.867462 0
M  V30 6814 C 629.762 0.698168 1.82073 0
M  V30 6815 O 629.032 -0.280807 1.93877 0
M  V30 6816 H 627.612 0.673401 0.323327 0
M  V30 6817 H 630.274 1.94313 0.151156 0
M  V30 6818 H 629.37 2.77171 1.43466 0
M  V30 6819 N 629.671 -0.424282 1.51781 0
M  V30 6820 C 630.618 -1.51591 1.74037 0
M  V30 6821 C 631.588 -1.55556 0.582358 0
M  V30 6822 O 632.773 -1.72364 0.818245 0
M  V30 6823 C 629.913 -2.89188 1.8832 0
M  V30 6824 C 629.026 -2.9465 3.1592 0
M  V30 6825 C 628.161 -4.23452 3.20721 0
M  V30 6826 C 627.2 -4.22831 4.42584 0
M  V30 6827 N 626.337 -5.43178 4.44862 0
M  V30 6828 H 631.177 -1.31917 2.67212 0
M  V30 6829 H 628.714 -0.640599 1.32419 0
M  V30 6830 H 630.672 -3.69044 1.94583 0
M  V30 6831 H 629.302 -3.07392 0.985402 0
M  V30 6832 H 628.354 -2.07378 3.18902 0
M  V30 6833 H 629.666 -2.90055 4.05795 0
M  V30 6834 H 628.82 -5.1169 3.25973 0
M  V30 6835 H 627.559 -4.30722 2.28757 0
M  V30 6836 H 626.564 -3.32984 4.37495 0
M  V30 6837 H 627.789 -4.17213 5.35826 0
M  V30 6838 H 625.735 -5.51145 3.55775 0
M  V30 6839 H 625.652 -5.40515 5.28563 0
M  V30 6840 H 626.92 -6.33412 4.54324 0
M  V30 6841 N 631.149 -1.42148 -0.680565 0
M  V30 6842 C 632.398 -1.41604 -1.43636 0
M  V30 6843 C 632.711 -0.0337887 -1.95571 0
M  V30 6844 O 633.917 0.0942588 -2.71336 0
M  V30 6845 C 632.373 -2.49056 -2.59806 0
M  V30 6846 C 631.981 -3.9326 -2.14594 0
M  V30 6847 C 633.725 -2.5767 -3.37352 0
M  V30 6848 C 631.632 -4.92232 -3.27813 0
M  V30 6849 H 630.562 -0.526656 -0.539583 0
M  V30 6850 H 633.213 -1.68033 -0.737369 0
M  V30 6851 H 631.595 -2.15782 -3.32045 0
M  V30 6852 H 632.769 -4.35858 -1.49546 0
M  V30 6853 H 631.084 -3.88443 -1.50002 0
M  V30 6854 H 633.681 -3.28794 -4.21662 0
M  V30 6855 H 634.024 -1.61837 -3.83555 0
M  V30 6856 H 634.557 -2.90109 -2.72179 0
M  V30 6857 H 631.296 -5.89522 -2.86607 0
M  V30 6858 H 630.816 -4.5427 -3.91661 0
M  V30 6859 H 632.495 -5.13684 -3.93367 0
M  V30 6860 N 632.627 0.916307 -1.28225 0
M  V30 6861 C 633.575 2.03977 -1.11786 0
M  V30 6862 C 634.569 1.69358 -0.0378265 0
M  V30 6863 O 635.775 1.78925 -0.196405 0
M  V30 6864 H 632.15 0.66829 -0.344809 0
M  V30 6865 H 634.121 2.14985 -2.06939 0
M  V30 6866 C 632.87 3.38518 -0.7938 0
M  V30 6867 H 632.193 3.65649 -1.61682 0
M  V30 6868 H 633.633 4.17864 -0.718719 0
M  V30 6869 C 632.092 3.33134 0.502353 0
M  V30 6870 O 632.622 3.71281 1.53341 0
M  V30 6871 N 630.828 2.86229 0.502147 0
M  V30 6872 H 630.375 2.55382 -0.337338 0
M  V30 6873 H 630.333 2.83009 1.36942 0
M  V30 6874 N 634.105 1.10431 1.1244 0
M  V30 6875 C 635.052 0.753103 2.18167 0
M  V30 6876 C 636.022 -0.270549 1.63882 0
M  V30 6877 O 637.207 -0.149837 1.90211 0
M  V30 6878 C 634.347 0.191046 3.44571 0
M  V30 6879 C 633.46 1.26999 4.12911 0
M  V30 6880 C 632.595 0.669586 5.26963 0
M  V30 6881 C 631.634 1.72912 5.87169 0
M  V30 6882 N 630.771 1.14898 6.92635 0
M  V30 6883 H 635.611 1.65892 2.47556 0
M  V30 6884 H 633.148 0.828631 1.21541 0
M  V30 6885 H 635.106 -0.152712 4.1692 0
M  V30 6886 H 633.736 -0.677997 3.15599 0
M  V30 6887 H 632.788 1.73087 3.3874 0
M  V30 6888 H 634.1 2.07204 4.53727 0
M  V30 6889 H 633.254 0.275274 6.06075 0
M  V30 6890 H 631.993 -0.163895 4.87425 0
M  V30 6891 H 630.998 2.13286 5.06744 0
M  V30 6892 H 632.223 2.56544 6.28778 0
M  V30 6893 H 630.169 0.336956 6.55134 0
M  V30 6894 H 630.086 1.88786 7.32049 0
M  V30 6895 H 631.354 0.78121 7.75576 0
M  V30 6896 N 635.583 -1.29855 0.893053 0
M  V30 6897 C 636.516 -2.26079 0.3104 0
M  V30 6898 C 637.494 -1.52145 -0.573644 0
M  V30 6899 O 638.678 -1.8113 -0.521937 0
M  V30 6900 C 635.805 -3.34069 -0.558179 0
M  V30 6901 C 634.851 -4.25721 0.257638 0
M  V30 6902 S 635.684 -5.09409 1.65114 0
M  V30 6903 C 636.84 -6.20903 0.789307 0
M  V30 6904 H 637.073 -2.75151 1.12602 0
M  V30 6905 H 634.606 -1.37975 0.692978 0
M  V30 6906 H 636.564 -3.9675 -1.05355 0
M  V30 6907 H 635.225 -2.83705 -1.34797 0
M  V30 6908 H 634.418 -5.02366 -0.405562 0
M  V30 6909 H 634.02 -3.67656 0.685917 0
M  V30 6910 H 636.312 -6.77499 0.00978451 0
M  V30 6911 H 637.255 -6.91426 1.52762 0
M  V30 6912 H 637.663 -5.63435 0.346634 0
M  V30 6913 N 637.061 -0.65484 -1.43351 0
M  V30 6914 C 638.008 0.0357713 -2.30772 0
M  V30 6915 C 638.978 0.813035 -1.44841 0
M  V30 6916 O 640.163 0.789314 -1.73708 0
M  V30 6917 C 637.303 0.995084 -3.30442 0
M  V30 6918 C 636.416 0.21375 -4.31471 0
M  V30 6919 C 635.551 1.16701 -5.18222 0
M  V30 6920 C 634.59 0.376201 -6.10943 0
M  V30 6921 N 633.727 1.28113 -6.90313 0
M  V30 6922 H 638.567 -0.71559 -2.89281 0
M  V30 6923 H 636.104 -0.364645 -1.42509 0
M  V30 6924 H 638.062 1.5649 -3.86739 0
M  V30 6925 H 636.692 1.7133 -2.7358 0
M  V30 6926 H 635.744 -0.472377 -3.77456 0
M  V30 6927 H 637.056 -0.401103 -4.97185 0
M  V30 6928 H 636.21 1.8074 -5.79153 0
M  V30 6929 H 634.949 1.81577 -4.52638 0
M  V30 6930 H 633.954 -0.277534 -5.49099 0
M  V30 6931 H 635.179 -0.268178 -6.7857 0
M  V30 6932 H 633.125 1.91666 -6.27376 0
M  V30 6933 H 633.042 0.720879 -7.52555 0
M  V30 6934 H 634.31 1.90962 -7.55747 0
M  V30 6935 N 638.539 1.52521 -0.396863 0
M  V30 6936 C 639.487 2.28217 0.44943 0
M  V30 6937 C 640.481 1.32416 1.05652 0
M  V30 6938 O 641.687 1.49925 0.996124 0
M  V30 6939 H 638.062 0.733966 0.1637 0
M  V30 6940 H 640.033 2.97658 -0.210367 0
M  V30 6941 C 638.782 3.10713 1.56054 0
M  V30 6942 H 638.105 3.84291 1.10273 0
M  V30 6943 H 639.545 3.66803 2.12677 0
M  V30 6944 C 638.004 2.23499 2.52091 0
M  V30 6945 O 638.534 1.8669 3.55682 0
M  V30 6946 N 636.74 1.8751 2.2201 0
M  V30 6947 H 636.287 2.17643 1.37802 0
M  V30 6948 H 636.245 1.29448 2.86514 0
M  V30 6949 N 640.017 0.126909 1.57088 0
M  V30 6950 C 641.242 -0.53997 2.00248 0
M  V30 6951 C 641.667 -1.58927 1.00618 0
M  V30 6952 O 641.025 -1.81288 -0.0210131 0
M  V30 6953 C 641.073 -1.13565 3.4225 0
M  V30 6954 O 640.177 -2.25103 3.45547 0
M  V30 6955 H 639.518 -0.13412 0.650314 0
M  V30 6956 H 642.048 0.217718 2.03438 0
M  V30 6957 H 642.058 -1.46925 3.80627 0
M  V30 6958 H 640.733 -0.367122 4.14277 0
M  V30 6959 H 639.31 -1.93123 3.18995 0
M  V30 6960 N 641.495 -1.56914 -0.146875 0
M  V30 6961 C 642.443 -1.99224 -1.20053 0
M  V30 6962 C 643.437 -0.884661 -1.44465 0
M  V30 6963 O 644.643 -1.06984 -1.44756 0
M  V30 6964 H 641.018 -0.634191 -0.404112 0
M  V30 6965 H 642.989 -2.86998 -0.816987 0
M  V30 6966 C 641.738 -2.38899 -2.52632 0
M  V30 6967 H 641.061 -3.23677 -2.34677 0
M  V30 6968 H 642.501 -2.72326 -3.24984 0
M  V30 6969 C 640.96 -1.2417 -3.13183 0
M  V30 6970 O 641.49 -0.542503 -3.9802 0
M  V30 6971 N 639.696 -1.00592 -2.72635 0
M  V30 6972 H 639.243 -1.57627 -2.03744 0
M  V30 6973 H 639.201 -0.240174 -3.13481 0
M  V30 6974 N 642.974 0.416227 -1.52004 0
M  V30 6975 C 644.204 1.18401 -1.69307 0
M  V30 6976 C 644.612 1.84943 -0.399072 0
M  V30 6977 O 643.955 1.72406 0.634177 0
M  V30 6978 C 644.017 2.29465 -2.76742 0
M  V30 6979 C 643.681 1.83117 -4.18709 0
M  V30 6980 C 644.678 1.32286 -5.02789 0
M  V30 6981 C 642.363 1.90167 -4.64911 0
M  V30 6982 C 644.357 0.891178 -6.31139 0
M  V30 6983 C 642.044 1.4661 -5.93253 0
M  V30 6984 C 643.042 0.961696 -6.76196 0
M  V30 6985 O 642.73 0.532388 -8.02135 0
M  V30 6986 H 642.462 0.362098 -0.570843 0
M  V30 6987 H 645.016 0.496764 -1.99302 0
M  V30 6988 H 643.246 3.01531 -2.42107 0
M  V30 6989 H 644.935 2.91252 -2.82713 0
M  V30 6990 H 645.701 1.26218 -4.68288 0
M  V30 6991 H 641.58 2.28371 -4.00459 0
M  V30 6992 H 645.124 0.496788 -6.95829 0
M  V30 6993 H 641.021 1.52355 -6.27263 0
M  V30 6994 H 641.789 0.656339 -8.15864 0
M  V30 6995 N 644.452 1.42507 0.673017 0
M  V30 6996 C 645.415 1.4582 1.76831 0
M  V30 6997 C 646.415 0.345542 1.57043 0
M  V30 6998 O 647.605 0.606447 1.63303 0
M  V30 6999 C 644.737 1.29158 3.15485 0
M  V30 7000 H 645.93 2.43345 1.7528 0
M  V30 7001 H 643.483 1.28981 0.882817 0
M  V30 7002 H 644.218 0.325626 3.22661 0
M  V30 7003 H 644.003 2.09797 3.31252 0
M  V30 7004 H 645.493 1.34363 3.95394 0
M  V30 7005 N 645.93 -0.909495 1.28709 0
M  V30 7006 C 647.207 -1.63865 1.06806 0
M  V30 7007 C 647.587 -2.07445 -0.391143 0
M  V30 7008 O 646.935 -1.82269 -1.37805 0
M  V30 7009 C 647.145 -2.82692 2.04661 0
M  V30 7010 C 648.493 -3.5361 2.35042 0
M  V30 7011 O 649.517 -2.92847 2.02779 0
M  V30 7012 O 648.376 -4.63131 2.90124 0
M  V30 7013 H 645.47 -0.719065 0.408502 0
M  V30 7014 H 648.016 -0.958424 1.40044 0
M  V30 7015 H 646.788 -2.47614 3.0299 0
M  V30 7016 H 646.411 -3.58426 1.72095 0
M  V30 7017 N 647.408 -1.11026 -1.11852 0
M  V30 7018 C 648.34 -0.72249 -2.17515 0
M  V30 7019 C 649.353 0.243782 -1.60964 0
M  V30 7020 O 650.542 0.0273252 -1.78479 0
M  V30 7021 C 647.642 -0.0463979 -3.38868 0
M  V30 7022 C 646.815 -1.0384 -4.24895 0
M  V30 7023 C 645.874 -0.392659 -5.24733 0
M  V30 7024 O 644.9 -1.0453 -5.5952 0
M  V30 7025 N 646.102 0.846296 -5.74298 0
M  V30 7026 H 648.867 -1.63161 -2.51393 0
M  V30 7027 H 646.428 -0.999899 -1.27333 0
M  V30 7028 H 648.42 0.397215 -4.02746 0
M  V30 7029 H 646.99 0.765231 -3.03089 0
M  V30 7030 H 646.21 -1.6601 -3.57539 0
M  V30 7031 H 647.498 -1.70968 -4.79215 0
M  V30 7032 H 646.896 1.39578 -5.4821 0
M  V30 7033 H 645.453 1.23296 -6.40032 0
M  V30 7034 N 648.886 1.2938 -0.899927 0
M  V30 7035 C 650.133 1.9555 -0.525963 0
M  V30 7036 C 650.461 1.70945 0.927789 0
M  V30 7037 O 649.716 1.01545 1.67293 0
M  V30 7038 C 650.015 3.49114 -0.765113 0
M  V30 7039 C 649.681 3.93796 -2.19626 0
M  V30 7040 C 648.343 4.05707 -2.58758 0
M  V30 7041 C 650.695 4.16883 -3.12823 0
M  V30 7042 C 648.023 4.38074 -3.90267 0
M  V30 7043 C 650.375 4.50725 -4.4388 0
M  V30 7044 C 649.039 4.60845 -4.82885 0
M  V30 7045 H 648.309 0.715569 -0.192463 0
M  V30 7046 H 650.956 1.53972 -1.13863 0
M  V30 7047 H 649.261 3.91738 -0.069531 0
M  V30 7048 H 650.958 3.98409 -0.455144 0
M  V30 7049 H 647.548 3.85042 -1.88256 0
M  V30 7050 H 651.732 4.07147 -2.83804 0
M  V30 7051 H 646.988 4.44112 -4.20207 0
M  V30 7052 H 651.162 4.67538 -5.16121 0
M  V30 7053 H 648.789 4.85681 -5.84823 0
M  V30 7054 N 650.364 0.662433 1.43002 0
M  V30 7055 C 651.312 -0.035345 2.32573 0
M  V30 7056 C 652.306 -0.803505 1.49131 0
M  V30 7057 O 653.512 -0.712865 1.65282 0
M  V30 7058 H 649.887 -0.0302194 0.751393 0
M  V30 7059 H 651.858 0.737686 2.89138 0
M  V30 7060 C 650.607 -0.981575 3.33557 0
M  V30 7061 H 649.93 -0.399914 3.97795 0
M  V30 7062 H 651.37 -1.43873 3.98844 0
M  V30 7063 C 649.829 -2.08204 2.64863 0
M  V30 7064 O 650.359 -3.16698 2.47113 0
M  V30 7065 N 648.565 -1.85022 2.24088 0
M  V30 7066 H 648.112 -0.967909 2.38724 0
M  V30 7067 H 648.07 -2.58845 1.78457 0
M  V30 7068 N 651.842 -1.52309 0.404946 0
M  V30 7069 C 653.091 -2.00952 -0.173529 0
M  V30 7070 C 653.404 -1.29512 -1.46581 0
M  V30 7071 O 654.61 -1.6895 -2.12528 0
M  V30 7072 C 653.066 -3.58097 -0.359801 0
M  V30 7073 C 652.674 -4.38449 0.920138 0
M  V30 7074 C 654.418 -4.14984 -0.893794 0
M  V30 7075 C 652.325 -5.87227 0.701285 0
M  V30 7076 H 651.255 -0.750871 -0.0686244 0
M  V30 7077 H 653.906 -1.75687 0.529749 0
M  V30 7078 H 652.288 -3.79675 -1.12531 0
M  V30 7079 H 653.462 -4.28633 1.69147 0
M  V30 7080 H 651.777 -3.92859 1.38024 0
M  V30 7081 H 654.374 -5.23813 -1.0735 0
M  V30 7082 H 654.717 -3.72072 -1.8673 0
M  V30 7083 H 655.25 -3.97358 -0.187453 0
M  V30 7084 H 651.989 -6.34491 1.64624 0
M  V30 7085 H 651.509 -5.99792 -0.0308288 0
M  V30 7086 H 653.188 -6.46096 0.341846 0
M  V30 7087 N 653.32 -0.135238 -1.57019 0
M  V30 7088 C 654.731 0.387521 -1.82634 0
M  V30 7089 C 655.082 1.65528 -1.05332 0
M  V30 7090 O 654.207 2.14381 -0.294926 0
M  V30 7091 C 654.802 0.709852 -3.3128 0
M  V30 7092 C 653.361 1.17718 -3.57518 0
M  V30 7093 C 652.508 0.194183 -2.76619 0
M  V30 7094 H 655.459 -0.360126 -1.5456 0
M  V30 7095 H 655.48 1.5657 -3.46794 0
M  V30 7096 H 654.992 -0.213024 -3.87515 0
M  V30 7097 H 653.093 2.1164 -3.06658 0
M  V30 7098 H 653.206 1.11128 -4.66034 0
M  V30 7099 H 651.57 0.684478 -2.4533 0
M  V30 7100 H 652.353 -0.722076 -3.3562 0
M  V30 7101 N 654.798 1.5699 0.138552 0
M  V30 7102 C 656.026 1.87976 0.864437 0
M  V30 7103 C 656.441 0.724372 1.74351 0
M  V30 7104 O 655.798 -0.305575 1.79924 0
M  V30 7105 C 655.849 3.18276 1.71414 0
M  V30 7106 O 655.57 4.29365 0.870487 0
M  V30 7107 C 657.071 3.62834 2.54688 0
M  V30 7108 H 654.291 0.622878 0.249528 0
M  V30 7109 H 656.835 2.04094 0.128805 0
M  V30 7110 H 654.99 3.03886 2.40274 0
M  V30 7111 H 655.404 5.03924 1.45466 0
M  V30 7112 H 656.878 4.5682 3.0987 0
M  V30 7113 H 657.355 2.88533 3.31127 0
M  V30 7114 H 657.961 3.79946 1.91105 0
M  V30 7115 N 656.276 -0.40816 1.52223 0
M  V30 7116 C 657.224 -1.51788 1.76248 0
M  V30 7117 C 658.218 -1.57264 0.629638 0
M  V30 7118 O 659.424 -1.60659 0.811704 0
M  V30 7119 H 655.799 -0.504823 0.557367 0
M  V30 7120 H 657.77 -1.2871 2.69214 0
M  V30 7121 C 656.519 -2.89145 1.93107 0
M  V30 7122 H 655.842 -2.85674 2.79697 0
M  V30 7123 H 657.282 -3.66082 2.13916 0
M  V30 7124 C 655.741 -3.29581 0.698431 0
M  V30 7125 O 656.271 -4.01479 -0.133238 0
M  V30 7126 N 654.477 -2.85651 0.53405 0
M  V30 7127 H 654.024 -2.2731 1.21194 0
M  V30 7128 H 653.982 -3.13065 -0.289387 0
M  V30 7129 N 657.755 -1.42862 -0.66545 0
M  V30 7130 C 659.004 -1.43119 -1.42126 0
M  V30 7131 C 659.317 -0.0545297 -1.95524 0
M  V30 7132 O 660.523 0.0654747 -2.71421 0
M  V30 7133 C 658.979 -2.51797 -2.5715 0
M  V30 7134 C 658.587 -3.95514 -2.10411 0
M  V30 7135 C 660.331 -2.61233 -3.346 0
M  V30 7136 C 658.238 -4.95682 -3.22573 0
M  V30 7137 H 657.168 -0.532349 -0.533966 0
M  V30 7138 H 659.819 -1.68806 -0.719506 0
M  V30 7139 H 658.201 -2.19292 -3.29738 0
M  V30 7140 H 659.375 -4.3742 -1.44915 0
M  V30 7141 H 657.69 -3.90012 -1.45874 0
M  V30 7142 H 660.287 -3.33248 -4.18151 0
M  V30 7143 H 660.63 -1.65896 -3.81817 0
M  V30 7144 H 661.163 -2.9298 -2.69087 0
M  V30 7145 H 657.902 -5.92529 -2.80338 0
M  V30 7146 H 657.422 -4.58399 -3.86821 0
M  V30 7147 H 659.101 -5.17828 -3.87896 0
M  V30 7148 N 659.233 0.902656 -1.29189 0
M  V30 7149 C 660.461 1.68639 -1.19869 0
M  V30 7150 C 660.876 1.87254 0.241121 0
M  V30 7151 O 660.233 1.40745 1.16177 0
M  V30 7152 C 660.284 3.07251 -1.90471 0
M  V30 7153 O 660.005 2.89488 -3.28829 0
M  V30 7154 C 661.506 4.01653 -1.8759 0
M  V30 7155 H 658.726 0.526802 -0.415596 0
M  V30 7156 H 661.27 1.12901 -1.7051 0
M  V30 7157 H 659.425 3.59774 -1.43672 0
M  V30 7158 H 659.839 3.77296 -3.64346 0
M  V30 7159 H 661.313 4.96339 -2.4156 0
M  V30 7160 H 661.79 4.30881 -0.850756 0
M  V30 7161 H 662.396 3.55061 -2.34119 0
M  V30 7162 N 660.711 1.11618 1.11262 0
M  V30 7163 C 661.939 0.888739 1.8684 0
M  V30 7164 C 662.354 -0.561558 1.80255 0
M  V30 7165 O 661.711 -1.38782 1.18515 0
M  V30 7166 C 661.762 1.34422 3.35579 0
M  V30 7167 O 661.483 2.73766 3.42029 0
M  V30 7168 C 662.984 1.15246 4.28058 0
M  V30 7169 H 660.204 0.318152 0.590779 0
M  V30 7170 H 662.748 1.48398 1.40707 0
M  V30 7171 H 660.903 0.79239 3.7921 0
M  V30 7172 H 661.317 2.9355 4.34659 0
M  V30 7173 H 662.791 1.52015 5.30656 0
M  V30 7174 H 663.268 0.0922007 4.39103 0
M  V30 7175 H 663.874 1.69136 3.90222 0
M  V30 7176 N 662.189 -1.289 0.906776 0
M  V30 7177 C 663.136 -2.2751 0.388313 0
M  V30 7178 C 664.106 -1.57301 -0.533439 0
M  V30 7179 O 665.291 -1.85243 -0.457148 0
M  V30 7180 C 662.431 -3.43091 -0.37181 0
M  V30 7181 C 661.544 -4.28066 0.581647 0
M  V30 7182 C 660.679 -5.30837 -0.19623 0
M  V30 7183 C 659.718 -6.07472 0.751294 0
M  V30 7184 N 658.855 -7.021 0.00737727 0
M  V30 7185 H 663.695 -2.71237 1.23428 0
M  V30 7186 H 661.232 -1.33397 0.619962 0
M  V30 7187 H 663.19 -4.08888 -0.828641 0
M  V30 7188 H 661.82 -3.00374 -1.18218 0
M  V30 7189 H 660.872 -3.62378 1.157 0
M  V30 7190 H 662.184 -4.81382 1.30665 0
M  V30 7191 H 661.338 -6.02485 -0.71394 0
M  V30 7192 H 660.077 -4.78272 -0.954324 0
M  V30 7193 H 659.082 -5.34682 1.28044 0
M  V30 7194 H 660.307 -6.62126 1.50883 0
M  V30 7195 H 658.253 -6.51894 -0.732854 0
M  V30 7196 H 658.17 -7.53004 0.672334 0
M  V30 7197 H 659.438 -7.77956 -0.490365 0
M  V30 7198 N 663.667 -0.670007 -1.42649 0
M  V30 7199 C 664.895 -0.19854 -2.05945 0
M  V30 7200 C 665.31 1.14243 -1.50313 0
M  V30 7201 O 664.667 1.70872 -0.641027 0
M  V30 7202 C 664.718 -0.11966 -3.61302 0
M  V30 7203 O 664.439 -1.40764 -4.1487 0
M  V30 7204 C 665.94 0.375878 -4.41704 0
M  V30 7205 H 663.16 -0.0976894 -0.663851 0
M  V30 7206 H 665.704 -0.915392 -1.82868 0
M  V30 7207 H 663.859 0.547851 -3.83507 0
M  V30 7208 H 664.273 -1.27784 -5.08696 0
M  V30 7209 H 665.747 0.379988 -5.50691 0
M  V30 7210 H 666.224 1.41028 -4.15942 0
M  V30 7211 H 666.83 -0.259727 -4.24506 0
M  V30 7212 N 665.145 1.52092 -0.413018 0
M  V30 7213 C 666.095 2.23947 0.427993 0
M  V30 7214 C 667.079 1.25229 1.01027 0
M  V30 7215 O 668.271 1.50448 0.932444 0
M  V30 7216 C 665.4 3.0672 1.542 0
M  V30 7217 C 664.486 4.12851 0.970307 0
M  V30 7218 N 664.877 5.05644 0.125611 0
M  V30 7219 C 663.175 4.28404 1.24042 0
M  V30 7220 C 663.876 5.8138 -0.192876 0
M  V30 7221 N 662.852 5.41996 0.417273 0
M  V30 7222 H 666.654 2.93048 -0.223628 0
M  V30 7223 H 664.168 1.60852 -0.223664 0
M  V30 7224 H 666.165 3.56754 2.15714 0
M  V30 7225 H 664.825 2.39159 2.19621 0
M  V30 7226 H 665.836 5.17348 -0.238995 0
M  V30 7227 H 662.513 3.72071 1.89391 0
M  V30 7228 H 663.903 6.66129 -0.878762 0
M  V30 7229 N 666.623 0.143563 1.56945 0
M  V30 7230 C 667.57 -0.797433 2.16586 0
M  V30 7231 C 668.54 -1.24654 1.09775 0
M  V30 7232 O 669.725 -1.31968 1.37801 0
M  V30 7233 C 666.865 -2.03253 2.78895 0
M  V30 7234 C 665.978 -1.62954 4.00087 0
M  V30 7235 C 665.113 -2.81617 4.50406 0
M  V30 7236 C 664.152 -2.37675 5.64072 0
M  V30 7237 N 663.289 -3.49335 6.09023 0
M  V30 7238 H 668.129 -0.282023 2.96662 0
M  V30 7239 H 665.666 -0.127494 1.46546 0
M  V30 7240 H 667.624 -2.75653 3.13163 0
M  V30 7241 H 666.254 -2.52211 2.01469 0
M  V30 7242 H 665.306 -0.803322 3.71821 0
M  V30 7243 H 666.618 -1.26679 4.82446 0
M  V30 7244 H 665.772 -3.62212 4.86711 0
M  V30 7245 H 664.511 -3.21134 3.67048 0
M  V30 7246 H 663.516 -1.55519 5.27346 0
M  V30 7247 H 664.741 -1.99247 6.49213 0
M  V30 7248 H 662.687 -3.8848 5.28601 0
M  V30 7249 H 662.604 -3.17064 6.86299 0
M  V30 7250 H 663.872 -4.30297 6.49973 0
M  V30 7251 N 668.101 -1.57061 -0.130224 0
M  V30 7252 C 669.031 -2.02552 -1.16168 0
M  V30 7253 C 670.012 -0.907971 -1.4384 0
M  V30 7254 O 671.197 -1.17693 -1.54473 0
M  V30 7255 C 668.327 -2.42035 -2.49071 0
M  V30 7256 C 667.281 -3.5713 -2.35886 0
M  V30 7257 C 666.607 -3.82478 -3.7365 0
M  V30 7258 C 667.907 -4.89236 -1.8288 0
M  V30 7259 H 669.601 -2.8897 -0.783359 0
M  V30 7260 H 667.147 -1.39021 -0.375376 0
M  V30 7261 H 669.1 -2.72462 -3.21469 0
M  V30 7262 H 667.824 -1.52573 -2.88771 0
M  V30 7263 H 666.483 -3.26895 -1.65938 0
M  V30 7264 H 666.131 -2.9024 -4.10816 0
M  V30 7265 H 665.831 -4.59944 -3.65685 0
M  V30 7266 H 667.355 -4.15347 -4.47571 0
M  V30 7267 H 668.769 -5.18272 -2.45085 0
M  V30 7268 H 667.166 -5.70624 -1.85763 0
M  V30 7269 H 668.236 -4.78494 -0.785571 0
M  V30 7270 N 669.579 0.400081 -1.52437 0
M  V30 7271 C 670.804 1.17221 -1.71096 0
M  V30 7272 C 671.229 1.83269 -0.423565 0
M  V30 7273 O 670.587 1.70378 0.619751 0
M  V30 7274 C 670.635 2.20425 -2.85386 0
M  V30 7275 O 669.739 3.26769 -2.51586 0
M  V30 7276 H 669.08 0.341766 -0.569291 0
M  V30 7277 H 671.61 0.467772 -1.99181 0
M  V30 7278 H 671.62 2.64605 -3.10561 0
M  V30 7279 H 670.295 1.71737 -3.78786 0
M  V30 7280 H 668.872 2.87804 -2.37114 0
M  V30 7281 N 671.057 1.43213 0.657864 0
M  V30 7282 C 672.306 1.43871 1.41365 0
M  V30 7283 C 672.619 0.064898 1.95492 0
M  V30 7284 O 673.825 -0.0510796 2.71452 0
M  V30 7285 C 672.281 2.53158 2.55811 0
M  V30 7286 C 671.889 3.96624 2.08311 0
M  V30 7287 C 673.633 2.63004 3.3321 0
M  V30 7288 C 671.54 4.97385 3.1994 0
M  V30 7289 H 670.47 0.535174 0.531136 0
M  V30 7290 H 673.121 1.69185 0.710543 0
M  V30 7291 H 671.503 2.21037 3.2857 0
M  V30 7292 H 672.677 4.38182 1.42593 0
M  V30 7293 H 670.992 3.90781 1.43804 0
M  V30 7294 H 673.589 3.3546 4.16378 0
M  V30 7295 H 673.932 1.67918 3.80932 0
M  V30 7296 H 674.465 2.94403 2.67529 0
M  V30 7297 H 671.204 5.94007 2.77192 0
M  V30 7298 H 670.724 4.60444 3.84385 0
M  V30 7299 H 672.403 5.19877 3.85145 0
M  V30 7300 N 672.536 -0.895792 1.29666 0
M  V30 7301 C 673.484 -2.02173 1.15017 0
M  V30 7302 C 674.478 -1.69276 0.0647651 0
M  V30 7303 O 675.684 -1.7859 0.224846 0
M  V30 7304 H 672.059 -0.662719 0.355397 0
M  V30 7305 H 674.03 -2.11666 2.10334 0
M  V30 7306 C 672.779 -3.37212 0.847555 0
M  V30 7307 H 672.102 -3.6303 1.67479 0
M  V30 7308 H 673.542 -4.16668 0.785106 0
M  V30 7309 C 672.001 -3.33891 -0.44929 0
M  V30 7310 O 672.531 -3.73673 -1.47415 0
M  V30 7311 N 670.737 -2.86991 -0.456547 0
M  V30 7312 H 670.284 -2.54813 0.377925 0
M  V30 7313 H 670.242 -2.85152 -1.32423 0
M  V30 7314 N 674.014 -1.12206 -1.10668 0
M  V30 7315 C 674.944 -0.810086 -2.18997 0
M  V30 7316 C 675.925 0.225065 -1.68604 0
M  V30 7317 O 677.11 0.086783 -1.94006 0
M  V30 7318 C 674.24 -0.261262 -3.46316 0
M  V30 7319 C 673.194 -1.2292 -4.09969 0
M  V30 7320 C 672.52 -0.540713 -5.31959 0
M  V30 7321 C 673.82 -2.58295 -4.53962 0
M  V30 7322 H 675.514 -1.7159 -2.45352 0
M  V30 7323 H 673.06 -0.82646 -1.17922 0
M  V30 7324 H 675.013 -0.0307522 -4.21389 0
M  V30 7325 H 673.737 0.679879 -3.19445 0
M  V30 7326 H 672.396 -1.44548 -3.369 0
M  V30 7327 H 672.044 0.405492 -5.01363 0
M  V30 7328 H 671.744 -1.18637 -5.75499 0
M  V30 7329 H 673.268 -0.319184 -6.09765 0
M  V30 7330 H 674.682 -2.40709 -5.20319 0
M  V30 7331 H 673.079 -3.18916 -5.08343 0
M  V30 7332 H 674.149 -3.16918 -3.67002 0
M  V30 7333 N 675.492 1.28418 -0.913599 0
M  V30 7334 C 676.422 2.29713 -0.418847 0
M  V30 7335 C 677.403 1.62165 0.513469 0
M  V30 7336 O 678.588 1.89576 0.421235 0
M  V30 7337 C 675.718 3.45612 0.342042 0
M  V30 7338 C 674.672 4.25056 -0.501123 0
M  V30 7339 C 673.998 5.3329 0.388097 0
M  V30 7340 C 675.298 4.91814 -1.75831 0
M  V30 7341 H 676.992 2.71346 -1.26538 0
M  V30 7342 H 674.538 1.30446 -0.609903 0
M  V30 7343 H 676.491 4.15562 0.699 0
M  V30 7344 H 675.215 3.02858 1.22248 0
M  V30 7345 H 673.874 3.56833 -0.840598 0
M  V30 7346 H 673.522 4.8678 1.26707 0
M  V30 7347 H 673.222 5.87347 -0.172459 0
M  V30 7348 H 674.746 6.06088 0.74094 0
M  V30 7349 H 676.16 5.54126 -1.47026 0
M  V30 7350 H 674.557 5.55866 -2.26126 0
M  V30 7351 H 675.627 4.16313 -2.4862 0
M  V30 7352 N 676.97 0.677563 1.42291 0
M  V30 7353 C 678.386 0.347376 1.55774 0
M  V30 7354 C 678.586 -1.14703 1.65667 0
M  V30 7355 O 677.642 -1.93252 1.62512 0
M  V30 7356 C 678.955 1.08011 2.80631 0
M  V30 7357 C 680.503 1.06271 2.94407 0
M  V30 7358 C 680.978 1.77683 4.22129 0
M  V30 7359 N 682.469 1.74564 4.29047 0
M  V30 7360 C 683.204 2.26673 5.26694 0
M  V30 7361 N 682.7 2.87176 6.30477 0
M  V30 7362 N 684.493 2.17032 5.18511 0
M  V30 7363 H 676.644 1.64703 1.34114 0
M  V30 7364 H 678.907 0.694038 0.645768 0
M  V30 7365 H 678.613 2.13518 2.79469 0
M  V30 7366 H 678.487 0.647115 3.71608 0
M  V30 7367 H 680.874 0.0159658 2.95096 0
M  V30 7368 H 680.955 1.53461 2.04654 0
M  V30 7369 H 680.599 2.82327 4.22201 0
M  V30 7370 H 680.529 1.2794 5.10822 0
M  V30 7371 H 683.02 1.30436 3.54676 0
M  V30 7372 H 683.333 3.24551 7.01346 0
M  V30 7373 H 681.678 2.91247 6.31031 0
M  V30 7374 H 684.869 1.69451 4.36353 0
M  V30 7375 H 685.042 2.57948 5.94446 0
M  V30 7376 N 678.448 -1.51871 0.421078 0
M  V30 7377 C 679.358 -2.31077 -0.405069 0
M  V30 7378 C 680.374 -1.39301 -1.04265 0
M  V30 7379 O 681.55 -1.72376 -1.04157 0
M  V30 7380 C 678.615 -3.12556 -1.50032 0
M  V30 7381 C 677.676 -4.20088 -0.884559 0
M  V30 7382 C 676.909 -4.97673 -1.92762 0
M  V30 7383 O 677.132 -4.75696 -3.14753 0
M  V30 7384 O 676.066 -5.82203 -1.52719 0
M  V30 7385 H 679.892 -3.02742 0.241086 0
M  V30 7386 H 677.477 -1.48263 0.183991 0
M  V30 7387 H 679.359 -3.6326 -2.13589 0
M  V30 7388 H 678.034 -2.43672 -2.13086 0
M  V30 7389 H 676.941 -3.73502 -0.211379 0
M  V30 7390 H 678.274 -4.91298 -0.297763 0
M  V30 7391 N 679.926 -0.151884 -1.56866 0
M  V30 7392 C 681.175 0.497992 -1.95456 0
M  V30 7393 C 681.488 1.6569 -1.03953 0
M  V30 7394 O 682.694 2.37173 -1.32142 0
M  V30 7395 C 681.15 0.93732 -3.4748 0
M  V30 7396 C 680.758 -0.194921 -4.47576 0
M  V30 7397 C 682.502 1.55671 -3.94926 0
M  V30 7398 C 680.409 0.26295 -5.90815 0
M  V30 7399 H 679.339 0.189811 -0.729717 0
M  V30 7400 H 681.99 -0.237011 -1.81963 0
M  V30 7401 H 680.372 1.72773 -3.56322 0
M  V30 7402 H 681.546 -0.971951 -4.50433 0
M  V30 7403 H 679.861 -0.72303 -4.10075 0
M  V30 7404 H 682.458 1.91099 -4.99385 0
M  V30 7405 H 682.801 2.44748 -3.36755 0
M  V30 7406 H 683.334 0.831109 -3.89021 0
M  V30 7407 H 680.073 -0.592568 -6.52816 0
M  V30 7408 H 679.593 1.00575 -5.91308 0
M  V30 7409 H 681.272 0.713333 -6.43056 0
M  V30 7410 N 681.404 1.57128 0.121893 0
M  V30 7411 C 682.681 1.75664 0.860327 0
M  V30 7412 C 683.061 0.726585 1.98202 0
M  V30 7413 O 682.409 -0.24999 2.27128 0
M  V30 7414 C 682.619 3.20571 1.37968 0
M  V30 7415 C 683.967 3.82988 1.83317 0
M  V30 7416 O 684.991 3.24156 1.47654 0
M  V30 7417 O 683.85 4.86393 2.49168 0
M  V30 7418 H 680.944 0.719153 0.408348 0
M  V30 7419 H 683.49 1.6937 0.105859 0
M  V30 7420 H 682.262 3.87056 0.57477 0
M  V30 7421 H 681.885 3.31392 2.19694 0
M  V30 7422 N 682.882 -0.391992 1.52647 0
M  V30 7423 C 683.792 -1.503 1.80131 0
M  V30 7424 C 684.808 -1.59825 0.687882 0
M  V30 7425 O 685.984 -1.76218 0.975149 0
M  V30 7426 C 683.049 -2.85863 1.96171 0
M  V30 7427 C 682.11 -2.86084 3.20085 0
M  V30 7428 C 681.343 -4.15181 3.35351 0
M  V30 7429 O 681.566 -5.09981 2.55491 0
M  V30 7430 O 680.5 -4.22603 4.28591 0
M  V30 7431 H 684.326 -1.30007 2.74466 0
M  V30 7432 H 681.911 -0.579539 1.37701 0
M  V30 7433 H 683.793 -3.66236 2.08445 0
M  V30 7434 H 682.468 -3.06189 1.05025 0
M  V30 7435 H 681.375 -2.04504 3.13256 0
M  V30 7436 H 682.708 -2.7071 4.11068 0
M  V30 7437 N 684.36 -1.4356 -0.65026 0
M  V30 7438 C 685.585 -1.48995 -1.44275 0
M  V30 7439 C 686.01 -0.109954 -1.87778 0
M  V30 7440 O 685.368 0.896926 -1.57559 0
M  V30 7441 C 685.416 -2.44341 -2.65198 0
M  V30 7442 O 684.52 -1.93172 -3.6436 0
M  V30 7443 H 683.861 -0.503852 -0.432469 0
M  V30 7444 H 686.391 -1.88504 -0.795446 0
M  V30 7445 H 686.401 -2.61743 -3.12977 0
M  V30 7446 H 685.076 -3.44588 -2.32877 0
M  V30 7447 H 683.653 -1.85445 -3.23519 0
M  V30 7448 N 685.838 0.888903 -1.30139 0
M  V30 7449 C 687.084 1.6428 -1.18912 0
M  V30 7450 C 687.417 1.92499 0.256477 0
M  V30 7451 O 686.692 1.54312 1.18397 0
M  V30 7452 C 686.975 2.9851 -2.01405 0
M  V30 7453 C 686.828 2.77288 -3.54163 0
M  V30 7454 C 688.147 3.99383 -1.84882 0
M  V30 7455 H 685.266 0.596148 -0.433333 0
M  V30 7456 H 687.908 1.0289 -1.5973 0
M  V30 7457 H 686.058 3.50907 -1.66722 0
M  V30 7458 H 687.73 2.31709 -3.98884 0
M  V30 7459 H 685.973 2.11867 -3.78543 0
M  V30 7460 H 686.644 3.72717 -4.07168 0
M  V30 7461 H 689.12 3.56132 -2.15196 0
M  V30 7462 H 687.996 4.91222 -2.44934 0
M  V30 7463 H 688.257 4.34674 -0.806902 0
M  V30 7464 N 687.317 1.12792 1.10072 0
M  V30 7465 C 688.557 0.895691 1.8373 0
M  V30 7466 C 688.921 -0.568131 1.83402 0
M  V30 7467 O 690.122 -0.917666 2.52651 0
M  V30 7468 C 688.393 1.4593 3.2625 0
M  V30 7469 S 689.952 1.36615 4.16991 0
M  V30 7470 H 686.77 0.323017 0.633389 0
M  V30 7471 H 689.372 1.43816 1.32428 0
M  V30 7472 H 688.076 2.51818 3.24062 0
M  V30 7473 H 687.607 0.914478 3.82624 0
M  V30 7474 H 689.622 0.340131 4.95033 0
M  V30 7475 N 688.795 -1.27931 0.920396 0
M  V30 7476 C 690.02 -1.99343 0.572478 0
M  V30 7477 C 690.445 -1.68267 -0.840696 0
M  V30 7478 O 689.803 -0.918805 -1.56294 0
M  V30 7479 C 689.851 -3.51698 0.796284 0
M  V30 7480 O 688.955 -4.12157 -0.141602 0
M  V30 7481 H 688.296 -0.626065 0.221221 0
M  V30 7482 H 690.826 -1.62921 1.23765 0
M  V30 7483 H 690.836 -4.01793 0.708984 0
M  V30 7484 H 689.511 -3.73649 1.82644 0
M  V30 7485 H 688.088 -3.729 -0.005007 0
M  V30 7486 N 690.273 -0.685099 -1.4193 0
M  V30 7487 C 691.183 -0.013404 -2.34596 0
M  V30 7488 C 692.199 0.777589 -1.55658 0
M  V30 7489 O 693.375 0.717553 -1.88184 0
M  V30 7490 C 690.44 0.919031 -3.34297 0
M  V30 7491 C 689.501 0.121417 -4.29128 0
M  V30 7492 C 688.734 1.00944 -5.24067 0
M  V30 7493 O 688.957 2.24898 -5.24192 0
M  V30 7494 O 687.891 0.464724 -6.00103 0
M  V30 7495 H 691.717 -0.776978 -2.93593 0
M  V30 7496 H 689.302 -0.445379 -1.42607 0
M  V30 7497 H 691.184 1.45402 -3.9552 0
M  V30 7498 H 689.859 1.66228 -2.77759 0
M  V30 7499 H 688.766 -0.45792 -3.71287 0
M  V30 7500 H 690.099 -0.582937 -4.88736 0
M  V30 7501 N 691.751 1.51645 -0.429126 0
M  V30 7502 C 692.976 2.06917 0.141399 0
M  V30 7503 C 693.401 1.29527 1.36398 0
M  V30 7504 O 692.759 0.33094 1.78254 0
M  V30 7505 C 692.807 3.57776 0.4504 0
M  V30 7506 O 691.911 3.82639 1.53821 0
M  V30 7507 H 691.252 0.663978 0.0054647 0
M  V30 7508 H 693.782 1.95355 -0.608093 0
M  V30 7509 H 693.792 4.01894 0.703249 0
M  V30 7510 H 692.467 4.13532 -0.443213 0
M  V30 7511 H 691.044 3.5039 1.27597 0
M  V30 7512 N 693.229 0.160201 1.56784 0
M  V30 7513 C 694.506 -0.533355 1.88188 0
M  V30 7514 C 694.886 -1.82072 1.06831 0
M  V30 7515 O 694.234 -2.27946 0.158959 0
M  V30 7516 C 694.444 -0.786034 3.40033 0
M  V30 7517 C 695.792 -1.12097 4.09536 0
M  V30 7518 O 696.816 -0.874949 3.45287 0
M  V30 7519 O 695.675 -1.58457 5.23023 0
M  V30 7520 H 692.769 -0.273589 0.780434 0
M  V30 7521 H 695.315 0.197803 1.68543 0
M  V30 7522 H 694.087 0.124515 3.91102 0
M  V30 7523 H 693.71 -1.57091 3.65251 0
M  V30 7524 N 694.707 -1.5719 -0.113559 0
M  V30 7525 C 695.953 -1.85412 -0.821597 0
M  V30 7526 C 696.286 -0.746722 -1.7927 0
M  V30 7527 O 695.561 0.246971 -1.92926 0
M  V30 7528 C 695.844 -3.24233 -1.56669 0
M  V30 7529 C 695.697 -4.45578 -0.614823 0
M  V30 7530 C 697.016 -3.60697 -2.52161 0
M  V30 7531 H 694.135 -0.674406 -0.29723 0
M  V30 7532 H 696.777 -1.89807 -0.085694 0
M  V30 7533 H 694.927 -3.20617 -2.19401 0
M  V30 7534 H 696.599 -4.613 0.00407137 0
M  V30 7535 H 694.842 -4.33738 0.0732332 0
M  V30 7536 H 695.513 -5.39395 -1.17292 0
M  V30 7537 H 697.989 -3.65139 -1.99532 0
M  V30 7538 H 696.865 -4.58798 -3.01323 0
M  V30 7539 H 697.126 -2.88403 -3.35076 0
M  V30 7540 N 696.185 0.383891 -1.52853 0
M  V30 7541 C 697.432 1.12842 -1.68146 0
M  V30 7542 C 697.76 1.89823 -0.423954 0
M  V30 7543 O 697.015 1.86475 0.593765 0
M  V30 7544 C 697.314 2.12881 -2.87082 0
M  V30 7545 C 696.98 1.52519 -4.24322 0
M  V30 7546 C 695.642 1.35783 -4.61645 0
M  V30 7547 C 697.994 1.0868 -5.09743 0
M  V30 7548 C 695.322 0.737643 -5.82044 0
M  V30 7549 C 697.674 0.480699 -6.30771 0
M  V30 7550 C 696.338 0.300681 -6.66822 0
M  V30 7551 H 695.608 0.412917 -0.615289 0
M  V30 7552 H 698.255 0.412416 -1.87006 0
M  V30 7553 H 696.56 2.90719 -2.62659 0
M  V30 7554 H 698.257 2.70408 -2.96109 0
M  V30 7555 H 694.847 1.66534 -3.94923 0
M  V30 7556 H 699.031 1.2041 -4.81472 0
M  V30 7557 H 694.287 0.586415 -6.08581 0
M  V30 7558 H 698.461 0.132733 -6.96273 0
M  V30 7559 H 696.088 -0.181966 -7.59982 0
M  V30 7560 N 697.663 1.43903 0.642637 0
M  V30 7561 C 698.888 1.49758 1.43483 0
M  V30 7562 C 699.313 0.119911 1.87717 0
M  V30 7563 O 698.671 -0.888558 1.58033 0
M  V30 7564 C 698.719 2.45744 2.63898 0
M  V30 7565 O 697.823 1.95101 3.63331 0
M  V30 7566 H 697.164 0.506138 0.429791 0
M  V30 7567 H 699.694 1.88923 0.785438 0
M  V30 7568 H 699.704 2.63399 3.11584 0
M  V30 7569 H 698.379 3.45818 2.31046 0
M  V30 7570 H 696.956 1.87158 3.22531 0
M  V30 7571 N 699.141 -0.881989 1.30609 0
M  V30 7572 C 700.089 -2.00942 1.17155 0
M  V30 7573 C 701.083 -1.69198 0.0827154 0
M  V30 7574 O 702.289 -1.78342 0.243775 0
M  V30 7575 H 698.664 -0.658913 0.362406 0
M  V30 7576 H 700.635 -2.09423 2.12567 0
M  V30 7577 C 699.384 -3.36294 0.883273 0
M  V30 7578 H 698.707 -3.61233 1.7132 0
M  V30 7579 H 700.147 -4.15812 0.829255 0
M  V30 7580 C 698.606 -3.34348 -0.413851 0
M  V30 7581 O 699.136 -3.75216 -1.43444 0
M  V30 7582 N 697.342 -2.87459 -0.426082 0
M  V30 7583 H 696.889 -2.54397 0.40493 0
M  V30 7584 H 696.847 -2.8654 -1.29391 0
M  V30 7585 N 700.619 -1.13374 -1.09472 0
M  V30 7586 C 701.847 -0.918351 -1.85402 0
M  V30 7587 C 702.262 0.53281 -1.81126 0
M  V30 7588 O 701.619 1.36879 -1.20708 0
M  V30 7589 C 701.67 -1.39743 -3.33398 0
M  V30 7590 O 701.391 -2.79172 -3.37631 0
M  V30 7591 C 702.892 -1.22042 -4.2617 0
M  V30 7592 H 700.112 -0.327511 -0.585643 0
M  V30 7593 H 702.656 -1.50617 -1.38328 0
M  V30 7594 H 700.811 -0.852619 -3.77901 0
M  V30 7595 H 701.225 -3.00428 -4.29934 0
M  V30 7596 H 702.699 -1.60438 -5.2817 0
M  V30 7597 H 703.176 -0.162047 -4.38901 0
M  V30 7598 H 703.782 -1.75323 -3.87482 0
M  V30 7599 N 702.098 1.27442 -0.927168 0
M  V30 7600 C 703.028 2.29256 -0.443188 0
M  V30 7601 C 704.009 1.62701 0.49624 0
M  V30 7602 O 705.194 1.90013 0.401105 0
M  V30 7603 C 702.324 3.45955 0.305366 0
M  V30 7604 C 701.278 4.24501 -0.546178 0
M  V30 7605 C 700.604 5.33671 0.331512 0
M  V30 7606 C 701.904 4.89921 -1.81037 0
M  V30 7607 H 703.598 2.69988 -1.29409 0
M  V30 7608 H 701.144 1.29792 -0.623705 0
M  V30 7609 H 703.097 4.1628 0.654885 0
M  V30 7610 H 701.821 3.04138 1.19029 0
M  V30 7611 H 700.48 3.55921 -0.878398 0
M  V30 7612 H 700.128 4.88096 1.21537 0
M  V30 7613 H 699.828 5.87131 -0.234746 0
M  V30 7614 H 701.352 6.0684 0.676614 0
M  V30 7615 H 702.766 5.52536 -1.52895 0
M  V30 7616 H 701.163 5.53436 -2.32009 0
M  V30 7617 H 702.233 4.13652 -2.53021 0
M  V30 7618 N 703.576 0.692616 1.41565 0
M  V30 7619 C 704.853 0.150496 1.9502 0
M  V30 7620 C 705.233 -1.33881 1.63215 0
M  V30 7621 O 704.581 -2.08378 0.937598 0
M  V30 7622 C 704.791 0.438636 3.46233 0
M  V30 7623 C 706.139 0.364777 4.2303 0
M  V30 7624 O 707.163 0.373383 3.54238 0
M  V30 7625 O 706.022 0.32234 5.45549 0
M  V30 7626 H 703.116 0.0132454 0.826894 0
M  V30 7627 H 705.662 0.768574 1.51298 0
M  V30 7628 H 704.434 1.46962 3.62654 0
M  V30 7629 H 704.057 -0.210562 3.97042 0
M  V30 7630 N 705.054 -1.51416 0.437162 0
M  V30 7631 C 706.282 -2.06503 -0.128045 0
M  V30 7632 C 706.697 -1.30461 -1.36475 0
M  V30 7633 O 706.054 -0.364127 -1.78831 0
M  V30 7634 C 706.105 -3.58683 -0.450437 0
M  V30 7635 O 705.826 -4.31853 0.737186 0
M  V30 7636 C 707.327 -4.30284 -1.06633 0
M  V30 7637 H 704.547 -0.670952 -0.00800269 0
M  V30 7638 H 707.091 -1.94996 0.616193 0
M  V30 7639 H 705.246 -3.70106 -1.14457 0
M  V30 7640 H 705.66 -5.22467 0.461347 0
M  V30 7641 H 707.134 -5.37848 -1.24191 0
M  V30 7642 H 707.611 -3.88564 -2.0473 0
M  V30 7643 H 708.217 -4.23304 -0.411585 0
M  V30 7644 N 706.532 -0.168513 -1.56696 0
M  V30 7645 C 707.462 0.758563 -2.20835 0
M  V30 7646 C 708.443 1.24121 -1.1631 0
M  V30 7647 O 709.628 1.29487 -1.4473 0
M  V30 7648 C 706.758 1.9892 -2.8469 0
M  V30 7649 C 705.712 1.64252 -3.95228 0
M  V30 7650 C 705.038 2.94757 -4.46119 0
M  V30 7651 C 706.338 0.872675 -5.14958 0
M  V30 7652 H 708.032 0.223953 -2.98561 0
M  V30 7653 H 705.578 0.106277 -1.43607 0
M  V30 7654 H 707.531 2.64275 -3.28233 0
M  V30 7655 H 706.255 2.5479 -2.04327 0
M  V30 7656 H 704.914 1.01266 -3.52336 0
M  V30 7657 H 704.562 3.48662 -3.62552 0
M  V30 7658 H 704.262 2.72316 -5.2069 0
M  V30 7659 H 705.786 3.61147 -4.92347 0
M  V30 7660 H 707.2 1.42875 -5.55211 0
M  V30 7661 H 705.597 0.747402 -5.95428 0
M  V30 7662 H 706.667 -0.131535 -4.84722 0
M  V30 7663 N 708.01 1.57248 0.105221 0
M  V30 7664 C 709.235 1.90143 0.828264 0
M  V30 7665 C 709.66 0.761811 1.71983 0
M  V30 7666 O 709.018 -0.287086 1.79013 0
M  V30 7667 C 709.066 3.21856 1.62608 0
M  V30 7668 O 708.17 3.08732 2.7342 0
M  V30 7669 H 707.511 0.623558 0.228192 0
M  V30 7670 H 710.041 2.0443 0.0834826 0
M  V30 7671 H 710.051 3.54916 2.01243 0
M  V30 7672 H 708.726 4.0439 0.971687 0
M  V30 7673 H 707.303 2.87167 2.37886 0
M  V30 7674 N 709.488 -0.375779 1.53054 0
M  V30 7675 C 710.398 -1.48381 1.81715 0
M  V30 7676 C 711.414 -1.59087 0.704795 0
M  V30 7677 O 712.59 -1.75174 0.993785 0
M  V30 7678 C 709.655 -2.83767 1.99192 0
M  V30 7679 C 708.716 -2.82673 3.23102 0
M  V30 7680 C 707.949 -4.11601 3.39736 0
M  V30 7681 O 708.172 -5.07243 2.60885 0
M  V30 7682 O 707.106 -4.18034 4.33049 0
M  V30 7683 H 710.932 -1.27089 2.7583 0
M  V30 7684 H 708.517 -0.564902 1.38308 0
M  V30 7685 H 710.399 -3.64004 2.12318 0
M  V30 7686 H 709.074 -3.05057 1.08267 0
M  V30 7687 H 707.981 -2.0117 3.15407 0
M  V30 7688 H 709.314 -2.66335 4.13916 0
M  V30 7689 N 710.966 -1.44241 -0.634997 0
M  V30 7690 C 712.215 -1.46102 -1.39058 0
M  V30 7691 C 712.528 -0.0959909 -1.95364 0
M  V30 7692 O 713.734 0.00788751 -2.71499 0
M  V30 7693 C 712.19 -2.57195 -2.51751 0
M  V30 7694 C 711.798 -3.99888 -2.01974 0
M  V30 7695 C 713.542 -2.68272 -3.28984 0
M  V30 7696 C 711.449 -5.02412 -3.11987 0
M  V30 7697 H 710.379 -0.543556 -0.522554 0
M  V30 7698 H 713.03 -1.70294 -0.683538 0
M  V30 7699 H 711.412 -2.26237 -3.25012 0
M  V30 7700 H 712.586 -4.40396 -1.35604 0
M  V30 7701 H 710.901 -3.93019 -1.37568 0
M  V30 7702 H 713.498 -3.42042 -4.10988 0
M  V30 7703 H 713.841 -1.73957 -3.78212 0
M  V30 7704 H 714.374 -2.98622 -2.62812 0
M  V30 7705 H 711.113 -5.98342 -2.67707 0
M  V30 7706 H 710.633 -4.66501 -3.77011 0
M  V30 7707 H 712.312 -5.25939 -3.76825 0
M  V30 7708 N 712.444 0.87505 -1.31075 0
M  V30 7709 C 713.354 2.01441 -1.20244 0
M  V30 7710 C 714.37 1.73584 -0.120227 0
M  V30 7711 O 715.546 1.98559 -0.337063 0
M  V30 7712 C 712.611 3.34675 -0.905199 0
M  V30 7713 C 711.672 3.75889 -2.0738 0
M  V30 7714 C 710.905 5.02764 -1.79064 0
M  V30 7715 O 711.128 5.65795 -0.723318 0
M  V30 7716 O 710.062 5.40623 -2.64594 0
M  V30 7717 H 713.888 2.13509 -2.1598 0
M  V30 7718 H 711.473 1.00257 -1.10765 0
M  V30 7719 H 713.355 4.1458 -0.755057 0
M  V30 7720 H 712.03 3.23692 0.0221695 0
M  V30 7721 H 710.937 2.96645 -2.27931 0
M  V30 7722 H 712.27 3.91489 -2.98324 0
M  V30 7723 N 713.922 1.13953 1.08869 0
M  V30 7724 C 715.168 0.916103 1.81602 0
M  V30 7725 C 715.523 -0.551633 1.84322 0
M  V30 7726 O 714.816 -1.40322 1.30462 0
M  V30 7727 C 715.01 1.44495 3.26888 0
M  V30 7728 C 714.839 2.96257 3.38322 0
M  V30 7729 C 713.609 3.64658 3.49789 0
M  V30 7730 C 715.807 3.94156 3.30372 0
M  V30 7731 N 713.789 5.04379 3.49965 0
M  V30 7732 C 715.16 5.20101 3.37484 0
M  V30 7733 C 717.215 3.86342 3.14077 0
M  V30 7734 C 715.918 6.39145 3.29979 0
M  V30 7735 C 717.944 5.04927 3.07901 0
M  V30 7736 C 717.306 6.29738 3.1561 0
M  V30 7737 H 713.405 0.388701 0.678554 0
M  V30 7738 H 715.989 1.44879 1.3007 0
M  V30 7739 H 714.16 0.939102 3.76876 0
M  V30 7740 H 715.892 1.16193 3.87661 0
M  V30 7741 H 712.647 3.15196 3.5348 0
M  V30 7742 H 713.071 5.77305 3.53622 0
M  V30 7743 H 717.713 2.90726 3.06982 0
M  V30 7744 H 715.431 7.3501 3.35836 0
M  V30 7745 H 719.017 5.00626 2.9642 0
M  V30 7746 H 717.897 7.19958 3.10854 0
M  V30 7747 N 715.4 -1.26948 0.933913 0
M  V30 7748 C 716.348 -2.2862 0.428463 0
M  V30 7749 C 717.342 -1.62144 -0.490464 0
M  V30 7750 O 718.548 -1.76167 -0.36948 0
M  V30 7751 H 714.923 -0.742363 0.120003 0
M  V30 7752 H 716.894 -2.68659 1.29865 0
M  V30 7753 C 715.643 -3.46423 -0.29774 0
M  V30 7754 H 714.966 -3.97792 0.400183 0
M  V30 7755 H 716.406 -4.19505 -0.615736 0
M  V30 7756 C 714.865 -3.01017 -1.51295 0
M  V30 7757 O 715.395 -3.05226 -2.61151 0
M  V30 7758 N 713.601 -2.56442 -1.36696 0
M  V30 7759 H 713.148 -2.53217 -0.473178 0
M  V30 7760 H 713.106 -2.26424 -2.18127 0
M  V30 7761 N 716.879 -0.700114 -1.41195 0
M  V30 7762 C 718.29 -0.307249 -1.84154 0
M  V30 7763 C 718.641 1.15539 -1.58572 0
M  V30 7764 O 717.766 1.88744 -1.05852 0
M  V30 7765 C 718.361 -0.550872 -3.34292 0
M  V30 7766 C 716.92 -0.211877 -3.75803 0
M  V30 7767 C 716.067 -0.830915 -2.64558 0
M  V30 7768 H 719.018 -0.900431 -1.30683 0
M  V30 7769 H 719.039 0.188954 -3.80031 0
M  V30 7770 H 718.551 -1.61548 -3.5288 0
M  V30 7771 H 716.652 0.848283 -3.62815 0
M  V30 7772 H 716.765 -0.67007 -4.74391 0
M  V30 7773 H 715.129 -0.260155 -2.53368 0
M  V30 7774 H 715.912 -1.89948 -2.85963 0
M  V30 7775 N 718.357 1.51182 -0.445186 0
M  V30 7776 C 719.32 2.26501 0.350722 0
M  V30 7777 C 720.32 1.3025 0.942952 0
M  V30 7778 O 721.51 1.53897 0.816175 0
M  V30 7779 C 718.642 3.06274 1.49697 0
M  V30 7780 H 719.835 2.98299 -0.309474 0
M  V30 7781 H 717.388 1.55034 -0.198551 0
M  V30 7782 H 718.123 2.38911 2.19299 0
M  V30 7783 H 717.908 3.76979 1.0784 0
M  V30 7784 H 719.398 3.63306 2.05909 0
M  V30 7785 N 719.835 0.176821 1.56605 0
M  V30 7786 C 721.063 -0.472828 2.01425 0
M  V30 7787 C 721.478 -1.56436 1.05703 0
M  V30 7788 O 720.835 -1.82405 0.058808 0
M  V30 7789 C 720.886 -1.04607 3.46034 0
M  V30 7790 O 720.607 0.00189608 4.381 0
M  V30 7791 C 722.108 -1.7734 4.06282 0
M  V30 7792 H 719.328 -0.120503 0.660091 0
M  V30 7793 H 721.872 0.280166 2.02572 0
M  V30 7794 H 720.027 -1.74953 3.45645 0
M  V30 7795 H 720.441 -0.422118 5.22799 0
M  V30 7796 H 721.915 -2.12703 5.09374 0
M  V30 7797 H 722.392 -2.67043 3.4869 0
M  V30 7798 H 722.998 -1.11623 4.10391 0
M  V30 7799 N 721.313 -1.57302 -0.09688 0
M  V30 7800 C 722.26 -2.01933 -1.11766 0
M  V30 7801 C 723.23 -0.895329 -1.39904 0
M  V30 7802 O 724.415 -1.16119 -1.51397 0
M  V30 7803 C 721.555 -2.44726 -2.43317 0
M  V30 7804 C 720.668 -3.70639 -2.21925 0
M  V30 7805 C 719.803 -4.02318 -3.46862 0
M  V30 7806 C 718.842 -5.21346 -3.20725 0
M  V30 7807 N 717.979 -5.48787 -4.37924 0
M  V30 7808 H 722.819 -2.88919 -0.730075 0
M  V30 7809 H 720.356 -1.42901 -0.348962 0
M  V30 7810 H 722.314 -2.6758 -3.20088 0
M  V30 7811 H 720.944 -1.60753 -2.79926 0
M  V30 7812 H 719.996 -3.55271 -1.35965 0
M  V30 7813 H 721.308 -4.57557 -1.98603 0
M  V30 7814 H 720.462 -4.25939 -4.32042 0
M  V30 7815 H 719.201 -3.13918 -3.73238 0
M  V30 7816 H 718.206 -4.97547 -2.33938 0
M  V30 7817 H 719.431 -6.11343 -2.95697 0
M  V30 7818 H 717.377 -4.63346 -4.64378 0
M  V30 7819 H 717.294 -6.30073 -4.17785 0
M  V30 7820 H 718.562 -5.76943 -5.24173 0
M  V30 7821 N 722.791 0.367657 -1.53252 0
M  V30 7822 C 723.721 1.45632 -1.8252 0
M  V30 7823 C 724.702 1.55979 -0.678568 0
M  V30 7824 O 725.887 1.70581 -0.928217 0
M  V30 7825 C 723.017 2.82994 -2.01325 0
M  V30 7826 C 721.971 2.87473 -3.17086 0
M  V30 7827 C 721.297 4.2749 -3.21179 0
M  V30 7828 C 722.597 2.55182 -4.55719 0
M  V30 7829 H 724.291 1.21387 -2.73689 0
M  V30 7830 H 721.837 0.58251 -1.31692 0
M  V30 7831 H 723.79 3.59179 -2.20383 0
M  V30 7832 H 722.514 3.08622 -1.06864 0
M  V30 7833 H 721.173 2.13739 -2.97844 0
M  V30 7834 H 720.821 4.5019 -2.24361 0
M  V30 7835 H 720.521 4.31403 -3.98955 0
M  V30 7836 H 722.045 5.0555 -3.42419 0
M  V30 7837 H 723.459 3.21081 -4.74953 0
M  V30 7838 H 721.856 2.70414 -5.3572 0
M  V30 7839 H 722.926 1.5044 -4.60973 0
M  V30 7840 N 724.269 1.44576 0.627338 0
M  V30 7841 C 725.199 1.54562 1.75022 0
M  V30 7842 C 726.18 0.398378 1.65369 0
M  V30 7843 O 727.365 0.61899 1.84071 0
M  V30 7844 C 724.495 1.49309 3.13567 0
M  V30 7845 C 723.449 2.62549 3.38012 0
M  V30 7846 C 722.775 2.42348 4.76625 0
M  V30 7847 C 724.075 4.04678 3.30202 0
M  V30 7848 H 725.769 2.4855 1.66922 0
M  V30 7849 H 723.315 1.19624 0.801636 0
M  V30 7850 H 725.268 1.54895 3.919 0
M  V30 7851 H 723.992 0.518392 3.2246 0
M  V30 7852 H 722.651 2.56358 2.62061 0
M  V30 7853 H 722.299 1.43062 4.82226 0
M  V30 7854 H 721.999 3.18273 4.93939 0
M  V30 7855 H 723.523 2.49758 5.57183 0
M  V30 7856 H 724.937 4.12217 3.98435 0
M  V30 7857 H 723.334 4.80836 3.5905 0
M  V30 7858 H 724.404 4.2798 2.27949 0
M  V30 7859 N 725.747 -0.868086 1.31537 0
M  V30 7860 C 726.695 -1.99688 1.1928 0
M  V30 7861 C 727.689 -1.69101 0.100656 0
M  V30 7862 O 728.895 -1.78073 0.262677 0
M  V30 7863 H 725.27 -0.655032 0.369374 0
M  V30 7864 H 727.241 -2.07157 2.14776 0
M  V30 7865 C 725.99 -3.35338 0.918892 0
M  V30 7866 H 725.313 -3.59396 1.75142 0
M  V30 7867 H 726.753 -4.14909 0.873311 0
M  V30 7868 C 725.212 -3.34769 -0.378366 0
M  V30 7869 O 725.742 -3.76716 -1.39456 0
M  V30 7870 N 723.948 -2.87895 -0.39557 0
M  V30 7871 H 723.495 -2.53954 0.431889 0
M  V30 7872 H 723.453 -2.87897 -1.26344 0
M  V30 7873 N 727.225 -1.14528 -1.08264 0
M  V30 7874 C 728.157 -0.791325 -2.15106 0
M  V30 7875 C 729.17 0.192449 -1.61659 0
M  V30 7876 O 730.359 -0.0294704 -1.78476 0
M  V30 7877 C 727.459 -0.154183 -3.38549 0
M  V30 7878 C 726.632 -1.17305 -4.21377 0
M  V30 7879 C 725.691 -0.559401 -5.23218 0
M  V30 7880 O 724.717 -1.22277 -5.55911 0
M  V30 7881 N 725.919 0.663159 -5.767 0
M  V30 7882 H 728.684 -1.71076 -2.46075 0
M  V30 7883 H 726.245 -1.0399 -1.24087 0
M  V30 7884 H 728.237 0.268884 -4.03806 0
M  V30 7885 H 726.807 0.668418 -3.0537 0
M  V30 7886 H 726.027 -1.773 -3.52077 0
M  V30 7887 H 727.315 -1.86128 -4.73533 0
M  V30 7888 H 726.713 1.22066 -5.52373 0
M  V30 7889 H 725.27 1.02871 -6.43631 0
M  V30 7890 N 728.703 1.26451 -0.940633 0
M  V30 7891 C 729.613 2.30128 -0.455881 0
M  V30 7892 C 730.629 1.67536 0.469867 0
M  V30 7893 O 731.805 1.98344 0.349529 0
M  V30 7894 C 728.87 3.45634 0.271648 0
M  V30 7895 C 727.931 4.23709 -0.690594 0
M  V30 7896 C 727.164 5.337 0.00231047 0
M  V30 7897 O 727.387 5.57215 1.21935 0
M  V30 7898 O 726.321 5.98091 -0.676111 0
M  V30 7899 H 730.147 2.73655 -1.31707 0
M  V30 7900 H 727.732 1.3164 -0.706497 0
M  V30 7901 H 729.614 4.15853 0.681486 0
M  V30 7902 H 728.289 3.04138 1.10824 0
M  V30 7903 H 727.196 3.55974 -1.15037 0
M  V30 7904 H 728.529 4.68953 -1.49478 0
M  V30 7905 N 730.181 0.707592 1.40822 0
M  V30 7906 C 731.129 0.0386643 2.32568 0
M  V30 7907 C 732.123 -0.755653 1.51612 0
M  V30 7908 O 733.329 -0.659921 1.67467 0
M  V30 7909 H 729.704 -0.00629912 0.751974 0
M  V30 7910 H 731.675 0.8293 2.86645 0
M  V30 7911 C 730.424 -0.87496 3.36511 0
M  V30 7912 H 729.747 -0.273157 3.98866 0
M  V30 7913 H 731.187 -1.31111 4.03219 0
M  V30 7914 C 729.646 -1.99672 2.71353 0
M  V30 7915 O 730.176 -3.08676 2.57064 0
M  V30 7916 N 728.382 -1.77799 2.29861 0
M  V30 7917 H 727.929 -0.89147 2.41683 0
M  V30 7918 H 727.887 -2.53036 1.86601 0
M  V30 7919 N 731.66 -1.50943 0.453197 0
M  V30 7920 C 732.909 -2.01402 -0.10951 0
M  V30 7921 C 733.222 -1.3411 -1.42386 0
M  V30 7922 O 734.428 -1.75626 -2.07045 0
M  V30 7923 C 732.884 -3.5906 -0.245693 0
M  V30 7924 C 732.492 -4.353 1.05916 0
M  V30 7925 C 734.236 -4.17617 -0.761318 0
M  V30 7926 C 732.143 -5.84699 0.887752 0
M  V30 7927 H 731.073 -0.752674 -0.0447013 0
M  V30 7928 H 733.724 -1.73913 0.585375 0
M  V30 7929 H 732.106 -3.83062 -1.00395 0
M  V30 7930 H 733.28 -4.23034 1.82698 0
M  V30 7931 H 731.595 -3.88269 1.50452 0
M  V30 7932 H 734.192 -5.26963 -0.906306 0
M  V30 7933 H 734.535 -3.77824 -1.74799 0
M  V30 7934 H 735.068 -3.97753 -0.0609416 0
M  V30 7935 H 731.807 -6.28933 1.84726 0
M  V30 7936 H 731.327 -5.99587 0.160006 0
M  V30 7937 H 733.006 -6.44682 0.547223 0
M  V30 7938 N 733.138 -0.185124 -1.56509 0
M  V30 7939 C 734.048 0.751908 -2.22224 0
M  V30 7940 C 735.064 1.24244 -1.21817 0
M  V30 7941 O 736.24 1.29169 -1.54523 0
M  V30 7942 C 733.305 1.95837 -2.86092 0
M  V30 7943 C 732.366 1.51337 -4.01741 0
M  V30 7944 C 731.599 2.66233 -4.62554 0
M  V30 7945 O 731.822 3.8346 -4.22273 0
M  V30 7946 O 730.756 2.39517 -5.52191 0
M  V30 7947 H 734.582 0.222304 -3.02885 0
M  V30 7948 H 732.167 0.0437141 -1.49336 0
M  V30 7949 H 734.049 2.66368 -3.26536 0
M  V30 7950 H 732.724 2.47677 -2.08417 0
M  V30 7951 H 731.631 0.777155 -3.65939 0
M  V30 7952 H 732.964 1.04175 -4.81049 0
M  V30 7953 N 734.616 1.57351 0.0885366 0
M  V30 7954 C 735.841 1.91011 0.80805 0
M  V30 7955 C 736.266 0.780009 1.71165 0
M  V30 7956 O 735.624 -0.268083 1.79307 0
M  V30 7957 C 735.672 3.23562 1.59185 0
M  V30 7958 O 734.776 3.11615 2.7013 0
M  V30 7959 H 734.117 0.625943 0.221565 0
M  V30 7960 H 736.647 2.04507 0.0617954 0
M  V30 7961 H 736.657 3.5703 1.97468 0
M  V30 7962 H 735.332 4.05398 0.928741 0
M  V30 7963 H 733.909 2.89673 2.34827 0
M  V30 7964 N 736.094 -0.359525 1.53444 0
M  V30 7965 C 737.004 -1.46445 1.83278 0
M  V30 7966 C 738.02 -1.5833 0.721629 0
M  V30 7967 O 739.196 -1.7411 1.01231 0
M  V30 7968 C 736.261 -2.81638 2.02191 0
M  V30 7969 C 735.322 -2.7923 3.26082 0
M  V30 7970 C 734.555 -4.07974 3.44082 0
M  V30 7971 O 734.778 -5.04447 2.66251 0
M  V30 7972 O 733.712 -4.13417 4.37458 0
M  V30 7973 H 737.538 -1.24156 2.77162 0
M  V30 7974 H 735.123 -0.550201 1.389 0
M  V30 7975 H 737.005 -3.61732 2.16167 0
M  V30 7976 H 735.68 -3.03892 1.11496 0
M  V30 7977 H 734.587 -1.97813 3.17523 0
M  V30 7978 H 735.92 -2.6193 4.16718 0
M  V30 7979 N 737.572 -1.44907 -0.619662 0
M  V30 7980 C 738.502 -1.55488 -1.742 0
M  V30 7981 C 739.483 -0.407143 -1.65156 0
M  V30 7982 O 740.668 -0.628743 -1.8374 0
M  V30 7983 C 737.798 -1.5097 -3.1277 0
M  V30 7984 C 736.752 -2.64337 -3.36615 0
M  V30 7985 C 736.078 -2.44872 -4.75333 0
M  V30 7986 C 737.378 -4.06423 -3.28051 0
M  V30 7987 H 739.072 -2.49432 -1.65602 0
M  V30 7988 H 736.618 -1.20047 -0.795281 0
M  V30 7989 H 738.571 -1.56971 -3.91073 0
M  V30 7990 H 737.295 -0.535486 -3.2218 0
M  V30 7991 H 735.954 -2.57744 -2.60698 0
M  V30 7992 H 735.602 -1.45617 -4.81461 0
M  V30 7993 H 735.302 -3.20888 -4.92244 0
M  V30 7994 H 736.826 -2.52709 -5.55851 0
M  V30 7995 H 738.24 -4.14324 -3.96243 0
M  V30 7996 H 736.637 -4.82733 -3.56495 0
M  V30 7997 H 737.707 -4.29183 -2.25676 0
M  V30 7998 N 739.05 0.861098 -1.31996 0
M  V30 7999 C 739.998 1.99052 -1.20337 0
M  V30 8000 C 740.992 1.69045 -0.109623 0
M  V30 8001 O 742.198 1.77931 -0.272117 0
M  V30 8002 H 738.573 0.653064 -0.372843 0
M  V30 8003 H 740.544 2.06015 -2.15872 0
M  V30 8004 C 739.293 3.34846 -0.936663 0
M  V30 8005 H 738.616 3.58462 -1.77045 0
M  V30 8006 H 740.056 4.1444 -0.895302 0
M  V30 8007 C 738.515 3.34965 0.360607 0
M  V30 8008 O 739.045 3.7745 1.37456 0
M  V30 8009 N 737.251 2.88101 0.380296 0
M  V30 8010 H 736.798 2.53721 -0.445351 0
M  V30 8011 H 736.756 2.88563 1.24816 0
M  V30 8012 N 740.528 1.15101 1.07655 0
M  V30 8013 C 741.753 0.948177 1.84457 0
M  V30 8014 C 742.178 -0.498432 1.81376 0
M  V30 8015 O 741.536 -1.35509 1.20445 0
M  V30 8016 C 741.584 1.46318 3.29581 0
M  V30 8017 O 740.688 0.660342 4.07079 0
M  V30 8018 H 740.029 0.338428 0.571281 0
M  V30 8019 H 742.559 1.5301 1.35828 0
M  V30 8020 H 742.569 1.47468 3.80417 0
M  V30 8021 H 741.244 2.51635 3.31138 0
M  V30 8022 H 739.821 0.718216 3.65918 0
M  V30 8023 N 742.006 -1.2595 0.947325 0
M  V30 8024 C 742.936 -2.28521 0.479604 0
M  V30 8025 C 743.917 -1.63469 -0.470293 0
M  V30 8026 O 745.102 -1.90627 -0.370824 0
M  V30 8027 C 742.232 -3.46397 -0.250289 0
M  V30 8028 C 741.186 -4.23578 0.613643 0
M  V30 8029 C 740.512 -5.34131 -0.246568 0
M  V30 8030 C 741.812 -4.86979 1.88809 0
M  V30 8031 H 743.506 -2.67895 1.33688 0
M  V30 8032 H 741.052 -1.28783 0.644274 0
M  V30 8033 H 743.005 -4.17269 -0.588576 0
M  V30 8034 H 741.729 -3.05993 -1.14175 0
M  V30 8035 H 740.388 -3.54478 0.93491 0
M  V30 8036 H 740.036 -4.89968 -1.13756 0
M  V30 8037 H 739.736 -5.86683 0.328123 0
M  V30 8038 H 741.26 -6.07839 -0.579986 0
M  V30 8039 H 742.674 -5.50034 1.61666 0
M  V30 8040 H 741.071 -5.49675 2.40784 0
M  V30 8041 H 742.141 -4.09575 2.5957 0
M  V30 8042 N 743.484 -0.715051 -1.40445 0
M  V30 8043 C 744.9 -0.388555 -1.54798 0
M  V30 8044 C 745.1 1.10271 -1.68649 0
M  V30 8045 O 744.156 1.88875 -1.67578 0
M  V30 8046 C 745.469 -1.15414 -2.77669 0
M  V30 8047 C 747.017 -1.14039 -2.91486 0
M  V30 8048 C 747.492 -1.88812 -4.1727 0
M  V30 8049 N 748.983 -1.85878 -4.24268 0
M  V30 8050 C 749.718 -2.40558 -5.20499 0
M  V30 8051 N 749.214 -3.03791 -6.22642 0
M  V30 8052 N 751.007 -2.30703 -5.12574 0
M  V30 8053 H 743.158 -1.68201 -1.297 0
M  V30 8054 H 745.421 -0.710915 -0.627139 0
M  V30 8055 H 745.127 -2.20853 -2.7371 0
M  V30 8056 H 745.001 -0.745412 -3.69761 0
M  V30 8057 H 747.388 -0.0941996 -2.9495 0
M  V30 8058 H 747.469 -1.58834 -2.00513 0
M  V30 8059 H 747.113 -2.93422 -4.14568 0
M  V30 8060 H 747.043 -1.41438 -5.0725 0
M  V30 8061 H 749.534 -1.39794 -3.51093 0
M  V30 8062 H 749.847 -3.43032 -6.92495 0
M  V30 8063 H 748.192 -3.07875 -6.23087 0
M  V30 8064 H 751.383 -1.80961 -4.31707 0
M  V30 8065 H 751.556 -2.73618 -5.87398 0
M  V30 8066 N 744.962 1.50701 -0.461195 0
M  V30 8067 C 745.925 2.2686 0.326679 0
M  V30 8068 C 746.925 1.31243 0.929085 0
M  V30 8069 O 748.115 1.54754 0.799807 0
M  V30 8070 C 745.247 3.07844 1.46441 0
M  V30 8071 H 746.44 2.97954 -0.341095 0
M  V30 8072 H 743.993 1.54814 -0.214984 0
M  V30 8073 H 744.728 2.41223 2.16753 0
M  V30 8074 H 744.513 3.78101 1.03836 0
M  V30 8075 H 746.003 3.65469 2.02044 0
M  V30 8076 N 746.441 0.193421 1.56409 0
M  V30 8077 C 747.718 -0.493318 1.89277 0
M  V30 8078 C 748.098 -1.79765 1.10669 0
M  V30 8079 O 747.446 -2.27558 0.207274 0
M  V30 8080 C 747.656 -0.713732 3.41624 0
M  V30 8081 C 749.004 -1.03385 4.11821 0
M  V30 8082 O 750.028 -0.801511 3.47065 0
M  V30 8083 O 748.887 -1.47327 5.26267 0
M  V30 8084 H 745.981 -0.256973 0.786062 0
M  V30 8085 H 748.527 0.23351 1.68086 0
M  V30 8086 H 747.299 0.207446 3.9075 0
M  V30 8087 H 746.922 -1.49308 3.68501 0
M  V30 8088 N 747.919 -1.57396 -0.0801906 0
M  V30 8089 C 749.149 -1.90778 -0.792924 0
M  V30 8090 C 749.557 -0.786814 -1.72064 0
M  V30 8091 O 748.9 0.249259 -1.82001 0
M  V30 8092 C 748.962 -3.19552 -1.64702 0
M  V30 8093 C 748.626 -4.48259 -0.889567 0
M  V30 8094 C 749.623 -5.19465 -0.212602 0
M  V30 8095 C 747.308 -4.94896 -0.859229 0
M  V30 8096 C 749.302 -6.35555 0.484566 0
M  V30 8097 C 746.989 -6.10895 -0.158284 0
M  V30 8098 C 747.987 -6.81075 0.512421 0
M  V30 8099 O 747.675 -7.94862 1.20209 0
M  V30 8100 H 747.407 -0.63527 -0.231103 0
M  V30 8101 H 749.961 -2.0532 -0.0573081 0
M  V30 8102 H 748.191 -3.01196 -2.42524 0
M  V30 8103 H 749.88 -3.38649 -2.23767 0
M  V30 8104 H 750.646 -4.84467 -0.227403 0
M  V30 8105 H 746.525 -4.4015 -1.37073 0
M  V30 8106 H 750.069 -6.9027 1.00864 0
M  V30 8107 H 745.966 -6.45345 -0.141381 0
M  V30 8108 H 746.734 -8.10932 1.11051 0
M  V30 8109 N 749.397 0.351382 -1.53633 0
M  V30 8110 C 750.674 1.10903 -1.6112 0
M  V30 8111 C 751.054 2.06725 -0.427556 0
M  V30 8112 O 750.402 2.20992 0.580916 0
M  V30 8113 C 750.612 1.83561 -2.96827 0
M  V30 8114 C 751.96 2.37587 -3.51906 0
M  V30 8115 O 752.984 1.93669 -2.9895 0
M  V30 8116 O 751.843 3.17913 -4.44515 0
M  V30 8117 H 748.937 0.509558 -0.651368 0
M  V30 8118 H 751.483 0.353504 -1.65977 0
M  V30 8119 H 750.255 1.1371 -3.74414 0
M  V30 8120 H 749.878 2.6599 -2.95525 0
M  V30 8121 N 750.875 1.45233 0.611969 0
M  V30 8122 C 751.823 1.53898 1.74408 0
M  V30 8123 C 752.817 0.409254 1.64382 0
M  V30 8124 O 754.023 0.584988 1.70229 0
M  V30 8125 H 750.398 0.483303 0.576127 0
M  V30 8126 H 752.369 2.49143 1.64227 0
M  V30 8127 C 751.118 1.51865 3.12782 0
M  V30 8128 H 750.441 2.38118 3.21154 0
M  V30 8129 H 751.881 1.61986 3.91838 0
M  V30 8130 C 750.34 0.242374 3.36027 0
M  V30 8131 O 750.87 -0.679587 3.9591 0
M  V30 8132 N 749.076 0.139448 2.90265 0
M  V30 8133 H 748.623 0.890571 2.41716 0
M  V30 8134 H 748.581 -0.713686 3.06193 0
M  V30 8135 N 752.353 -0.854086 1.3245 0
M  V30 8136 C 753.283 -1.97827 1.24044 0
M  V30 8137 C 754.264 -1.69646 0.124166 0
M  V30 8138 O 755.449 -1.91687 0.31143 0
M  V30 8139 C 752.579 -3.33673 0.963324 0
M  V30 8140 C 751.533 -3.76207 2.04089 0
M  V30 8141 C 750.859 -5.0969 1.61618 0
M  V30 8142 C 752.159 -3.91612 3.45597 0
M  V30 8143 H 753.853 -2.05118 2.18099 0
M  V30 8144 H 751.399 -0.985489 1.04996 0
M  V30 8145 H 753.352 -4.11871 0.891061 0
M  V30 8146 H 752.076 -3.26597 -0.0128649 0
M  V30 8147 H 750.735 -3.0026 2.10332 0
M  V30 8148 H 750.383 -4.99072 0.627418 0
M  V30 8149 H 750.083 -5.3912 2.33717 0
M  V30 8150 H 751.607 -5.90381 1.55829 0
M  V30 8151 H 753.021 -4.60163 3.4194 0
M  V30 8152 H 751.418 -4.3246 4.16051 0
M  V30 8153 H 752.488 -2.9451 3.85217 0
M  V30 8154 N 753.831 -1.1567 -1.07043 0
M  V30 8155 C 755.077 -0.9349 -1.79965 0
M  V30 8156 C 755.41 0.536464 -1.86643 0
M  V30 8157 O 754.685 1.39781 -1.35247 0
M  V30 8158 C 754.968 -1.55371 -3.24857 0
M  V30 8159 C 754.821 -3.09589 -3.26305 0
M  V30 8160 C 756.14 -1.24209 -4.22209 0
M  V30 8161 H 753.259 -0.341061 -0.653335 0
M  V30 8162 H 755.901 -1.42883 -1.25237 0
M  V30 8163 H 754.051 -1.13368 -3.71591 0
M  V30 8164 H 755.723 -3.60521 -2.87789 0
M  V30 8165 H 753.966 -3.43315 -2.65174 0
M  V30 8166 H 754.637 -3.48002 -4.28484 0
M  V30 8167 H 757.113 -1.60548 -3.8388 0
M  V30 8168 H 755.989 -1.70119 -5.21872 0
M  V30 8169 H 756.25 -0.15964 -4.41812 0
M  V30 8170 N 755.309 1.25446 -0.953992 0
M  V30 8171 C 756.239 2.28264 -0.491717 0
M  V30 8172 C 757.22 1.63717 0.461617 0
M  V30 8173 O 758.405 1.90821 0.36071 0
M  V30 8174 C 755.535 3.46525 0.231915 0
M  V30 8175 C 754.489 4.23247 -0.636098 0
M  V30 8176 C 753.815 5.34254 0.218238 0
M  V30 8177 C 755.115 4.85971 -1.91389 0
M  V30 8178 H 756.809 2.67183 -1.35106 0
M  V30 8179 H 754.355 1.2844 -0.651095 0
M  V30 8180 H 756.308 4.17576 0.566439 0
M  V30 8181 H 755.032 3.06594 1.12551 0
M  V30 8182 H 753.691 3.53978 -0.953696 0
M  V30 8183 H 753.339 4.90564 1.11156 0
M  V30 8184 H 753.039 5.86501 -0.359232 0
M  V30 8185 H 754.563 6.08138 0.547743 0
M  V30 8186 H 755.977 5.49168 -1.64581 0
M  V30 8187 H 754.374 5.48391 -2.43696 0
M  V30 8188 H 755.444 4.08192 -2.61738 0
M  V30 8189 N 756.787 0.722489 1.40064 0
M  V30 8190 C 758.064 0.191829 1.94657 0
M  V30 8191 C 758.444 -1.30389 1.66018 0
M  V30 8192 O 757.792 -2.06342 0.981588 0
M  V30 8193 C 758.002 0.511978 3.45224 0
M  V30 8194 C 759.35 0.454426 4.22161 0
M  V30 8195 O 760.374 0.448438 3.53366 0
M  V30 8196 O 759.233 0.437986 5.44742 0
M  V30 8197 H 756.327 0.0307821 0.826427 0
M  V30 8198 H 758.873 0.800493 1.49634 0
M  V30 8199 H 757.645 1.54622 3.59455 0
M  V30 8200 H 757.268 -0.126296 3.97399 0
M  V30 8201 N 758.265 -1.50454 0.469181 0
M  V30 8202 C 759.495 -2.06429 -0.0840913 0
M  V30 8203 C 759.903 -1.3334 -1.34227 0
M  V30 8204 O 759.246 -0.395656 -1.79389 0
M  V30 8205 C 759.308 -3.56797 -0.440049 0
M  V30 8206 C 758.972 -4.51359 0.715838 0
M  V30 8207 C 759.969 -4.94754 1.59732 0
M  V30 8208 C 757.654 -4.94069 0.905621 0
M  V30 8209 C 759.648 -5.79564 2.653 0
M  V30 8210 C 757.335 -5.78662 1.96453 0
M  V30 8211 C 758.333 -6.21311 2.83658 0
M  V30 8212 O 758.021 -7.04218 3.87727 0
M  V30 8213 H 757.753 -0.675994 0.00289751 0
M  V30 8214 H 760.307 -1.94629 0.656417 0
M  V30 8215 H 758.537 -3.66492 -1.23372 0
M  V30 8216 H 760.226 -3.95145 -0.928181 0
M  V30 8217 H 760.992 -4.62428 1.46237 0
M  V30 8218 H 756.871 -4.60394 0.236326 0
M  V30 8219 H 760.415 -6.12774 3.33398 0
M  V30 8220 H 756.312 -6.10401 2.09955 0
M  V30 8221 H 757.08 -7.22464 3.84692 0
M  V30 8222 N 759.743 -0.201713 -1.56304 0
M  V30 8223 C 760.653 0.728296 -2.23009 0
M  V30 8224 C 761.669 1.22945 -1.23128 0
M  V30 8225 O 762.845 1.27523 -1.55884 0
M  V30 8226 C 759.91 1.92792 -2.88153 0
M  V30 8227 C 758.971 1.47068 -4.03323 0
M  V30 8228 C 758.204 2.61312 -4.65351 0
M  V30 8229 O 758.427 3.7896 -4.26317 0
M  V30 8230 O 757.361 2.33646 -5.54701 0
M  V30 8231 H 761.187 0.190166 -3.03104 0
M  V30 8232 H 758.772 0.0278725 -1.49374 0
M  V30 8233 H 760.654 2.6289 -3.29343 0
M  V30 8234 H 759.329 2.45452 -2.11033 0
M  V30 8235 H 758.236 0.738299 -3.66742 0
M  V30 8236 H 759.569 0.990666 -4.82127 0
M  V30 8237 N 761.222 1.57436 0.0718424 0
M  V30 8238 C 762.154 2.00412 1.1121 0
M  V30 8239 C 763.167 0.910074 1.34987 0
M  V30 8240 O 764.356 1.18796 1.33228 0
M  V30 8241 C 761.456 2.32786 2.46301 0
M  V30 8242 C 760.629 3.64036 2.4248 0
M  V30 8243 C 759.688 3.8408 3.59679 0
M  V30 8244 O 758.714 4.55667 3.4111 0
M  V30 8245 N 759.916 3.2643 4.80025 0
M  V30 8246 H 762.681 2.90264 0.746118 0
M  V30 8247 H 760.242 1.59791 0.260495 0
M  V30 8248 H 762.234 2.43368 3.23348 0
M  V30 8249 H 760.804 1.48824 2.74901 0
M  V30 8250 H 760.024 3.64208 1.50818 0
M  V30 8251 H 761.312 4.50217 2.37027 0
M  V30 8252 H 760.71 2.68325 4.98014 0
M  V30 8253 H 759.267 3.42461 5.54584 0
M  V30 8254 N 762.7 -0.34323 1.53817 0
M  V30 8255 C 763.63 -1.42709 1.84814 0
M  V30 8256 C 764.611 -1.5488 0.703297 0
M  V30 8257 O 765.796 -1.69082 0.955237 0
M  V30 8258 C 762.926 -2.79756 2.05801 0
M  V30 8259 C 761.88 -2.82392 3.21619 0
M  V30 8260 C 761.206 -4.22326 3.2794 0
M  V30 8261 C 762.506 -2.479 4.59721 0
M  V30 8262 H 764.2 -1.17018 2.75585 0
M  V30 8263 H 761.746 -0.561485 1.32602 0
M  V30 8264 H 763.699 -3.55627 2.26069 0
M  V30 8265 H 762.423 -3.06883 1.11761 0
M  V30 8266 H 761.082 -2.08974 3.01207 0
M  V30 8267 H 760.73 -4.46564 2.31494 0
M  V30 8268 H 760.43 -4.25001 4.05768 0
M  V30 8269 H 761.954 -5.00039 3.50419 0
M  V30 8270 H 763.368 -3.13484 4.80001 0
M  V30 8271 H 761.765 -2.61857 5.39954 0
M  V30 8272 H 762.835 -1.43087 4.63308 0
M  V30 8273 N 764.178 -1.45556 -0.604258 0
M  V30 8274 C 765.594 -1.30035 -0.925368 0
M  V30 8275 C 765.794 -0.255833 -1.99869 0
M  V30 8276 O 764.85 0.349076 -2.50075 0
M  V30 8277 C 766.163 -2.68028 -1.36314 0
M  V30 8278 C 767.711 -2.75951 -1.47717 0
M  V30 8279 C 768.186 -4.14476 -1.94868 0
M  V30 8280 N 769.677 -4.16787 -2.02097 0
M  V30 8281 C 770.412 -5.20845 -2.39809 0
M  V30 8282 N 769.908 -6.35246 -2.76467 0
M  V30 8283 N 771.701 -5.08204 -2.40177 0
M  V30 8284 H 763.852 -2.1214 0.10512 0
M  V30 8285 H 766.115 -0.947871 -0.0156303 0
M  V30 8286 H 765.821 -3.45667 -0.648628 0
M  V30 8287 H 765.695 -2.96711 -2.329 0
M  V30 8288 H 768.082 -1.98613 -2.18258 0
M  V30 8289 H 768.163 -2.50977 -0.494371 0
M  V30 8290 H 767.807 -4.923 -1.24912 0
M  V30 8291 H 767.737 -4.36843 -2.94068 0
M  V30 8292 H 770.228 -3.34233 -1.76343 0
M  V30 8293 H 770.541 -7.10438 -3.04134 0
M  V30 8294 H 768.886 -6.38642 -2.74155 0
M  V30 8295 H 772.077 -4.17874 -2.10947 0
M  V30 8296 H 772.25 -5.89417 -2.69242 0
M  V30 8297 N 765.656 0.84705 -1.32902 0
M  V30 8298 C 766.884 1.63403 -1.26913 0
M  V30 8299 C 767.299 1.88108 0.161483 0
M  V30 8300 O 766.656 1.45546 1.10103 0
M  V30 8301 C 766.707 2.98896 -2.03331 0
M  V30 8302 O 766.428 2.75281 -3.40811 0
M  V30 8303 C 767.929 3.93335 -2.04457 0
M  V30 8304 H 765.149 0.508701 -0.437566 0
M  V30 8305 H 767.693 1.05567 -1.75145 0
M  V30 8306 H 765.848 3.53356 -1.58802 0
M  V30 8307 H 766.262 3.61504 -3.8002 0
M  V30 8308 H 767.736 4.85647 -2.62394 0
M  V30 8309 H 768.213 4.26885 -1.03274 0
M  V30 8310 H 768.819 3.44812 -2.48967 0
M  V30 8311 N 767.134 1.16236 1.06428 0
M  V30 8312 C 768.044 0.881976 2.1739 0
M  V30 8313 C 769.06 -0.145259 1.73393 0
M  V30 8314 O 770.236 0.0310558 2.01376 0
M  V30 8315 C 767.301 0.385496 3.4455 0
M  V30 8316 C 766.362 1.47779 4.03063 0
M  V30 8317 C 765.595 1.0049 5.24154 0
M  V30 8318 O 765.818 -0.145889 5.70213 0
M  V30 8319 O 764.752 1.79265 5.74585 0
M  V30 8320 H 768.578 1.80983 2.43883 0
M  V30 8321 H 766.163 0.942226 1.15942 0
M  V30 8322 H 768.045 0.115536 4.21242 0
M  V30 8323 H 766.72 -0.514369 3.19587 0
M  V30 8324 H 765.627 1.80147 3.27869 0
M  V30 8325 H 766.96 2.35291 4.32318 0
M  V30 8326 N 768.612 -1.24939 0.960631 0
M  V30 8327 C 769.559 -2.25658 0.484459 0
M  V30 8328 C 770.529 -1.59422 -0.466242 0
M  V30 8329 O 771.714 -1.87015 -0.378169 0
M  V30 8330 C 768.854 -3.44359 -0.225958 0
M  V30 8331 C 767.967 -4.25214 0.762682 0
M  V30 8332 C 767.102 -5.31192 0.0290931 0
M  V30 8333 C 766.141 -6.03739 1.00827 0
M  V30 8334 N 765.278 -7.01437 0.305155 0
M  V30 8335 H 770.118 -2.65758 1.34821 0
M  V30 8336 H 767.655 -1.30648 0.675983 0
M  V30 8337 H 769.613 -4.12035 -0.654472 0
M  V30 8338 H 768.243 -3.05118 -1.05371 0
M  V30 8339 H 767.295 -3.57144 1.30966 0
M  V30 8340 H 768.607 -4.75406 1.50964 0
M  V30 8341 H 767.761 -6.04971 -0.457763 0
M  V30 8342 H 766.5 -4.81889 -0.750614 0
M  V30 8343 H 765.505 -5.2877 1.50607 0
M  V30 8344 H 766.73 -6.55131 1.7883 0
M  V30 8345 H 764.676 -6.54415 -0.455704 0
M  V30 8346 H 764.593 -7.49475 0.991104 0
M  V30 8347 H 765.861 -7.79336 -0.159966 0
M  V30 8348 N 770.09 -0.729906 -1.39679 0
M  V30 8349 C 771 -0.0880322 -2.34435 0
M  V30 8350 C 772.016 0.727674 -1.58053 0
M  V30 8351 O 773.192 0.657321 -1.90371 0
M  V30 8352 C 770.257 0.812211 -3.37052 0
M  V30 8353 C 769.318 -0.0151681 -4.29297 0
M  V30 8354 C 768.551 0.842202 -5.27013 0
M  V30 8355 O 768.774 2.08108 -5.31081 0
M  V30 8356 O 767.708 0.27357 -6.01278 0
M  V30 8357 H 771.534 -0.869989 -2.90972 0
M  V30 8358 H 769.119 -0.490522 -1.41118 0
M  V30 8359 H 771.001 1.32745 -3.99946 0
M  V30 8360 H 769.676 1.57307 -2.82907 0
M  V30 8361 H 768.583 -0.575811 -3.69642 0
M  V30 8362 H 769.916 -0.738129 -4.86634 0
M  V30 8363 N 771.568 1.50203 -0.477153 0
M  V30 8364 C 772.478 2.32421 0.319027 0
M  V30 8365 C 773.494 1.43075 0.990233 0
M  V30 8366 O 774.67 1.76123 0.976873 0
M  V30 8367 C 771.735 3.17909 1.38328 0
M  V30 8368 C 770.796 4.23082 0.728036 0
M  V30 8369 C 770.029 5.04484 1.74158 0
M  V30 8370 O 770.252 4.8705 2.96881 0
M  V30 8371 O 769.186 5.8747 1.31006 0
M  V30 8372 H 773.012 3.01638 -0.353281 0
M  V30 8373 H 770.597 1.47478 -0.238891 0
M  V30 8374 H 772.479 3.70937 1.9996 0
M  V30 8375 H 771.154 2.51413 2.03895 0
M  V30 8376 H 770.061 3.7403 0.07261 0
M  V30 8377 H 771.394 4.92065 0.115216 0
M  V30 8378 N 773.046 0.209999 1.56195 0
M  V30 8379 C 773.979 -0.744546 2.15712 0
M  V30 8380 C 774.957 -1.19917 1.09812 0
M  V30 8381 O 776.141 -1.284 1.38006 0
M  V30 8382 C 773.268 -2.00733 2.72807 0
M  V30 8383 C 772.314 -1.69363 3.91431 0
M  V30 8384 S 773.147 -0.828579 5.29051 0
M  V30 8385 C 774.303 -2.10118 5.89577 0
M  V30 8386 H 774.536 -0.238636 2.96341 0
M  V30 8387 H 772.069 -0.00517877 1.54399 0
M  V30 8388 H 774.027 -2.73246 3.06344 0
M  V30 8389 H 772.688 -2.48436 1.92193 0
M  V30 8390 H 771.881 -2.63157 4.29842 0
M  V30 8391 H 771.483 -1.04921 3.58981 0
M  V30 8392 H 773.775 -3.05231 6.04847 0
M  V30 8393 H 774.718 -1.76116 6.85849 0
M  V30 8394 H 775.126 -2.23644 5.18308 0
M  V30 8395 N 774.524 -1.57472 -0.0634922 0
M  V30 8396 C 775.434 -2.07621 -1.09227 0
M  V30 8397 C 776.45 -1.00746 -1.41867 0
M  V30 8398 O 777.626 -1.32269 -1.51878 0
M  V30 8399 C 774.691 -2.51707 -2.38421 0
M  V30 8400 C 773.752 -3.72917 -2.12676 0
M  V30 8401 C 772.985 -4.14891 -3.3571 0
M  V30 8402 O 773.208 -3.56663 -4.45137 0
M  V30 8403 O 772.142 -5.07616 -3.23434 0
M  V30 8404 H 775.968 -2.95612 -0.696205 0
M  V30 8405 H 773.553 -1.46787 -0.27819 0
M  V30 8406 H 775.435 -2.80547 -3.14438 0
M  V30 8407 H 774.11 -1.66842 -2.77391 0
M  V30 8408 H 773.017 -3.49148 -1.34337 0
M  V30 8409 H 774.35 -4.5866 -1.78583 0
M  V30 8410 N 776.003 0.335068 -1.53997 0
M  V30 8411 C 776.933 1.41727 -1.85568 0
M  V30 8412 C 777.914 1.54505 -0.7115 0
M  V30 8413 O 779.099 1.68573 -0.964191 0
M  V30 8414 C 776.229 2.7866 -2.07282 0
M  V30 8415 C 775.183 2.80682 -3.23112 0
M  V30 8416 C 774.509 4.20581 -3.30175 0
M  V30 8417 C 775.809 2.45458 -4.61029 0
M  V30 8418 H 777.503 1.15555 -2.76202 0
M  V30 8419 H 775.049 0.554445 -1.32898 0
M  V30 8420 H 777.002 3.54423 -2.27952 0
M  V30 8421 H 775.726 3.06286 -1.13387 0
M  V30 8422 H 774.385 2.07373 -3.02311 0
M  V30 8423 H 774.033 4.4533 -2.33859 0
M  V30 8424 H 773.733 4.22843 -4.08016 0
M  V30 8425 H 775.257 4.98174 -3.53066 0
M  V30 8426 H 776.671 3.10934 -4.81656 0
M  V30 8427 H 775.068 2.5899 -5.41336 0
M  V30 8428 H 776.138 1.40628 -4.6406 0
M  V30 8429 N 777.481 1.45874 0.596531 0
M  V30 8430 C 778.428 1.55389 1.70655 0
M  V30 8431 C 779.398 0.399036 1.61236 0
M  V30 8432 O 780.583 0.61396 1.80652 0
M  V30 8433 C 777.723 1.53705 3.0898 0
M  V30 8434 C 776.836 2.79823 3.29125 0
M  V30 8435 C 775.971 2.69735 4.5762 0
M  V30 8436 C 775.01 3.90856 4.71061 0
M  V30 8437 N 774.147 3.79237 5.90867 0
M  V30 8438 H 778.987 2.50211 1.61859 0
M  V30 8439 H 776.524 1.24146 0.789069 0
M  V30 8440 H 778.482 1.50715 3.89026 0
M  V30 8441 H 777.112 0.624247 3.16706 0
M  V30 8442 H 776.164 2.92852 2.42779 0
M  V30 8443 H 777.476 3.69628 3.34927 0
M  V30 8444 H 776.63 2.64773 5.45875 0
M  V30 8445 H 775.369 1.77547 4.54234 0
M  V30 8446 H 774.374 3.96164 3.81227 0
M  V30 8447 H 775.599 4.84124 4.76236 0
M  V30 8448 H 773.545 2.89825 5.88504 0
M  V30 8449 H 773.462 4.62686 5.97877 0
M  V30 8450 H 774.73 3.78227 6.8159 0
M  V30 8451 N 778.959 -0.83999 1.33349 0
M  V30 8452 C 779.889 -1.965 1.26135 0
M  V30 8453 C 780.87 -1.69505 0.142152 0
M  V30 8454 O 782.055 -1.91346 0.331743 0
M  V30 8455 C 779.185 -3.32632 0.99866 0
M  V30 8456 C 778.139 -3.74021 2.08068 0
M  V30 8457 C 777.465 -5.07947 1.67014 0
M  V30 8458 C 778.765 -3.87925 3.49731 0
M  V30 8459 H 780.459 -2.02793 2.20262 0
M  V30 8460 H 778.005 -0.974297 1.06035 0
M  V30 8461 H 779.958 -4.10903 0.934696 0
M  V30 8462 H 778.682 -3.26593 0.0217759 0
M  V30 8463 H 777.341 -2.98012 2.13505 0
M  V30 8464 H 776.989 -4.98378 0.680316 0
M  V30 8465 H 776.689 -5.36611 2.39422 0
M  V30 8466 H 778.213 -5.88695 1.62082 0
M  V30 8467 H 779.627 -4.5651 3.46802 0
M  V30 8468 H 778.024 -4.28023 4.20614 0
M  V30 8469 H 779.094 -2.90407 3.88319 0
M  V30 8470 N 780.437 -1.16799 -1.0581 0
M  V30 8471 C 781.384 -0.87902 -2.13405 0
M  V30 8472 C 782.354 0.174541 -1.6518 0
M  V30 8473 O 783.539 0.0386843 -1.90761 0
M  V30 8474 C 780.679 -0.391616 -3.42871 0
M  V30 8475 C 779.792 -1.50857 -4.04804 0
M  V30 8476 C 778.927 -0.975682 -5.22163 0
M  V30 8477 C 777.966 -2.06851 -5.76089 0
M  V30 8478 N 777.103 -1.55085 -6.84758 0
M  V30 8479 H 781.943 -1.80043 -2.37463 0
M  V30 8480 H 779.48 -0.898083 -1.16503 0
M  V30 8481 H 781.438 -0.0906247 -4.17102 0
M  V30 8482 H 780.068 0.49284 -3.19016 0
M  V30 8483 H 779.12 -1.92542 -3.28073 0
M  V30 8484 H 780.432 -2.33305 -4.40874 0
M  V30 8485 H 779.586 -0.628165 -6.03439 0
M  V30 8486 H 778.325 -0.120566 -4.87551 0
M  V30 8487 H 777.33 -2.42467 -4.93447 0
M  V30 8488 H 778.555 -2.92768 -6.12751 0
M  V30 8489 H 776.501 -0.718345 -6.52055 0
M  V30 8490 H 776.418 -2.31145 -7.19797 0
M  V30 8491 H 777.686 -1.23206 -7.69702 0
M  V30 8492 N 781.915 1.24427 -0.967243 0
M  V30 8493 C 782.825 2.29109 -0.504592 0
M  V30 8494 C 783.841 1.68495 0.434224 0
M  V30 8495 O 785.017 1.99041 0.307379 0
M  V30 8496 C 782.082 3.46133 0.198273 0
M  V30 8497 C 781.143 4.22149 -0.780313 0
M  V30 8498 C 780.376 5.33585 -0.110896 0
M  V30 8499 O 780.599 5.59676 1.10088 0
M  V30 8500 O 779.533 5.96522 -0.802823 0
M  V30 8501 H 783.359 2.708 -1.37482 0
M  V30 8502 H 780.944 1.30111 -0.73426 0
M  V30 8503 H 782.826 4.17205 0.593124 0
M  V30 8504 H 781.501 3.0642 1.04347 0
M  V30 8505 H 780.408 3.53454 -1.22561 0
M  V30 8506 H 781.741 4.65677 -1.59392 0
M  V30 8507 N 783.393 0.737304 1.3929 0
M  V30 8508 C 784.34 0.0988364 2.30588 0
M  V30 8509 C 785.31 -0.727206 1.49335 0
M  V30 8510 O 786.495 -0.686694 1.78014 0
M  V30 8511 C 783.635 -0.800734 3.35682 0
M  V30 8512 C 782.748 0.0381731 4.31983 0
M  V30 8513 C 781.883 -0.862884 5.24145 0
M  V30 8514 C 780.922 -0.0193639 6.12097 0
M  V30 8515 N 780.059 -0.87648 6.96608 0
M  V30 8516 H 784.899 0.883031 2.84617 0
M  V30 8517 H 782.436 0.447111 1.4014 0
M  V30 8518 H 784.394 -1.33676 3.95205 0
M  V30 8519 H 783.024 -1.55088 2.83103 0
M  V30 8520 H 782.076 0.691641 3.74059 0
M  V30 8521 H 783.388 0.690294 4.94 0
M  V30 8522 H 782.542 -1.46667 5.88705 0
M  V30 8523 H 781.281 -1.54878 4.62454 0
M  V30 8524 H 780.286 0.597202 5.46547 0
M  V30 8525 H 781.511 0.663348 6.75852 0
M  V30 8526 H 779.457 -1.54762 6.37483 0
M  V30 8527 H 779.374 -0.280892 7.55478 0
M  V30 8528 H 780.642 -1.46575 7.65595 0
M  V30 8529 N 784.871 -1.49948 0.485112 0
M  V30 8530 C 785.819 -2.30449 -0.315609 0
M  V30 8531 C 786.813 -1.38351 -0.977516 0
M  V30 8532 O 788.019 -1.55477 -0.907019 0
M  V30 8533 H 784.394 -0.742262 -0.120629 0
M  V30 8534 H 786.365 -2.95925 0.383552 0
M  V30 8535 C 785.114 -3.19283 -1.37673 0
M  V30 8536 H 784.437 -3.90067 -0.876801 0
M  V30 8537 H 785.877 -3.78579 -1.90929 0
M  V30 8538 C 784.336 -2.37817 -2.38631 0
M  V30 8539 O 784.866 -2.0711 -3.44192 0
M  V30 8540 N 783.072 -2.00135 -2.107 0
M  V30 8541 H 782.619 -2.25307 -1.24878 0
M  V30 8542 H 782.577 -1.45933 -2.7848 0
M  V30 8543 N 786.349 -0.21828 -1.56081 0
M  V30 8544 C 787.626 0.463143 -1.90038 0
M  V30 8545 C 788.006 1.77982 -1.13515 0
M  V30 8546 O 787.354 2.27199 -0.24345 0
M  V30 8547 C 787.564 0.659292 -3.42716 0
M  V30 8548 C 788.912 0.968203 -4.13414 0
M  V30 8549 O 789.936 0.746195 -3.48296 0
M  V30 8550 O 788.795 1.38936 -5.28544 0
M  V30 8551 H 785.889 0.244435 -0.790051 0
M  V30 8552 H 788.435 -0.260221 -1.67693 0
M  V30 8553 H 787.207 -0.269584 -3.9037 0
M  V30 8554 H 786.83 1.43426 -3.7083 0
M  V30 8555 N 787.827 1.57504 0.0551401 0
M  V30 8556 C 788.757 2.07864 1.06372 0
M  V30 8557 C 789.738 0.975565 1.39344 0
M  V30 8558 O 790.923 1.24929 1.48682 0
M  V30 8559 C 788.053 2.53643 2.3724 0
M  V30 8560 C 787.007 3.67978 2.18578 0
M  V30 8561 C 786.333 3.9987 3.54976 0
M  V30 8562 C 787.633 4.97405 1.59329 0
M  V30 8563 H 789.327 2.92379 0.644595 0
M  V30 8564 H 786.873 1.40654 0.308619 0
M  V30 8565 H 788.826 2.8749 3.08103 0
M  V30 8566 H 787.55 1.66177 2.81163 0
M  V30 8567 H 786.209 3.3444 1.50152 0
M  V30 8568 H 785.857 3.0951 3.965 0
M  V30 8569 H 785.557 4.76867 3.43324 0
M  V30 8570 H 787.081 4.36228 4.27244 0
M  V30 8571 H 788.495 5.29375 2.20078 0
M  V30 8572 H 786.892 5.78837 1.58327 0
M  V30 8573 H 787.962 4.81697 0.55638 0
M  V30 8574 N 789.305 -0.326896 1.54172 0
M  V30 8575 C 790.582 -1.08326 1.62864 0
M  V30 8576 C 790.962 -2.06018 0.46039 0
M  V30 8577 O 790.31 -2.21889 -0.545685 0
M  V30 8578 C 790.52 -1.78816 2.9971 0
M  V30 8579 C 791.868 -2.31958 3.55641 0
M  V30 8580 O 792.892 -1.88888 3.01993 0
M  V30 8581 O 791.751 -3.10801 4.49517 0
M  V30 8582 H 788.845 -0.499131 0.659392 0
M  V30 8583 H 791.391 -0.327054 1.66519 0
M  V30 8584 H 790.163 -1.07739 3.76176 0
M  V30 8585 H 789.786 -2.61255 2.99719 0
M  V30 8586 N 790.784 -1.46188 -0.588786 0
M  V30 8587 C 791.694 -1.58865 -1.72624 0
M  V30 8588 C 792.71 -0.472348 -1.67466 0
M  V30 8589 O 793.886 -0.735638 -1.87484 0
M  V30 8590 C 790.951 -1.56989 -3.0912 0
M  V30 8591 C 790.012 -2.79804 -3.25589 0
M  V30 8592 C 789.245 -2.78009 -4.55573 0
M  V30 8593 O 789.468 -1.86406 -5.39082 0
M  V30 8594 O 788.402 -3.6947 -4.75159 0
M  V30 8595 H 792.228 -2.55047 -1.64878 0
M  V30 8596 H 789.813 -1.28912 -0.755115 0
M  V30 8597 H 791.695 -1.58618 -3.90408 0
M  V30 8598 H 790.37 -0.639648 -3.17317 0
M  V30 8599 H 789.277 -2.83732 -2.43818 0
M  V30 8600 H 790.61 -3.72017 -3.22279 0
M  V30 8601 N 792.262 0.832906 -1.33792 0
M  V30 8602 C 793.509 1.58853 -1.25586 0
M  V30 8603 C 793.837 1.93695 0.176807 0
M  V30 8604 O 793.092 1.59386 1.13554 0
M  V30 8605 C 793.391 2.9047 -2.08235 0
M  V30 8606 C 793.057 2.74965 -3.57358 0
M  V30 8607 C 791.719 2.70444 -3.98012 0
M  V30 8608 C 794.071 2.59347 -4.52093 0
M  V30 8609 C 791.399 2.48212 -5.31608 0
M  V30 8610 C 793.751 2.38649 -5.85858 0
M  V30 8611 C 792.415 2.32533 -6.25687 0
M  V30 8612 H 791.685 0.581285 -0.459553 0
M  V30 8613 H 794.332 0.964501 -1.65438 0
M  V30 8614 H 792.637 3.57111 -1.6118 0
M  V30 8615 H 794.334 3.48001 -1.99239 0
M  V30 8616 H 790.924 2.79319 -3.25083 0
M  V30 8617 H 795.108 2.6187 -4.2159 0
M  V30 8618 H 790.364 2.41929 -5.61498 0
M  V30 8619 H 794.538 2.25549 -6.58863 0
M  V30 8620 H 792.165 2.15067 -7.29143 0
M  V30 8621 N 793.74 1.17359 1.05189 0
M  V30 8622 C 794.65 0.904984 2.16442 0
M  V30 8623 C 795.666 -0.12686 1.73537 0
M  V30 8624 O 796.842 0.0524127 2.01332 0
M  V30 8625 C 793.907 0.422019 3.44122 0
M  V30 8626 C 792.968 1.52045 4.01473 0
M  V30 8627 C 792.201 1.06044 5.23059 0
M  V30 8628 O 792.424 -0.0854023 5.70336 0
M  V30 8629 O 791.358 1.85349 5.72651 0
M  V30 8630 H 795.184 1.8356 2.41949 0
M  V30 8631 H 792.769 0.95447 1.14936 0
M  V30 8632 H 794.651 0.160208 4.21095 0
M  V30 8633 H 793.326 -0.480444 3.20115 0
M  V30 8634 H 792.233 1.83615 3.25939 0
M  V30 8635 H 793.566 2.39863 4.29798 0
M  V30 8636 N 795.218 -1.23913 0.973828 0
M  V30 8637 C 796.181 -2.23367 0.51378 0
M  V30 8638 C 797.181 -1.55923 -0.39302 0
M  V30 8639 O 798.371 -1.73187 -0.187626 0
M  V30 8640 C 795.503 -3.39944 -0.255152 0
M  V30 8641 H 796.696 -2.65581 1.39307 0
M  V30 8642 H 794.249 -1.36632 0.759039 0
M  V30 8643 H 794.984 -3.03177 -1.15127 0
M  V30 8644 H 794.769 -3.90098 0.395673 0
M  V30 8645 H 796.259 -4.13749 -0.565842 0
M  V30 8646 N 796.696 -0.74468 -1.38897 0
M  V30 8647 C 797.626 -0.126355 -2.33158 0
M  V30 8648 C 798.607 0.713517 -1.54412 0
M  V30 8649 O 799.792 0.656523 -1.82766 0
M  V30 8650 C 796.922 0.774375 -3.38557 0
M  V30 8651 C 795.876 0.0379214 -4.27983 0
M  V30 8652 C 795.202 1.05631 -5.24162 0
M  V30 8653 C 796.502 -1.12523 -5.10035 0
M  V30 8654 H 798.196 -0.913744 -2.85116 0
M  V30 8655 H 795.742 -0.440847 -1.37086 0
M  V30 8656 H 797.695 1.21655 -4.03458 0
M  V30 8657 H 796.419 1.59399 -2.85061 0
M  V30 8658 H 795.078 -0.384733 -3.64576 0
M  V30 8659 H 794.726 1.86975 -4.66958 0
M  V30 8660 H 794.426 0.568261 -5.84846 0
M  V30 8661 H 795.95 1.49799 -5.9194 0
M  V30 8662 H 797.364 -0.761037 -5.68226 0
M  V30 8663 H 795.761 -1.54355 -5.79909 0
M  V30 8664 H 796.831 -1.94237 -4.44297 0
M  V30 8665 N 798.174 1.49689 -0.493057 0
M  V30 8666 C 799.084 2.32746 0.294358 0
M  V30 8667 C 800.1 1.44117 0.975003 0
M  V30 8668 O 801.276 1.77149 0.958138 0
M  V30 8669 C 798.341 3.19358 1.34949 0
M  V30 8670 C 797.402 4.2383 0.683122 0
M  V30 8671 C 796.635 5.06303 1.68798 0
M  V30 8672 O 796.858 4.90172 2.91698 0
M  V30 8673 O 795.792 5.88826 1.24768 0
M  V30 8674 H 799.618 3.01247 -0.385254 0
M  V30 8675 H 797.203 1.47216 -0.254519 0
M  V30 8676 H 799.085 3.73037 1.96014 0
M  V30 8677 H 797.76 2.53561 2.01217 0
M  V30 8678 H 796.667 3.74086 0.0329351 0
M  V30 8679 H 798 4.9216 0.0630192 0
M  V30 8680 N 799.652 0.226554 1.55963 0
M  V30 8681 C 801.068 -0.128733 1.5908 0
M  V30 8682 C 801.268 -1.58558 1.24345 0
M  V30 8683 O 800.324 -2.32661 0.981069 0
M  V30 8684 C 801.637 0.202076 3.0002 0
M  V30 8685 C 803.185 0.144718 3.12665 0
M  V30 8686 C 803.66 0.449272 4.55791 0
M  V30 8687 N 805.151 0.399026 4.61478 0
M  V30 8688 C 805.886 0.608106 5.70166 0
M  V30 8689 N 805.382 0.879227 6.87198 0
M  V30 8690 N 807.175 0.5402 5.59498 0
M  V30 8691 H 799.326 1.17686 1.76816 0
M  V30 8692 H 801.589 0.472072 0.822102 0
M  V30 8693 H 801.295 1.21341 3.30105 0
M  V30 8694 H 801.169 -0.480554 3.74126 0
M  V30 8695 H 803.556 -0.857261 2.82374 0
M  V30 8696 H 803.637 0.860899 2.40878 0
M  V30 8697 H 803.281 1.44871 4.86801 0
M  V30 8698 H 803.211 -0.288157 5.25811 0
M  V30 8699 H 805.702 0.197372 3.77384 0
M  V30 8700 H 806.015 1.02673 7.65949 0
M  V30 8701 H 804.36 0.916477 6.88931 0
M  V30 8702 H 807.551 0.328581 4.66945 0
M  V30 8703 H 807.724 0.706548 6.44137 0
M  V30 8704 N 801.13 -1.57531 -0.0467866 0
M  V30 8705 C 802.077 -2.05387 -1.05285 0
M  V30 8706 C 803.047 -0.939385 -1.36985 0
M  V30 8707 O 804.232 -1.20877 -1.47626 0
M  V30 8708 C 801.372 -2.52343 -2.35408 0
M  V30 8709 C 800.485 -3.77512 -2.10022 0
M  V30 8710 C 799.62 -4.1315 -3.33887 0
M  V30 8711 C 798.659 -5.31286 -3.03976 0
M  V30 8712 N 797.796 -5.62441 -4.20243 0
M  V30 8713 H 802.636 -2.91095 -0.637788 0
M  V30 8714 H 800.173 -1.43939 -0.303322 0
M  V30 8715 H 802.131 -2.77628 -3.11413 0
M  V30 8716 H 800.761 -1.69577 -2.7467 0
M  V30 8717 H 799.813 -3.59417 -1.24594 0
M  V30 8718 H 801.125 -4.63644 -1.83945 0
M  V30 8719 H 800.279 -4.39469 -4.18273 0
M  V30 8720 H 799.018 -3.25634 -3.63062 0
M  V30 8721 H 798.023 -5.04738 -2.17991 0
M  V30 8722 H 799.248 -6.20441 -2.76098 0
M  V30 8723 H 797.194 -4.77885 -4.49402 0
M  V30 8724 H 797.111 -6.43046 -3.97528 0
M  V30 8725 H 798.379 -5.93327 -5.05553 0
M  V30 8726 N 802.608 0.318715 -1.54344 0
M  V30 8727 C 803.836 1.0755 -1.7675 0
M  V30 8728 C 804.251 1.81543 -0.518422 0
M  V30 8729 O 803.608 1.75198 0.511078 0
M  V30 8730 C 803.659 2.06983 -2.96378 0
M  V30 8731 O 803.38 1.35995 -4.16458 0
M  V30 8732 C 804.881 2.94841 -3.31034 0
M  V30 8733 H 802.101 0.319711 -0.589937 0
M  V30 8734 H 804.645 0.363369 -2.01246 0
M  V30 8735 H 802.8 2.73724 -2.74142 0
M  V30 8736 H 803.214 2.02623 -4.83781 0
M  V30 8737 H 804.688 3.60496 -4.18027 0
M  V30 8738 H 805.165 3.62199 -2.48412 0
M  V30 8739 H 805.771 2.33656 -3.55366 0
M  V30 8740 N 804.086 1.46499 0.581025 0
M  V30 8741 C 805.033 1.5719 1.68997 0
M  V30 8742 C 806.003 0.416114 1.60803 0
M  V30 8743 O 807.188 0.633086 1.79991 0
M  V30 8744 C 804.328 1.56973 3.07333 0
M  V30 8745 C 803.441 2.83298 3.26139 0
M  V30 8746 C 802.576 2.74574 4.54734 0
M  V30 8747 C 801.615 3.9583 4.66889 0
M  V30 8748 N 800.752 3.85482 5.86811 0
M  V30 8749 H 805.592 2.51914 1.59196 0
M  V30 8750 H 803.129 1.24975 0.775857 0
M  V30 8751 H 805.087 1.54832 3.87405 0
M  V30 8752 H 803.717 0.657803 3.16027 0
M  V30 8753 H 802.769 2.95411 2.3966 0
M  V30 8754 H 804.081 3.7316 3.30988 0
M  V30 8755 H 803.235 2.70548 5.43036 0
M  V30 8756 H 801.974 1.82354 4.52325 0
M  V30 8757 H 800.979 4.00186 3.77003 0
M  V30 8758 H 802.204 4.89148 4.71075 0
M  V30 8759 H 800.15 2.96051 5.85397 0
M  V30 8760 H 800.067 4.69002 5.92936 0
M  V30 8761 H 801.335 3.85434 6.7754 0
M  V30 8762 N 805.565 -0.825799 1.34232 0
M  V30 8763 C 806.512 -1.93651 1.2557 0
M  V30 8764 C 807.482 -1.65578 0.131536 0
M  V30 8765 O 808.667 -1.88231 0.312027 0
M  V30 8766 C 805.807 -3.29862 1.01415 0
M  V30 8767 C 804.92 -3.70247 2.22579 0
M  V30 8768 C 804.055 -4.95392 1.91731 0
M  V30 8769 C 803.094 -5.28349 3.09053 0
M  V30 8770 N 802.231 -6.44671 2.78107 0
M  V30 8771 H 807.071 -2.00392 2.20561 0
M  V30 8772 H 804.608 -0.980441 1.09662 0
M  V30 8773 H 806.566 -4.08356 0.854485 0
M  V30 8774 H 805.196 -3.22642 0.100936 0
M  V30 8775 H 804.248 -2.87169 2.49476 0
M  V30 8776 H 805.56 -3.90575 3.10246 0
M  V30 8777 H 804.714 -5.81665 1.72484 0
M  V30 8778 H 803.453 -4.77059 1.0132 0
M  V30 8779 H 802.458 -4.40574 3.289 0
M  V30 8780 H 803.683 -5.48622 4.00239 0
M  V30 8781 H 801.629 -6.278 1.9027 0
M  V30 8782 H 801.546 -6.65158 3.59306 0
M  V30 8783 H 802.814 -7.34022 2.62358 0
M  V30 8784 N 807.043 -1.17915 -1.04565 0
M  V30 8785 C 808.32 -0.881187 -1.74627 0
M  V30 8786 C 808.7 0.617123 -2.01878 0
M  V30 8787 O 808.048 1.57032 -1.65991 0
M  V30 8788 C 808.258 -1.72299 -3.03503 0
M  V30 8789 C 809.606 -1.94688 -3.77335 0
M  V30 8790 O 810.63 -1.6931 -3.13389 0
M  V30 8791 O 809.489 -2.37379 -4.92253 0
M  V30 8792 H 806.583 -0.326864 -0.759664 0
M  V30 8793 H 809.129 -1.28642 -1.10676 0
M  V30 8794 H 807.901 -2.73891 -2.79462 0
M  V30 8795 H 807.524 -1.31593 -3.75192 0
M  V30 8796 N 808.521 1.23394 -0.980386 0
M  V30 8797 C 809.453 2.24146 -0.478657 0
M  V30 8798 C 810.466 1.57303 0.419492 0
M  V30 8799 O 811.655 1.77094 0.223631 0
M  V30 8800 C 808.755 3.3732 0.326913 0
M  V30 8801 C 807.928 4.33744 -0.56436 0
M  V30 8802 C 806.987 5.25866 0.187358 0
M  V30 8803 O 806.013 5.67626 -0.423019 0
M  V30 8804 N 807.215 5.61492 1.47335 0
M  V30 8805 H 809.98 2.67826 -1.34496 0
M  V30 8806 H 807.541 1.37566 -0.853653 0
M  V30 8807 H 809.533 3.95926 0.838148 0
M  V30 8808 H 808.103 2.92823 1.09422 0
M  V30 8809 H 807.323 3.73641 -1.25642 0
M  V30 8810 H 808.611 4.95123 -1.17177 0
M  V30 8811 H 808.009 5.29514 1.99077 0
M  V30 8812 H 806.566 6.2257 1.93002 0
M  V30 8813 N 809.999 0.752036 1.385 0
M  V30 8814 C 810.909 0.125318 2.34265 0
M  V30 8815 C 811.925 -0.702437 1.59191 0
M  V30 8816 O 813.101 -0.626951 1.91393 0
M  V30 8817 C 810.166 -0.758486 3.38301 0
M  V30 8818 C 809.227 0.0834636 4.29219 0
M  V30 8819 C 808.46 -0.758252 5.28286 0
M  V30 8820 O 808.683 -1.99632 5.34325 0
M  V30 8821 O 807.617 -0.177878 6.01637 0
M  V30 8822 H 811.443 0.91617 2.89551 0
M  V30 8823 H 809.028 0.512911 1.4032 0
M  V30 8824 H 810.91 -1.26365 4.02007 0
M  V30 8825 H 809.585 -1.52786 2.85374 0
M  V30 8826 H 808.492 0.634545 3.68679 0
M  V30 8827 H 809.825 0.815455 4.85398 0
M  V30 8828 N 811.477 -1.49425 0.500989 0
M  V30 8829 C 812.41 -2.25887 -0.324087 0
M  V30 8830 C 813.388 -1.30469 -0.970388 0
M  V30 8831 O 814.572 -1.59758 -1.00049 0
M  V30 8832 C 811.699 -3.05787 -1.45643 0
M  V30 8833 C 810.745 -4.16359 -0.924508 0
M  V30 8834 S 811.578 -5.35181 0.184707 0
M  V30 8835 C 812.734 -6.18636 -0.950806 0
M  V30 8836 H 812.967 -2.95519 0.324891 0
M  V30 8837 H 810.5 -1.51723 0.286289 0
M  V30 8838 H 812.458 -3.52405 -2.10525 0
M  V30 8839 H 811.119 -2.35624 -2.07703 0
M  V30 8840 H 810.312 -4.71781 -1.77311 0
M  V30 8841 H 809.914 -3.72331 -0.352907 0
M  V30 8842 H 812.206 -6.51581 -1.85603 0
M  V30 8843 H 813.149 -7.06761 -0.435212 0
M  V30 8844 H 813.557 -5.512 -1.21813 0
M  V30 8845 N 812.955 -0.234822 -1.55841 0
M  V30 8846 C 813.887 0.702346 -2.18174 0
M  V30 8847 C 814.9 1.14776 -1.15457 0
M  V30 8848 O 816.089 1.07662 -1.42377 0
M  V30 8849 C 813.189 1.96483 -2.76129 0
M  V30 8850 C 812.362 1.67283 -4.04148 0
M  V30 8851 C 811.421 2.7837 -4.46539 0
M  V30 8852 O 810.447 2.46272 -5.13166 0
M  V30 8853 N 811.649 4.07611 -4.1332 0
M  V30 8854 H 814.414 0.169074 -2.99223 0
M  V30 8855 H 811.975 -0.0543164 -1.61809 0
M  V30 8856 H 813.967 2.70016 -3.01452 0
M  V30 8857 H 812.537 2.40822 -1.99307 0
M  V30 8858 H 811.757 0.773278 -3.86541 0
M  V30 8859 H 813.045 1.45222 -4.87635 0
M  V30 8860 H 812.443 4.36527 -3.59806 0
M  V30 8861 H 811 4.77646 -4.43506 0
M  V30 8862 N 814.433 1.57553 0.0384317 0
M  V30 8863 C 815.363 2.0898 1.04161 0
M  V30 8864 C 816.344 0.99029 1.38301 0
M  V30 8865 O 817.529 1.26499 1.47349 0
M  V30 8866 C 814.659 2.56145 2.34536 0
M  V30 8867 C 813.613 3.70275 2.14663 0
M  V30 8868 C 812.939 4.03612 3.50715 0
M  V30 8869 C 814.239 4.99067 1.54045 0
M  V30 8870 H 815.933 2.93046 0.613548 0
M  V30 8871 H 813.479 1.40973 0.293684 0
M  V30 8872 H 815.432 2.90741 3.05037 0
M  V30 8873 H 814.156 1.6915 2.79385 0
M  V30 8874 H 812.815 3.36013 1.46597 0
M  V30 8875 H 812.463 3.13698 3.93195 0
M  V30 8876 H 812.163 4.80482 3.38247 0
M  V30 8877 H 813.687 4.40735 4.22593 0
M  V30 8878 H 815.101 5.3168 2.14451 0
M  V30 8879 H 813.498 5.80484 1.52178 0
M  V30 8880 H 814.568 4.8226 0.505259 0
M  V30 8881 N 815.911 -0.310526 1.54511 0
M  V30 8882 C 817.16 -1.0445 1.72549 0
M  V30 8883 C 817.473 -1.88748 0.513172 0
M  V30 8884 O 818.679 -2.65338 0.575165 0
M  V30 8885 C 817.135 -1.90665 3.05246 0
M  V30 8886 C 816.743 -1.11415 4.33925 0
M  V30 8887 C 818.487 -2.63719 3.32645 0
M  V30 8888 C 816.394 -1.96852 5.57677 0
M  V30 8889 H 815.324 -0.393676 0.643067 0
M  V30 8890 H 817.975 -0.302003 1.80998 0
M  V30 8891 H 816.357 -2.68864 2.90737 0
M  V30 8892 H 817.531 -0.378956 4.59239 0
M  V30 8893 H 815.846 -0.499853 4.13389 0
M  V30 8894 H 818.443 -3.27974 4.223 0
M  V30 8895 H 818.786 -3.32047 2.51098 0
M  V30 8896 H 819.319 -1.92574 3.48081 0
M  V30 8897 H 816.058 -1.33009 6.41864 0
M  V30 8898 H 815.578 -2.68069 5.36562 0
M  V30 8899 H 817.257 -2.55127 5.94575 0
M  V30 8900 N 817.389 -1.46805 -0.573248 0
M  V30 8901 C 818.339 -1.54497 -1.67674 0
M  V30 8902 C 819.323 -0.405117 -1.55716 0
M  V30 8903 O 820.515 -0.654097 -1.64471 0
M  V30 8904 C 817.644 -1.54717 -3.0646 0
M  V30 8905 C 816.73 -2.7403 -3.2368 0
M  V30 8906 N 817.121 -3.98871 -3.11023 0
M  V30 8907 C 815.419 -2.70453 -3.54642 0
M  V30 8908 C 816.12 -4.78689 -3.30502 0
M  V30 8909 N 815.096 -4.10727 -3.56096 0
M  V30 8910 H 818.898 -2.48809 -1.56433 0
M  V30 8911 H 816.412 -1.42576 -0.777554 0
M  V30 8912 H 818.409 -1.58316 -3.8567 0
M  V30 8913 H 817.069 -0.614886 -3.18825 0
M  V30 8914 H 818.08 -4.29976 -2.88688 0
M  V30 8915 H 814.757 -1.86291 -3.73633 0
M  V30 8916 H 816.147 -5.87615 -3.2582 0
M  V30 8917 N 818.867 0.818669 -1.34668 0
M  V30 8918 C 819.777 1.9616 -1.2868 0
M  V30 8919 C 820.793 1.72918 -0.193742 0
M  V30 8920 O 821.969 1.96951 -0.420975 0
M  V30 8921 C 819.034 3.30534 -1.04633 0
M  V30 8922 C 818.095 3.66755 -2.23136 0
M  V30 8923 C 817.328 4.94717 -2.00227 0
M  V30 8924 O 817.551 5.62218 -0.96264 0
M  V30 8925 O 816.485 5.28915 -2.87286 0
M  V30 8926 H 820.311 2.04157 -2.24842 0
M  V30 8927 H 817.896 0.954691 -1.14917 0
M  V30 8928 H 819.778 4.11005 -0.930216 0
M  V30 8929 H 818.453 3.23495 -0.115139 0
M  V30 8930 H 817.36 2.8671 -2.40308 0
M  V30 8931 H 818.693 3.78484 -3.1466 0
M  V30 8932 N 820.346 1.18468 1.03938 0
M  V30 8933 C 821.595 0.975193 1.76558 0
M  V30 8934 C 821.908 -0.495978 1.89207 0
M  V30 8935 O 823.114 -0.824009 2.58694 0
M  V30 8936 C 821.57 1.69579 3.17444 0
M  V30 8937 C 821.178 3.20636 3.12884 0
M  V30 8938 C 822.922 1.56917 3.94433 0
M  V30 8939 C 820.829 3.8533 4.48636 0
M  V30 8940 H 819.759 0.361244 0.66183 0
M  V30 8941 H 822.41 1.41854 1.16403 0
M  V30 8942 H 820.792 1.18022 3.78004 0
M  V30 8943 H 821.966 3.79228 2.61768 0
M  V30 8944 H 820.281 3.33454 2.49394 0
M  V30 8945 H 822.878 2.02611 4.94826 0
M  V30 8946 H 823.221 0.521638 4.13019 0
M  V30 8947 H 823.754 2.05762 3.40451 0
M  V30 8948 H 820.493 4.90136 4.35255 0
M  V30 8949 H 820.013 3.31526 4.99851 0
M  V30 8950 H 821.692 3.88269 5.17549 0
M  V30 8951 N 821.824 -1.22873 0.986916 0
M  V30 8952 C 823.049 -1.96028 0.677341 0
M  V30 8953 C 823.474 -1.72487 -0.750319 0
M  V30 8954 O 822.832 -1.00036 -1.51203 0
M  V30 8955 C 822.88 -3.46983 0.981593 0
M  V30 8956 O 821.984 -4.12328 0.0770729 0
M  V30 8957 H 821.325 -0.613458 0.254096 0
M  V30 8958 H 823.855 -1.56132 1.32227 0
M  V30 8959 H 823.865 -3.9747 0.920969 0
M  V30 8960 H 822.54 -3.63442 2.02194 0
M  V30 8961 H 821.117 -3.72402 0.192666 0
M  V30 8962 N 823.302 -0.75937 -1.38099 0
M  V30 8963 C 824.25 -0.124954 -2.32264 0
M  V30 8964 C 825.244 0.698863 -1.54312 0
M  V30 8965 O 826.45 0.597312 -1.698 0
M  V30 8966 H 822.825 -0.0216142 -0.751689 0
M  V30 8967 H 824.796 -0.935115 -2.83369 0
M  V30 8968 C 823.545 0.749463 -3.39527 0
M  V30 8969 H 822.868 0.124932 -3.99605 0
M  V30 8970 H 824.308 1.16055 -4.07808 0
M  V30 8971 C 822.767 1.89464 -2.78577 0
M  V30 8972 O 823.297 2.98923 -2.68343 0
M  V30 8973 N 821.503 1.69145 -2.36301 0
M  V30 8974 H 821.05 0.801157 -2.44825 0
M  V30 8975 H 821.008 2.45936 -1.95864 0
M  V30 8976 N 824.78 1.49157 -0.508906 0
M  V30 8977 C 825.71 2.32109 0.254469 0
M  V30 8978 C 826.691 1.40754 0.955111 0
M  V30 8979 O 827.876 1.69658 0.944983 0
M  V30 8980 C 825.006 3.21458 1.3146 0
M  V30 8981 C 823.96 4.2167 0.733368 0
M  V30 8982 C 823.286 5.00009 1.8946 0
M  V30 8983 C 824.586 5.21544 -0.280875 0
M  V30 8984 H 826.28 2.9618 -0.43795 0
M  V30 8985 H 823.826 1.4243 -0.212062 0
M  V30 8986 H 825.779 3.78305 1.85643 0
M  V30 8987 H 824.503 2.55346 2.03632 0
M  V30 8988 H 823.162 3.65979 0.213231 0
M  V30 8989 H 822.81 4.30338 2.60419 0
M  V30 8990 H 822.51 5.67821 1.51173 0
M  V30 8991 H 824.034 5.59702 2.44061 0
M  V30 8992 H 825.448 5.73039 0.173095 0
M  V30 8993 H 823.845 5.97291 -0.580006 0
M  V30 8994 H 824.915 4.69969 -1.19404 0
M  V30 8995 N 826.258 0.243083 1.55714 0
M  V30 8996 C 827.205 -0.658078 2.21219 0
M  V30 8997 C 828.175 -1.1742 1.17481 0
M  V30 8998 O 829.36 -1.22937 1.45915 0
M  V30 8999 C 826.5 -1.85104 2.91257 0
M  V30 9000 C 825.613 -1.3718 4.09641 0
M  V30 9001 C 824.748 -2.52403 4.67404 0
M  V30 9002 C 823.787 -2.01321 5.78045 0
M  V30 9003 N 822.924 -3.09896 6.30007 0
M  V30 9004 H 827.764 -0.0927854 2.97856 0
M  V30 9005 H 825.301 -0.0340375 1.47061 0
M  V30 9006 H 827.259 -2.55179 3.3006 0
M  V30 9007 H 825.889 -2.38887 2.17101 0
M  V30 9008 H 824.941 -0.565232 3.76177 0
M  V30 9009 H 826.253 -0.957409 4.89525 0
M  V30 9010 H 825.407 -3.30525 5.08761 0
M  V30 9011 H 824.146 -2.97142 3.86728 0
M  V30 9012 H 823.151 -1.21667 5.36169 0
M  V30 9013 H 824.376 -1.57556 6.6057 0
M  V30 9014 H 822.322 -3.54077 5.52237 0
M  V30 9015 H 822.239 -2.72776 7.05074 0
M  V30 9016 H 823.507 -3.8809 6.76023 0
M  V30 9017 N 827.736 -1.57571 -0.0300757 0
M  V30 9018 C 828.684 -2.0758 -1.04944 0
M  V30 9019 C 829.678 -0.989384 -1.37505 0
M  V30 9020 O 830.884 -1.17427 -1.36422 0
M  V30 9021 H 827.259 -0.662419 -0.355956 0
M  V30 9022 H 829.23 -2.92268 -0.601848 0
M  V30 9023 C 827.979 -2.5698 -2.34215 0
M  V30 9024 H 827.302 -3.40193 -2.10021 0
M  V30 9025 H 828.742 -2.95682 -3.03888 0
M  V30 9026 C 827.201 -1.47059 -3.03109 0
M  V30 9027 O 827.731 -0.83625 -3.92899 0
M  V30 9028 N 825.937 -1.20538 -2.64422 0
M  V30 9029 H 825.484 -1.72305 -1.9149 0
M  V30 9030 H 825.442 -0.472045 -3.10836 0
M  V30 9031 N 829.214 0.302327 -1.54673 0
M  V30 9032 C 830.144 1.37759 -1.88533 0
M  V30 9033 C 831.125 1.52961 -0.744113 0
M  V30 9034 O 832.31 1.6649 -0.999731 0
M  V30 9035 C 829.44 2.74201 -2.13146 0
M  V30 9036 C 828.394 2.73765 -3.28993 0
M  V30 9037 C 827.72 4.13483 -3.39022 0
M  V30 9038 C 829.02 2.35624 -4.66132 0
M  V30 9039 H 830.714 1.0967 -2.78591 0
M  V30 9040 H 828.26 0.52613 -1.34044 0
M  V30 9041 H 830.213 3.49508 -2.35419 0
M  V30 9042 H 828.937 3.03812 -1.19858 0
M  V30 9043 H 827.596 2.00914 -3.06642 0
M  V30 9044 H 827.244 4.40269 -2.43253 0
M  V30 9045 H 826.944 4.14093 -4.16894 0
M  V30 9046 H 828.468 4.90572 -3.63553 0
M  V30 9047 H 829.882 3.00647 -4.88143 0
M  V30 9048 H 828.279 2.47449 -5.46707 0
M  V30 9049 H 829.349 1.30753 -4.66939 0
M  V30 9050 N 830.692 1.47107 0.565454 0
M  V30 9051 C 831.938 1.53535 1.32495 0
M  V30 9052 C 832.271 0.193537 1.93233 0
M  V30 9053 O 831.546 -0.796956 1.77423 0
M  V30 9054 C 831.829 2.64712 2.4413 0
M  V30 9055 C 831.682 4.08482 1.88314 0
M  V30 9056 C 833.001 2.71853 3.46098 0
M  V30 9057 H 830.12 0.558926 0.480386 0
M  V30 9058 H 832.762 1.79125 0.633575 0
M  V30 9059 H 830.912 2.43023 3.03104 0
M  V30 9060 H 832.584 4.4151 1.33665 0
M  V30 9061 H 830.827 4.17148 1.19037 0
M  V30 9062 H 831.498 4.82032 2.68978 0
M  V30 9063 H 833.974 2.91397 2.97031 0
M  V30 9064 H 832.85 3.51433 4.21646 0
M  V30 9065 H 833.111 1.78584 4.04426 0
M  V30 9066 N 832.17 -0.811516 1.35101 0
M  V30 9067 C 833.117 -1.92308 1.27617 0
M  V30 9068 C 834.087 -1.6543 0.149091 0
M  V30 9069 O 835.272 -1.8789 0.331974 0
M  V30 9070 C 832.412 -3.28768 1.04908 0
M  V30 9071 C 831.525 -3.67865 2.26493 0
M  V30 9072 C 830.66 -4.9333 1.96974 0
M  V30 9073 C 829.699 -5.25041 3.1464 0
M  V30 9074 N 828.836 -6.41685 2.84929 0
M  V30 9075 H 833.676 -1.98041 2.22674 0
M  V30 9076 H 831.213 -0.968755 1.10696 0
M  V30 9077 H 833.171 -4.07426 0.897749 0
M  V30 9078 H 831.801 -3.22517 0.135151 0
M  V30 9079 H 830.853 -2.84507 2.52507 0
M  V30 9080 H 832.165 -3.87263 3.14371 0
M  V30 9081 H 831.319 -5.79803 1.78643 0
M  V30 9082 H 830.058 -4.75958 1.06374 0
M  V30 9083 H 829.063 -4.3706 3.33554 0
M  V30 9084 H 830.288 -5.44346 4.06035 0
M  V30 9085 H 828.234 -6.25747 1.96918 0
M  V30 9086 H 828.151 -6.6131 3.66341 0
M  V30 9087 H 829.419 -7.31198 2.70128 0
M  V30 9088 N 833.648 -1.19017 -1.03309 0
M  V30 9089 C 834.598 -0.89194 -2.0983 0
M  V30 9090 C 835.582 0.14151 -1.60277 0
M  V30 9091 O 836.774 -0.0635946 -1.76886 0
M  V30 9092 C 833.903 -0.427793 -3.40624 0
M  V30 9093 C 832.989 -1.49374 -3.96923 0
M  V30 9094 N 833.38 -2.71213 -4.26939 0
M  V30 9095 C 831.678 -1.35605 -4.24885 0
M  V30 9096 C 832.379 -3.39849 -4.72099 0
M  V30 9097 N 831.355 -2.67239 -4.73375 0
M  V30 9098 H 835.157 -1.81801 -2.30923 0
M  V30 9099 H 832.671 -1.08171 -1.21131 0
M  V30 9100 H 834.668 -0.195608 -4.16441 0
M  V30 9101 H 833.328 0.491848 -3.20953 0
M  V30 9102 H 834.339 -3.08014 -4.16351 0
M  V30 9103 H 831.016 -0.499537 -4.14501 0
M  V30 9104 H 832.406 -4.44018 -5.04279 0
M  V30 9105 N 835.127 1.22348 -0.993418 0
M  V30 9106 C 836.09 2.22522 -0.549251 0
M  V30 9107 C 837.09 1.56529 0.368164 0
M  V30 9108 O 838.28 1.73463 0.16005 0
M  V30 9109 C 835.412 3.40307 0.201037 0
M  V30 9110 H 836.605 2.63332 -1.43515 0
M  V30 9111 H 834.158 1.35407 -0.78068 0
M  V30 9112 H 834.893 3.0497 1.10289 0
M  V30 9113 H 834.678 3.8942 -0.457685 0
M  V30 9114 H 836.168 4.14597 0.499946 0
M  V30 9115 N 836.605 0.766683 1.37694 0
M  V30 9116 C 837.515 0.150158 2.34119 0
M  V30 9117 C 838.531 -0.685513 1.59927 0
M  V30 9118 O 839.707 -0.606616 1.92047 0
M  V30 9119 C 836.772 -0.722562 3.39087 0
M  V30 9120 C 835.833 0.128983 4.29106 0
M  V30 9121 C 835.066 -0.702178 5.29061 0
M  V30 9122 O 835.289 -1.93954 5.36412 0
M  V30 9123 O 834.223 -0.114056 6.01792 0
M  V30 9124 H 838.049 0.946829 2.88563 0
M  V30 9125 H 835.634 0.527765 1.39768 0
M  V30 9126 H 837.516 -1.22095 4.03325 0
M  V30 9127 H 836.191 -1.49751 2.86978 0
M  V30 9128 H 835.098 0.673612 3.67985 0
M  V30 9129 H 836.431 0.866892 4.84506 0
M  V30 9130 N 838.083 -1.48885 0.516809 0
M  V30 9131 C 839.329 -2.02788 -0.0220928 0
M  V30 9132 C 839.662 -1.39433 -1.35175 0
M  V30 9133 O 838.937 -0.535459 -1.86984 0
M  V30 9134 C 839.22 -3.59753 -0.158012 0
M  V30 9135 C 839.073 -4.33611 1.19588 0
M  V30 9136 C 840.392 -4.30984 -0.891133 0
M  V30 9137 H 837.511 -0.736971 -0.00655488 0
M  V30 9138 H 840.153 -1.77746 0.671287 0
M  V30 9139 H 838.303 -3.8122 -0.748568 0
M  V30 9140 H 839.975 -4.23598 1.82653 0
M  V30 9141 H 838.218 -3.95547 1.78116 0
M  V30 9142 H 838.889 -5.41846 1.05391 0
M  V30 9143 H 841.365 -4.14267 -0.39012 0
M  V30 9144 H 840.241 -5.40527 -0.955107 0
M  V30 9145 H 840.502 -3.97336 -1.93847 0
M  V30 9146 N 839.561 -0.251338 -1.55583 0
M  V30 9147 C 840.791 0.375642 -2.03156 0
M  V30 9148 C 841.199 1.51761 -1.12983 0
M  V30 9149 O 840.542 1.83184 -0.13757 0
M  V30 9150 C 840.604 0.941001 -3.46966 0
M  V30 9151 C 840.268 -0.0692886 -4.56947 0
M  V30 9152 C 841.265 -0.88041 -5.12391 0
M  V30 9153 C 838.95 -0.196661 -5.01915 0
M  V30 9154 C 840.944 -1.80532 -6.11299 0
M  V30 9155 C 838.631 -1.12507 -6.00654 0
M  V30 9156 C 839.629 -1.92792 -6.55225 0
M  V30 9157 O 839.317 -2.84067 -7.52038 0
M  V30 9158 H 839.049 0.0928836 -0.669588 0
M  V30 9159 H 841.603 -0.374115 -2.01964 0
M  V30 9160 H 839.833 1.7404 -3.45322 0
M  V30 9161 H 841.522 1.47853 -3.78014 0
M  V30 9162 H 842.288 -0.792615 -4.78479 0
M  V30 9163 H 838.167 0.418187 -4.59099 0
M  V30 9164 H 841.711 -2.43239 -6.5382 0
M  V30 9165 H 837.608 -1.21377 -6.33986 0
M  V30 9166 H 838.376 -2.78479 -7.6967 0
M  V30 9167 N 841.039 1.57585 0.0217189 0
M  V30 9168 C 841.987 2.08134 1.03842 0
M  V30 9169 C 842.981 0.996662 1.36978 0
M  V30 9170 O 844.187 1.18149 1.35797 0
M  V30 9171 H 840.562 0.664298 0.352438 0
M  V30 9172 H 842.533 2.92583 0.58634 0
M  V30 9173 C 841.282 2.58218 2.32849 0
M  V30 9174 H 840.605 3.41302 2.08214 0
M  V30 9175 H 842.045 2.97289 3.02316 0
M  V30 9176 C 840.504 1.48664 3.02325 0
M  V30 9177 O 841.034 0.857075 3.9245 0
M  V30 9178 N 839.24 1.21938 2.63779 0
M  V30 9179 H 838.787 1.73319 1.90574 0
M  V30 9180 H 838.745 0.488523 3.10581 0
M  V30 9181 N 842.517 -0.29412 1.54831 0
M  V30 9182 C 843.449 -1.38476 1.82639 0
M  V30 9183 C 844.462 -1.46517 0.709694 0
M  V30 9184 O 845.651 -1.48712 0.987269 0
M  V30 9185 C 842.751 -2.76791 1.95551 0
M  V30 9186 C 841.924 -2.91599 3.26019 0
M  V30 9187 C 840.983 -4.10456 3.29261 0
M  V30 9188 O 840.009 -4.02214 4.02756 0
M  V30 9189 N 841.211 -5.21422 2.55145 0
M  V30 9190 H 843.976 -1.14974 2.76769 0
M  V30 9191 H 841.537 -0.484206 1.5449 0
M  V30 9192 H 843.529 -3.5456 1.95113 0
M  V30 9193 H 842.099 -2.93209 1.08384 0
M  V30 9194 H 841.319 -2.00886 3.39173 0
M  V30 9195 H 842.607 -2.98409 4.12104 0
M  V30 9196 H 842.005 -5.31 1.95078 0
M  V30 9197 H 840.562 -5.97501 2.60454 0
M  V30 9198 N 843.995 -1.47404 -0.557645 0
M  V30 9199 C 845.272 -1.44488 -1.31843 0
M  V30 9200 C 845.652 -0.1416 -2.10625 0
M  V30 9201 O 845 0.876908 -2.11004 0
M  V30 9202 C 845.21 -2.69016 -2.22331 0
M  V30 9203 C 846.558 -3.16212 -2.83364 0
M  V30 9204 O 847.582 -2.69741 -2.32634 0
M  V30 9205 O 846.441 -3.96999 -3.75571 0
M  V30 9206 H 843.535 -0.57578 -0.593639 0
M  V30 9207 H 846.081 -1.59605 -0.576584 0
M  V30 9208 H 844.853 -3.55406 -1.63715 0
M  V30 9209 H 844.476 -2.56484 -3.03812 0
M  V30 9210 N 845.473 0.80434 -1.35529 0
M  V30 9211 C 846.403 1.93086 -1.31301 0
M  V30 9212 C 847.384 1.69068 -0.187044 0
M  V30 9213 O 848.569 1.90399 -0.382359 0
M  V30 9214 C 845.699 3.29867 -1.0865 0
M  V30 9215 C 844.653 3.68373 -2.17911 0
M  V30 9216 C 843.979 5.0334 -1.80423 0
M  V30 9217 C 845.279 3.78516 -3.59893 0
M  V30 9218 H 846.973 1.96882 -2.25561 0
M  V30 9219 H 844.519 0.945841 -1.08581 0
M  V30 9220 H 846.472 4.08281 -1.04331 0
M  V30 9221 H 845.196 3.2642 -0.108359 0
M  V30 9222 H 843.855 2.92247 -2.21331 0
M  V30 9223 H 843.503 4.96399 -0.812213 0
M  V30 9224 H 843.203 5.30074 -2.53565 0
M  V30 9225 H 844.727 5.84191 -1.77633 0
M  V30 9226 H 846.141 4.47155 -3.58783 0
M  V30 9227 H 844.538 4.16721 -4.31814 0
M  V30 9228 H 845.608 2.8001 -3.95882 0
M  V30 9229 N 846.951 1.19563 1.02676 0
M  V30 9230 C 847.861 0.950691 2.14474 0
M  V30 9231 C 848.877 -0.0900219 1.73767 0
M  V30 9232 O 850.053 0.0951063 2.01175 0
M  V30 9233 C 847.118 0.494917 3.43149 0
M  V30 9234 C 846.179 1.60527 3.98158 0
M  V30 9235 C 845.412 1.17115 5.20692 0
M  V30 9236 O 845.635 0.0355937 5.70389 0
M  V30 9237 O 844.569 1.97454 5.68591 0
M  V30 9238 H 848.395 1.88651 2.38001 0
M  V30 9239 H 845.98 0.978635 1.12885 0
M  V30 9240 H 847.862 0.249492 4.20661 0
M  V30 9241 H 846.537 -0.412434 3.21062 0
M  V30 9242 H 845.444 1.90487 3.21971 0
M  V30 9243 H 846.777 2.48925 4.24614 0
M  V30 9244 N 848.429 -1.21819 0.999893 0
M  V30 9245 C 849.377 -2.26027 0.549047 0
M  V30 9246 C 850.371 -1.64516 -0.403826 0
M  V30 9247 O 851.577 -1.77878 -0.275578 0
M  V30 9248 H 847.952 -0.734958 0.159185 0
M  V30 9249 H 849.923 -2.61398 1.43923 0
M  V30 9250 C 848.672 -3.47514 -0.11369 0
M  V30 9251 H 847.995 -3.95112 0.610482 0
M  V30 9252 H 849.435 -4.22179 -0.3925 0
M  V30 9253 C 847.894 -3.08614 -1.35126 0
M  V30 9254 O 848.424 -3.1864 -2.44605 0
M  V30 9255 N 846.63 -2.63327 -1.22911 0
M  V30 9256 H 846.177 -2.55369 -0.338288 0
M  V30 9257 H 846.135 -2.37668 -2.05818 0
M  V30 9258 N 849.908 -0.773975 -1.37286 0
M  V30 9259 C 850.818 -0.162571 -2.34036 0
M  V30 9260 C 851.834 0.677022 -1.60289 0
M  V30 9261 O 853.01 0.596423 -1.92366 0
M  V30 9262 C 850.075 0.70457 -3.39465 0
M  V30 9263 C 849.136 -0.151738 -4.29032 0
M  V30 9264 C 848.369 0.674111 -5.29426 0
M  V30 9265 O 848.592 1.91107 -5.37433 0
M  V30 9266 O 847.526 0.0821398 -6.01844 0
M  V30 9267 H 851.352 -0.962119 -2.88057 0
M  V30 9268 H 848.937 -0.53517 -1.39486 0
M  V30 9269 H 850.819 1.19954 -4.03967 0
M  V30 9270 H 849.494 1.48227 -2.87768 0
M  V30 9271 H 848.401 -0.693118 -3.67623 0
M  V30 9272 H 849.734 -0.892575 -4.84039 0
M  V30 9273 N 851.386 1.48609 -0.524698 0
M  V30 9274 C 852.316 2.32366 0.229837 0
M  V30 9275 C 853.297 1.41759 0.940129 0
M  V30 9276 O 854.482 1.7065 0.926936 0
M  V30 9277 C 851.612 3.22835 1.28043 0
M  V30 9278 C 850.566 4.22424 0.688603 0
M  V30 9279 C 849.892 5.0199 1.84146 0
M  V30 9280 C 851.192 5.21217 -0.336176 0
M  V30 9281 H 852.886 2.95698 -0.469339 0
M  V30 9282 H 850.432 1.42197 -0.227156 0
M  V30 9283 H 852.385 3.80253 1.8162 0
M  V30 9284 H 851.109 2.57492 2.00912 0
M  V30 9285 H 849.768 3.66185 0.174402 0
M  V30 9286 H 849.416 4.33076 2.5584 0
M  V30 9287 H 849.116 5.69392 1.45142 0
M  V30 9288 H 850.64 5.62259 2.38111 0
M  V30 9289 H 852.054 5.7319 0.112307 0
M  V30 9290 H 850.451 5.96642 -0.643324 0
M  V30 9291 H 851.521 4.68676 -1.24381 0
M  V30 9292 N 852.864 0.259585 1.55447 0
M  V30 9293 C 854.089 -0.368317 2.04103 0
M  V30 9294 C 854.514 -1.49827 1.13725 0
M  V30 9295 O 853.872 -1.80814 0.132705 0
M  V30 9296 C 853.92 -0.841506 3.50644 0
M  V30 9297 O 853.024 -1.95008 3.63381 0
M  V30 9298 H 852.365 -0.0785227 0.659341 0
M  V30 9299 H 854.895 0.389349 2.00861 0
M  V30 9300 H 854.905 -1.14138 3.9171 0
M  V30 9301 H 853.58 -0.0147001 4.15897 0
M  V30 9302 H 852.157 -1.65393 3.34215 0
M  V30 9303 N 854.342 -1.57594 -0.0133615 0
M  V30 9304 C 855.567 -1.94649 -0.715996 0
M  V30 9305 C 855.992 -0.860786 -1.67249 0
M  V30 9306 O 855.35 0.182228 -1.80382 0
M  V30 9307 C 855.398 -3.30789 -1.43566 0
M  V30 9308 O 854.502 -3.24148 -2.54955 0
M  V30 9309 H 853.843 -0.635801 -0.191449 0
M  V30 9310 H 856.373 -2.04569 0.0358478 0
M  V30 9311 H 856.383 -3.66045 -1.80208 0
M  V30 9312 H 855.058 -4.09367 -0.734263 0
M  V30 9313 H 853.635 -3.00548 -2.20739 0
M  V30 9314 N 855.82 0.285905 -1.54985 0
M  V30 9315 C 856.767 1.35306 -1.86978 0
M  V30 9316 C 857.737 1.49682 -0.720046 0
M  V30 9317 O 858.922 1.64297 -0.970107 0
M  V30 9318 C 856.062 2.71059 -2.13591 0
M  V30 9319 C 855.175 2.6501 -3.41165 0
M  V30 9320 C 854.31 3.92856 -3.57544 0
M  V30 9321 C 853.349 3.81266 -4.78855 0
M  V30 9322 N 852.486 5.00919 -4.9196 0
M  V30 9323 H 857.326 1.07323 -2.78003 0
M  V30 9324 H 854.863 0.518776 -1.37649 0
M  V30 9325 H 856.821 3.50026 -2.27019 0
M  V30 9326 H 855.451 2.97271 -1.25816 0
M  V30 9327 H 854.503 1.77824 -3.36278 0
M  V30 9328 H 855.815 2.52342 -4.30262 0
M  V30 9329 H 854.969 4.80263 -3.70718 0
M  V30 9330 H 853.708 4.08377 -2.66608 0
M  V30 9331 H 852.713 2.92243 -4.65698 0
M  V30 9332 H 853.938 3.67277 -5.71213 0
M  V30 9333 H 851.884 5.16875 -4.03951 0
M  V30 9334 H 851.801 4.90732 -5.75081 0
M  V30 9335 H 853.069 5.89935 -5.09507 0
M  V30 9336 N 857.298 1.47698 0.54982 0
M  V30 9337 C 858.544 1.54931 1.30859 0
M  V30 9338 C 858.877 0.214021 1.93017 0
M  V30 9339 O 858.152 -0.778093 1.78258 0
M  V30 9340 C 858.435 2.67286 2.41309 0
M  V30 9341 C 858.288 4.10457 1.83971 0
M  V30 9342 C 859.607 2.75509 3.43195 0
M  V30 9343 H 856.726 0.56399 0.474431 0
M  V30 9344 H 859.368 1.79787 0.614541 0
M  V30 9345 H 857.518 2.46224 3.0051 0
M  V30 9346 H 859.19 4.42903 1.28974 0
M  V30 9347 H 857.433 4.18387 1.14606 0
M  V30 9348 H 858.104 4.84857 2.63851 0
M  V30 9349 H 860.58 2.94531 2.93923 0
M  V30 9350 H 859.456 3.55886 4.17895 0
M  V30 9351 H 859.717 1.82863 4.02509 0
M  V30 9352 N 858.776 -0.797141 1.35954 0
M  V30 9353 C 859.686 -1.94088 1.31784 0
M  V30 9354 C 860.702 -1.72588 0.221227 0
M  V30 9355 O 861.878 -1.96256 0.452255 0
M  V30 9356 C 858.943 -3.28828 1.09878 0
M  V30 9357 C 858.004 -3.63158 2.28942 0
M  V30 9358 C 857.237 -4.91469 2.08072 0
M  V30 9359 O 857.46 -5.60616 1.05196 0
M  V30 9360 O 856.394 -5.24277 2.95664 0
M  V30 9361 H 860.22 -2.00554 2.28061 0
M  V30 9362 H 857.805 -0.936288 1.16422 0
M  V30 9363 H 859.687 -4.09473 0.995485 0
M  V30 9364 H 858.362 -3.23271 0.16659 0
M  V30 9365 H 857.269 -2.82851 2.44839 0
M  V30 9366 H 858.602 -3.7343 3.20641 0
M  V30 9367 N 860.254 -1.20106 -1.0204 0
M  V30 9368 C 861.184 -0.970301 -2.12385 0
M  V30 9369 C 862.165 0.099378 -1.69809 0
M  V30 9370 O 863.35 -0.057365 -1.94115 0
M  V30 9371 C 860.48 -0.517431 -3.43424 0
M  V30 9372 C 859.434 -1.52992 -3.99722 0
M  V30 9373 C 858.76 -0.933817 -5.26483 0
M  V30 9374 C 860.06 -2.91257 -4.33551 0
M  V30 9375 H 861.754 -1.89316 -2.31948 0
M  V30 9376 H 859.3 -0.911655 -1.11467 0
M  V30 9377 H 861.253 -0.343243 -4.2 0
M  V30 9378 H 859.977 0.441049 -3.23608 0
M  V30 9379 H 858.636 -1.6914 -3.2525 0
M  V30 9380 H 858.284 0.0324763 -5.0299 0
M  V30 9381 H 857.984 -1.60999 -5.65113 0
M  V30 9382 H 859.508 -0.770614 -6.05718 0
M  V30 9383 H 860.922 -2.78642 -5.0103 0
M  V30 9384 H 859.319 -3.55745 -4.83286 0
M  V30 9385 H 860.389 -3.43269 -3.42483 0
M  V30 9386 N 861.732 1.21287 -1.00634 0
M  V30 9387 C 862.662 2.25973 -0.588089 0
M  V30 9388 C 863.643 1.65527 0.391764 0
M  V30 9389 O 864.828 1.92179 0.279452 0
M  V30 9390 C 861.958 3.47197 0.0847336 0
M  V30 9391 C 860.912 4.20168 -0.815039 0
M  V30 9392 C 860.238 5.34699 -0.00855393 0
M  V30 9393 C 861.538 4.77416 -2.11828 0
M  V30 9394 H 863.232 2.61212 -1.46317 0
M  V30 9395 H 860.778 1.25563 -0.704985 0
M  V30 9396 H 862.731 4.19602 0.388821 0
M  V30 9397 H 861.455 3.11092 0.994456 0
M  V30 9398 H 860.114 3.49614 -1.10297 0
M  V30 9399 H 859.762 4.94837 0.902499 0
M  V30 9400 H 859.462 5.84449 -0.607664 0
M  V30 9401 H 860.986 6.09914 0.289317 0
M  V30 9402 H 862.4 5.41694 -1.87725 0
M  V30 9403 H 860.797 5.37561 -2.66736 0
M  V30 9404 H 861.867 3.96724 -2.78816 0
M  V30 9405 N 863.21 0.781244 1.36873 0
M  V30 9406 C 864.626 0.461968 1.52768 0
M  V30 9407 C 864.826 -1.02099 1.73719 0
M  V30 9408 O 863.882 -1.80665 1.76399 0
M  V30 9409 C 865.195 1.2853 2.71846 0
M  V30 9410 C 866.743 1.27817 2.85713 0
M  V30 9411 C 867.218 2.08506 4.07786 0
M  V30 9412 N 868.709 2.05909 4.14917 0
M  V30 9413 C 869.444 2.65118 5.08429 0
M  V30 9414 N 868.94 3.33152 6.07438 0
M  V30 9415 N 870.733 2.54896 5.00983 0
M  V30 9416 H 862.884 1.74198 1.21527 0
M  V30 9417 H 865.147 0.740027 0.592506 0
M  V30 9418 H 864.853 2.3366 2.62861 0
M  V30 9419 H 864.727 0.920981 3.65784 0
M  V30 9420 H 867.114 0.234817 2.94164 0
M  V30 9421 H 867.195 1.68219 1.92707 0
M  V30 9422 H 866.839 3.12867 4.00096 0
M  V30 9423 H 866.769 1.65479 4.99924 0
M  V30 9424 H 869.26 1.56386 3.44023 0
M  V30 9425 H 869.573 3.75681 6.75339 0
M  V30 9426 H 867.918 3.37253 6.07689 0
M  V30 9427 H 871.109 2.01352 4.22581 0
M  V30 9428 H 871.282 3.01332 5.73675 0
M  V30 9429 N 864.689 -1.48329 0.532571 0
M  V30 9430 C 865.599 -2.33445 -0.232546 0
M  V30 9431 C 866.615 -1.46651 -0.93645 0
M  V30 9432 O 867.791 -1.79627 -0.910834 0
M  V30 9433 C 864.856 -3.22824 -1.26434 0
M  V30 9434 C 863.917 -4.25492 -0.570511 0
M  V30 9435 C 863.15 -5.10601 -1.55315 0
M  V30 9436 O 863.373 -4.97733 -2.78599 0
M  V30 9437 O 862.307 -5.91927 -1.09112 0
M  V30 9438 H 866.133 -3.00119 0.464988 0
M  V30 9439 H 863.718 -1.46489 0.293462 0
M  V30 9440 H 865.6 -3.78103 -1.86055 0
M  V30 9441 H 864.275 -2.58807 -1.94424 0
M  V30 9442 H 863.182 -3.74041 0.0662587 0
M  V30 9443 H 864.515 -4.92154 0.0674904 0
M  V30 9444 N 866.167 -0.267825 -1.55308 0
M  V30 9445 C 867.114 0.6228 -2.22238 0
M  V30 9446 C 868.084 1.15536 -1.19334 0
M  V30 9447 O 869.269 1.206 -1.47852 0
M  V30 9448 C 866.409 1.80447 -2.94164 0
M  V30 9449 C 865.522 1.30646 -4.11771 0
M  V30 9450 C 864.657 2.44935 -4.7136 0
M  V30 9451 C 863.696 1.92099 -5.81175 0
M  V30 9452 N 862.833 2.99834 -6.34857 0
M  V30 9453 H 867.673 0.0453874 -2.97965 0
M  V30 9454 H 865.21 0.0106371 -1.47096 0
M  V30 9455 H 867.168 2.49896 -3.34078 0
M  V30 9456 H 865.798 2.35403 -2.20874 0
M  V30 9457 H 864.85 0.505314 -3.77029 0
M  V30 9458 H 866.162 0.879409 -4.90987 0
M  V30 9459 H 865.316 3.2239 -5.13955 0
M  V30 9460 H 864.055 2.90951 -3.91406 0
M  V30 9461 H 863.06 1.13122 -5.38037 0
M  V30 9462 H 864.285 1.47027 -6.62993 0
M  V30 9463 H 862.231 3.45246 -5.578 0
M  V30 9464 H 862.148 2.61524 -7.09324 0
M  V30 9465 H 863.416 3.77286 -6.82111 0
M  V30 9466 N 867.645 1.57599 0.00500368 0
M  V30 9467 C 868.555 2.11532 1.01446 0
M  V30 9468 C 869.571 1.05941 1.3803 0
M  V30 9469 O 870.747 1.37815 1.46864 0
M  V30 9470 C 867.812 2.60382 2.28915 0
M  V30 9471 C 866.873 3.80554 1.98689 0
M  V30 9472 C 866.106 4.27064 3.20081 0
M  V30 9473 O 866.329 3.72939 4.31593 0
M  V30 9474 O 865.263 5.1927 3.04371 0
M  V30 9475 H 869.089 2.97993 0.586011 0
M  V30 9476 H 866.674 1.47718 0.223519 0
M  V30 9477 H 868.556 2.92024 3.03809 0
M  V30 9478 H 867.231 1.77022 2.71007 0
M  V30 9479 H 866.138 3.53893 1.21286 0
M  V30 9480 H 867.471 4.64972 1.61437 0
M  V30 9481 N 869.123 -0.277682 1.55134 0
M  V30 9482 C 870.4 -1.0309 1.66228 0
M  V30 9483 C 870.78 -2.0445 0.525701 0
M  V30 9484 O 870.128 -2.23512 -0.474816 0
M  V30 9485 C 870.338 -1.6919 3.05247 0
M  V30 9486 C 871.686 -2.20526 3.62841 0
M  V30 9487 O 872.71 -1.79185 3.07849 0
M  V30 9488 O 871.569 -2.96342 4.59177 0
M  V30 9489 H 868.663 -0.4779 0.674937 0
M  V30 9490 H 871.209 -0.273912 1.67475 0
M  V30 9491 H 869.981 -0.957163 3.79413 0
M  V30 9492 H 869.604 -2.51587 3.07879 0
M  V30 9493 N 870.601 -1.47988 -0.541979 0
M  V30 9494 C 871.533 -1.5769 -1.66332 0
M  V30 9495 C 872.546 -0.461994 -1.56107 0
M  V30 9496 O 873.735 -0.732306 -1.62787 0
M  V30 9497 C 870.835 -1.47939 -3.04905 0
M  V30 9498 C 870.008 -2.74263 -3.40733 0
M  V30 9499 C 869.067 -2.58133 -4.58534 0
M  V30 9500 O 868.093 -3.31991 -4.62354 0
M  V30 9501 N 869.295 -1.6696 -5.55972 0
M  V30 9502 H 872.06 -2.54389 -1.5845 0
M  V30 9503 H 869.621 -1.4456 -0.728979 0
M  V30 9504 H 871.613 -1.34861 -3.81569 0
M  V30 9505 H 870.183 -0.592626 -3.06931 0
M  V30 9506 H 869.403 -3.01992 -2.53366 0
M  V30 9507 H 870.691 -3.58094 -3.6145 0
M  V30 9508 H 870.089 -1.06134 -5.55655 0
M  V30 9509 H 868.646 -1.59826 -6.31901 0
M  V30 9510 N 872.079 0.78992 -1.36375 0
M  V30 9511 C 873.328 1.54296 -1.29906 0
M  V30 9512 C 873.641 1.95234 0.119651 0
M  V30 9513 O 874.847 2.69762 0.306708 0
M  V30 9514 C 873.303 2.78533 -2.27919 0
M  V30 9515 C 872.911 2.44767 -3.75224 0
M  V30 9516 C 874.655 3.56516 -2.30427 0
M  V30 9517 C 872.562 3.65397 -4.65015 0
M  V30 9518 H 871.492 0.579214 -0.482729 0
M  V30 9519 H 874.143 0.866845 -1.61735 0
M  V30 9520 H 872.525 3.47941 -1.89084 0
M  V30 9521 H 873.699 1.83259 -4.22792 0
M  V30 9522 H 872.014 1.79996 -3.75487 0
M  V30 9523 H 874.611 4.46143 -2.94722 0
M  V30 9524 H 874.954 3.95063 -1.31266 0
M  V30 9525 H 875.487 2.94087 -2.67876 0
M  V30 9526 H 872.226 3.31946 -5.65236 0
M  V30 9527 H 871.746 4.26072 -4.22164 0
M  V30 9528 H 873.425 4.32431 -4.81261 0
M  V30 9529 N 873.557 1.20646 1.01402 0
M  V30 9530 C 874.504 0.957618 2.09996 0
M  V30 9531 C 875.474 -0.113115 1.65714 0
M  V30 9532 O 876.659 0.032142 1.90773 0
M  V30 9533 C 873.799 0.5186 3.41181 0
M  V30 9534 C 872.912 1.65777 3.98926 0
M  V30 9535 C 872.047 1.16881 5.18182 0
M  V30 9536 C 871.086 2.2809 5.68015 0
M  V30 9537 N 870.223 1.80392 6.7853 0
M  V30 9538 H 875.063 1.88732 2.30617 0
M  V30 9539 H 872.6 0.940703 1.13089 0
M  V30 9540 H 874.558 0.245367 4.16478 0
M  V30 9541 H 873.188 -0.3741 3.20625 0
M  V30 9542 H 872.24 2.04586 3.207 0
M  V30 9543 H 873.552 2.49507 4.31912 0
M  V30 9544 H 872.706 0.851694 6.00692 0
M  V30 9545 H 871.445 0.301434 4.86768 0
M  V30 9546 H 870.45 2.60614 4.84108 0
M  V30 9547 H 871.675 3.15308 6.01463 0
M  V30 9548 H 869.621 0.959856 6.4894 0
M  V30 9549 H 869.538 2.57701 7.10722 0
M  V30 9550 H 870.806 1.51688 7.64598 0
M  V30 9551 N 875.035 -1.20752 1.01276 0
M  V30 9552 C 875.982 -2.234 0.579732 0
M  V30 9553 C 876.952 -1.61256 -0.398206 0
M  V30 9554 O 878.137 -1.8845 -0.29851 0
M  V30 9555 C 875.277 -3.45008 -0.0797006 0
M  V30 9556 C 874.39 -4.21597 0.942343 0
M  V30 9557 C 873.525 -5.30591 0.254364 0
M  V30 9558 C 872.564 -5.98919 1.26343 0
M  V30 9559 N 871.701 -6.99511 0.602384 0
M  V30 9560 H 876.541 -2.59801 1.45971 0
M  V30 9561 H 874.078 -1.27663 0.730787 0
M  V30 9562 H 876.036 -4.1444 -0.479125 0
M  V30 9563 H 874.666 -3.09312 -0.923354 0
M  V30 9564 H 873.718 -3.51268 1.45996 0
M  V30 9565 H 875.03 -4.68576 1.70992 0
M  V30 9566 H 874.184 -6.06368 -0.200763 0
M  V30 9567 H 872.923 -4.84639 -0.545553 0
M  V30 9568 H 871.928 -5.21906 1.72898 0
M  V30 9569 H 873.153 -6.46957 2.06456 0
M  V30 9570 H 871.099 -6.55759 -0.177734 0
M  V30 9571 H 871.016 -7.44597 1.30809 0
M  V30 9572 H 872.284 -7.79313 0.17072 0
M  V30 9573 N 876.513 -0.788492 -1.36457 0
M  V30 9574 C 877.443 -0.200468 -2.32638 0
M  V30 9575 C 878.424 0.664031 -1.56603 0
M  V30 9576 O 879.609 0.598045 -1.84762 0
M  V30 9577 C 876.739 0.666274 -3.40849 0
M  V30 9578 C 875.693 -0.0982574 -4.27887 0
M  V30 9579 C 875.019 0.889018 -5.27258 0
M  V30 9580 C 876.319 -1.28692 -5.06197 0
M  V30 9581 H 878.013 -1.00399 -2.82065 0
M  V30 9582 H 875.559 -0.484237 -1.35614 0
M  V30 9583 H 877.512 1.08757 -4.07124 0
M  V30 9584 H 876.236 1.50249 -2.89987 0
M  V30 9585 H 874.895 -0.500525 -3.63167 0
M  V30 9586 H 874.543 1.72024 -4.7267 0
M  V30 9587 H 874.243 0.381909 -5.86358 0
M  V30 9588 H 875.767 1.30891 -5.96406 0
M  V30 9589 H 877.181 -0.941429 -5.65517 0
M  V30 9590 H 875.578 -1.72726 -5.74705 0
M  V30 9591 H 876.648 -2.08273 -4.37893 0
M  V30 9592 N 877.991 1.48044 -0.54043 0
M  V30 9593 C 878.923 2.2779 0.253854 0
M  V30 9594 C 879.936 1.35999 0.894883 0
M  V30 9595 O 881.125 1.60963 0.771563 0
M  V30 9596 C 878.225 3.09724 1.37566 0
M  V30 9597 C 877.398 4.29364 0.83459 0
M  V30 9598 C 876.457 4.93026 1.83881 0
M  V30 9599 O 875.483 5.51927 1.39159 0
M  V30 9600 N 876.685 4.86207 3.17149 0
M  V30 9601 H 879.45 2.96597 -0.430125 0
M  V30 9602 H 877.011 1.57487 -0.375423 0
M  V30 9603 H 879.003 3.49181 2.04584 0
M  V30 9604 H 877.573 2.43269 1.96314 0
M  V30 9605 H 876.793 3.94198 -0.0118878 0
M  V30 9606 H 878.081 5.06787 0.452155 0
M  V30 9607 H 877.479 4.39523 3.56141 0
M  V30 9608 H 876.036 5.29733 3.79771 0
M  V30 9609 N 879.47 0.276058 1.55163 0
M  V30 9610 C 880.38 -0.621066 2.2623 0
M  V30 9611 C 881.396 -1.16931 1.28853 0
M  V30 9612 O 882.572 -1.1994 1.61791 0
M  V30 9613 C 879.637 -1.78824 2.97023 0
M  V30 9614 C 878.698 -1.27657 4.09881 0
M  V30 9615 C 877.931 -2.38812 4.77289 0
M  V30 9616 O 878.154 -3.58188 4.43912 0
M  V30 9617 O 877.088 -2.06915 5.65217 0
M  V30 9618 H 880.914 -0.0453346 3.03666 0
M  V30 9619 H 878.499 0.0434275 1.49337 0
M  V30 9620 H 880.381 -2.46877 3.41511 0
M  V30 9621 H 879.056 -2.35104 2.22503 0
M  V30 9622 H 877.963 -0.56248 3.69847 0
M  V30 9623 H 879.296 -0.759509 4.86305 0
M  V30 9624 N 880.948 -1.576 0.00335426 0
M  V30 9625 C 882.178 -1.94713 -0.690682 0
M  V30 9626 C 882.586 -0.876915 -1.67651 0
M  V30 9627 O 881.929 0.152434 -1.83066 0
M  V30 9628 C 881.991 -3.27833 -1.47532 0
M  V30 9629 C 881.655 -4.52344 -0.650704 0
M  V30 9630 C 882.652 -5.19862 0.0630537 0
M  V30 9631 C 880.337 -4.98755 -0.595687 0
M  V30 9632 C 882.331 -6.32093 0.820779 0
M  V30 9633 C 880.018 -6.10875 0.165761 0
M  V30 9634 C 881.016 -6.77401 0.872724 0
M  V30 9635 O 880.704 -7.87372 1.62174 0
M  V30 9636 H 880.436 -0.646627 -0.197104 0
M  V30 9637 H 882.99 -2.05335 0.0516082 0
M  V30 9638 H 881.22 -3.13628 -2.26217 0
M  V30 9639 H 882.909 -3.50034 -2.05501 0
M  V30 9640 H 883.675 -4.84991 0.0297223 0
M  V30 9641 H 879.554 -4.46797 -1.13549 0
M  V30 9642 H 883.098 -6.83953 1.37312 0
M  V30 9643 H 878.995 -6.45187 0.200901 0
M  V30 9644 H 879.763 -8.03905 1.5388 0
M  V30 9645 N 882.426 0.269451 -1.5528 0
M  V30 9646 C 883.675 0.998381 -1.75258 0
M  V30 9647 C 883.988 1.87321 -0.563034 0
M  V30 9648 O 885.194 2.63719 -0.645313 0
M  V30 9649 C 883.65 1.82505 -3.10193 0
M  V30 9650 C 883.258 0.99871 -4.36726 0
M  V30 9651 C 885.002 2.54807 -3.3952 0
M  V30 9652 C 882.909 1.81997 -5.627 0
M  V30 9653 H 881.839 0.376488 -0.653278 0
M  V30 9654 H 884.49 0.253909 -1.81735 0
M  V30 9655 H 882.872 2.61061 -2.97763 0
M  V30 9656 H 884.046 0.257064 -4.60082 0
M  V30 9657 H 882.361 0.390074 -4.14569 0
M  V30 9658 H 884.958 3.16662 -4.30847 0
M  V30 9659 H 885.301 3.25273 -2.59813 0
M  V30 9660 H 885.834 1.83278 -3.53064 0
M  V30 9661 H 882.573 1.15945 -6.45164 0
M  V30 9662 H 882.093 2.53749 -5.43481 0
M  V30 9663 H 883.772 2.39274 -6.0113 0
M  V30 9664 N 883.904 1.48273 0.534124 0
M  V30 9665 C 885.181 1.46567 1.29528 0
M  V30 9666 C 885.561 0.17509 2.10373 0
M  V30 9667 O 884.909 -0.843228 2.12372 0
M  V30 9668 C 885.119 2.72519 2.18023 0
M  V30 9669 C 886.467 3.2068 2.78298 0
M  V30 9670 O 887.491 2.73408 2.28313 0
M  V30 9671 O 886.35 4.02924 3.69208 0
M  V30 9672 H 883.444 0.585151 0.584403 0
M  V30 9673 H 885.99 1.60502 0.551119 0
M  V30 9674 H 884.762 3.57965 1.5804 0
M  V30 9675 H 884.385 2.61285 2.99693 0
M  V30 9676 N 885.382 -0.782676 1.36792 0
M  V30 9677 C 886.607 -1.57676 1.34733 0
M  V30 9678 C 887.032 -1.87979 -0.0675253 0
M  V30 9679 O 886.39 -1.48404 -1.04144 0
M  V30 9680 C 886.438 -2.87047 2.18257 0
M  V30 9681 O 885.542 -3.80946 1.57969 0
M  V30 9682 H 884.883 -0.478034 0.460846 0
M  V30 9683 H 887.413 -0.969578 1.80168 0
M  V30 9684 H 887.423 -3.36254 2.31079 0
M  V30 9685 H 886.098 -2.64319 3.21104 0
M  V30 9686 H 884.675 -3.39558 1.54126 0
M  V30 9687 N 886.86 -1.21182 -1.00761 0
M  V30 9688 C 887.792 -0.926523 -2.09638 0
M  V30 9689 C 888.805 0.0892511 -1.62555 0
M  V30 9690 O 889.994 -0.142915 -1.77927 0
M  V30 9691 C 887.094 -0.369175 -3.36883 0
M  V30 9692 C 886.267 -1.43866 -4.13063 0
M  V30 9693 C 885.326 -0.891015 -5.18601 0
M  V30 9694 O 884.352 -1.57384 -5.47009 0
M  V30 9695 N 885.554 0.295057 -5.7975 0
M  V30 9696 H 888.319 -1.8638 -2.34697 0
M  V30 9697 H 885.88 -1.11671 -1.17223 0
M  V30 9698 H 887.872 0.011534 -4.04698 0
M  V30 9699 H 886.442 0.472861 -3.09003 0
M  V30 9700 H 885.662 -1.99332 -3.40089 0
M  V30 9701 H 886.95 -2.15866 -4.60738 0
M  V30 9702 H 886.348 0.8669 -5.59018 0
M  V30 9703 H 884.905 0.617306 -6.4887 0
M  V30 9704 N 888.338 1.20213 -1.01915 0
M  V30 9705 C 889.285 2.2309 -0.591571 0
M  V30 9706 C 890.255 1.61465 0.389649 0
M  V30 9707 O 891.44 1.88606 0.288511 0
M  V30 9708 C 888.58 3.45045 0.0614028 0
M  V30 9709 C 887.693 4.21091 -0.964688 0
M  V30 9710 C 886.828 5.30448 -0.282499 0
M  V30 9711 C 885.867 5.98241 -1.29517 0
M  V30 9712 N 885.004 6.99182 -0.639472 0
M  V30 9713 H 889.844 2.59023 -1.47347 0
M  V30 9714 H 887.381 1.27274 -0.737547 0
M  V30 9715 H 889.339 4.14688 0.45714 0
M  V30 9716 H 887.969 3.09797 0.906937 0
M  V30 9717 H 887.021 3.50489 -1.47857 0
M  V30 9718 H 888.333 4.67662 -1.73475 0
M  V30 9719 H 887.487 6.06466 0.168603 0
M  V30 9720 H 886.226 4.84922 0.519843 0
M  V30 9721 H 885.231 5.20982 -1.75663 0
M  V30 9722 H 886.456 6.45853 -2.09884 0
M  V30 9723 H 884.402 6.55844 0.142955 0
M  V30 9724 H 884.319 7.43893 -1.34756 0
M  V30 9725 H 885.587 7.79212 -0.212047 0
M  V30 9726 N 889.816 0.795718 1.36037 0
M  V30 9727 C 890.746 0.212803 2.32528 0
M  V30 9728 C 891.727 -0.655716 1.56953 0
M  V30 9729 O 892.912 -0.588238 1.85077 0
M  V30 9730 C 890.042 -0.648189 3.41198 0
M  V30 9731 C 888.996 0.120948 4.27829 0
M  V30 9732 C 888.322 -0.861044 5.27722 0
M  V30 9733 C 889.622 1.31375 5.05508 0
M  V30 9734 H 891.316 1.01893 2.81528 0
M  V30 9735 H 888.862 0.491422 1.35355 0
M  V30 9736 H 890.815 -1.06597 4.07695 0
M  V30 9737 H 889.539 -1.48709 2.9078 0
M  V30 9738 H 888.198 0.519777 3.62897 0
M  V30 9739 H 887.846 -1.69515 4.73575 0
M  V30 9740 H 887.546 -0.350808 5.86552 0
M  V30 9741 H 889.07 -1.27726 5.97092 0
M  V30 9742 H 890.484 0.971406 5.6501 0
M  V30 9743 H 888.881 1.75772 5.73781 0
M  V30 9744 H 889.951 2.10593 4.36782 0
M  V30 9745 N 891.294 -1.47756 0.548274 0
M  V30 9746 C 892.204 -2.33678 -0.207773 0
M  V30 9747 C 893.22 -1.47636 -0.920843 0
M  V30 9748 O 894.396 -1.80583 -0.89173 0
M  V30 9749 C 891.461 -3.24147 -1.23003 0
M  V30 9750 C 890.522 -4.26073 -0.52535 0
M  V30 9751 C 889.755 -5.12219 -1.4989 0
M  V30 9752 O 889.978 -5.0066 -2.73305 0
M  V30 9753 O 888.912 -5.93051 -1.02828 0
M  V30 9754 H 892.738 -2.99609 0.496794 0
M  V30 9755 H 890.323 -1.4617 0.308982 0
M  V30 9756 H 892.205 -3.80055 -1.82034 0
M  V30 9757 H 890.88 -2.60855 -1.91668 0
M  V30 9758 H 889.787 -3.7395 0.105927 0
M  V30 9759 H 891.12 -4.92054 0.119686 0
M  V30 9760 N 892.772 -0.284283 -1.55015 0
M  V30 9761 C 893.72 0.615091 -2.2432 0
M  V30 9762 C 894.714 1.15051 -1.24337 0
M  V30 9763 O 895.92 1.10308 -1.4224 0
M  V30 9764 H 892.295 0.216927 -0.720033 0
M  V30 9765 H 894.266 0.00783216 -2.98399 0
M  V30 9766 C 893.015 1.78355 -2.98471 0
M  V30 9767 H 892.338 1.38076 -3.752 0
M  V30 9768 H 893.778 2.38927 -3.50271 0
M  V30 9769 C 892.237 2.67757 -2.04469 0
M  V30 9770 O 892.767 3.6838 -1.60185 0
M  V30 9771 N 890.973 2.35125 -1.70776 0
M  V30 9772 H 890.52 1.53346 -2.06985 0
M  V30 9773 H 890.478 2.95212 -1.08153 0
M  V30 9774 N 894.251 1.57596 -0.0117121 0
M  V30 9775 C 895.5 1.9025 0.669921 0
M  V30 9776 C 895.813 0.887986 1.74282 0
M  V30 9777 O 897.019 1.10516 2.47989 0
M  V30 9778 C 895.475 3.37762 1.24277 0
M  V30 9779 C 895.083 4.47535 0.204076 0
M  V30 9780 C 896.827 3.79509 1.90192 0
M  V30 9781 C 894.734 5.86132 0.787577 0
M  V30 9782 H 893.664 0.709935 0.253984 0
M  V30 9783 H 896.315 1.8335 -0.0741718 0
M  V30 9784 H 894.697 3.39537 2.03791 0
M  V30 9785 H 895.871 4.57294 -0.56733 0
M  V30 9786 H 894.186 4.14881 -0.355305 0
M  V30 9787 H 896.783 4.80402 2.34773 0
M  V30 9788 H 897.126 3.13643 2.7374 0
M  V30 9789 H 897.659 3.80084 1.17394 0
M  V30 9790 H 894.398 6.55499 -0.00938418 0
M  V30 9791 H 893.918 5.80014 1.52787 0
M  V30 9792 H 895.597 6.34158 1.28265 0
M  V30 9793 N 895.729 -0.261212 1.5542 0
M  V30 9794 C 896.676 -1.32315 1.89107 0
M  V30 9795 C 897.646 -1.48517 0.743767 0
M  V30 9796 O 898.831 -1.62733 0.996123 0
M  V30 9797 C 895.971 -2.67626 2.17877 0
M  V30 9798 C 895.084 -2.59549 3.45338 0
M  V30 9799 C 894.219 -3.87118 3.63748 0
M  V30 9800 C 893.258 -3.736 4.8486 0
M  V30 9801 N 892.395 -4.93029 4.99867 0
M  V30 9802 H 897.235 -1.02886 2.79675 0
M  V30 9803 H 894.772 -0.496812 1.38456 0
M  V30 9804 H 896.73 -3.4637 2.32559 0
M  V30 9805 H 895.36 -2.95232 1.30529 0
M  V30 9806 H 894.412 -1.72452 3.39064 0
M  V30 9807 H 895.724 -2.45465 4.34222 0
M  V30 9808 H 894.878 -4.74305 3.78312 0
M  V30 9809 H 893.617 -4.04084 2.73071 0
M  V30 9810 H 892.622 -2.84797 4.70288 0
M  V30 9811 H 893.847 -3.58143 5.76984 0
M  V30 9812 H 891.793 -5.10383 4.12123 0
M  V30 9813 H 891.71 -4.81521 5.82815 0
M  V30 9814 H 892.978 -5.81754 5.18828 0
M  V30 9815 N 897.207 -1.48554 -0.526253 0
M  V30 9816 C 898.14 -1.57928 -1.64724 0
M  V30 9817 C 899.118 -0.429536 -1.56824 0
M  V30 9818 O 900.302 -0.641651 -1.77243 0
M  V30 9819 C 897.429 -1.51075 -3.0314 0
M  V30 9820 C 896.475 -2.70937 -3.29386 0
M  V30 9821 S 897.308 -4.3287 -3.15251 0
M  V30 9822 C 898.464 -4.28622 -4.56108 0
M  V30 9823 H 898.697 -2.52761 -1.56523 0
M  V30 9824 H 896.23 -1.37133 -0.7095 0
M  V30 9825 H 898.188 -1.47808 -3.82966 0
M  V30 9826 H 896.849 -0.57574 -3.08778 0
M  V30 9827 H 896.042 -2.62291 -4.30371 0
M  V30 9828 H 895.644 -2.71486 -2.57238 0
M  V30 9829 H 897.936 -3.98784 -5.47702 0
M  V30 9830 H 898.879 -5.29798 -4.69808 0
M  V30 9831 H 899.287 -3.59038 -4.35605 0
M  V30 9832 N 898.685 0.775411 -1.37205 0
M  V30 9833 C 899.962 1.5229 -1.22748 0
M  V30 9834 C 900.342 2.10327 0.180487 0
M  V30 9835 O 899.69 1.95206 1.18772 0
M  V30 9836 C 899.9 2.60671 -2.3206 0
M  V30 9837 C 901.248 3.28173 -2.6942 0
M  V30 9838 O 902.272 2.70963 -2.31208 0
M  V30 9839 O 901.131 4.31598 -3.3524 0
M  V30 9840 H 898.225 0.674326 -0.478762 0
M  V30 9841 H 900.771 0.812691 -1.48975 0
M  V30 9842 H 899.543 2.1588 -3.26361 0
M  V30 9843 H 899.166 3.39296 -2.07277 0
M  V30 9844 N 900.163 1.21714 1.00117 0
M  V30 9845 C 901.093 1.00397 2.10815 0
M  V30 9846 C 902.074 -0.0723502 1.69946 0
M  V30 9847 O 903.259 0.0882398 1.93999 0
M  V30 9848 C 900.389 0.572001 3.42557 0
M  V30 9849 C 899.343 1.59331 3.97237 0
M  V30 9850 C 898.669 1.01746 5.2493 0
M  V30 9851 C 899.969 2.98117 4.28863 0
M  V30 9852 H 901.663 1.92983 2.28906 0
M  V30 9853 H 899.209 0.929273 1.10002 0
M  V30 9854 H 901.162 0.410018 4.19401 0
M  V30 9855 H 899.886 -0.38951 3.24269 0
M  V30 9856 H 898.545 1.74293 3.22518 0
M  V30 9857 H 898.193 0.0475491 5.02978 0
M  V30 9858 H 897.893 1.69969 5.62481 0
M  V30 9859 H 899.417 0.866881 6.04415 0
M  V30 9860 H 900.831 2.86578 4.96534 0
M  V30 9861 H 899.228 3.63389 4.77565 0
M  V30 9862 H 900.298 3.48674 3.36979 0
M  V30 9863 N 901.641 -1.19671 1.02551 0
M  V30 9864 C 902.866 -1.93774 0.739363 0
M  V30 9865 C 903.291 -1.74787 -0.695064 0
M  V30 9866 O 902.649 -1.04796 -1.47944 0
M  V30 9867 C 902.697 -3.43684 1.09149 0
M  V30 9868 O 901.801 -4.11874 0.208213 0
M  V30 9869 H 901.142 -0.605064 0.273484 0
M  V30 9870 H 903.672 -1.51846 1.37128 0
M  V30 9871 H 903.682 -3.94339 1.04695 0
M  V30 9872 H 902.357 -3.56826 2.13654 0
M  V30 9873 H 900.934 -3.716 0.311045 0
M  V30 9874 N 903.119 -0.802921 -1.35613 0
M  V30 9875 C 904.349 -0.393359 -2.02821 0
M  V30 9876 C 904.757 0.999282 -1.60658 0
M  V30 9877 O 904.1 1.65463 -0.797977 0
M  V30 9878 C 904.162 -0.393102 -3.57344 0
M  V30 9879 C 903.826 -1.73563 -4.22759 0
M  V30 9880 C 904.823 -2.69333 -4.44698 0
M  V30 9881 C 902.508 -2.01863 -4.59953 0
M  V30 9882 C 904.502 -3.91589 -5.02928 0
M  V30 9883 C 902.189 -3.24383 -5.17898 0
M  V30 9884 C 903.187 -4.19064 -5.39328 0
M  V30 9885 O 902.875 -5.39422 -5.96053 0
M  V30 9886 H 902.607 -0.158431 -0.657172 0
M  V30 9887 H 905.161 -1.08682 -1.74291 0
M  V30 9888 H 903.391 0.356934 -3.85049 0
M  V30 9889 H 905.08 -0.00635596 -4.059 0
M  V30 9890 H 905.846 -2.48759 -4.16346 0
M  V30 9891 H 901.725 -1.28979 -4.42589 0
M  V30 9892 H 905.269 -4.65502 -5.1957 0
M  V30 9893 H 901.166 -3.44829 -5.45677 0
M  V30 9894 H 901.934 -5.40669 -6.14507 0
M  V30 9895 N 904.597 1.47463 -0.556102 0
M  V30 9896 C 905.822 2.07371 -0.0344729 0
M  V30 9897 C 906.247 1.40621 1.2493 0
M  V30 9898 O 905.605 0.48082 1.74808 0
M  V30 9899 C 905.653 3.60306 0.145563 0
M  V30 9900 O 904.757 3.94299 1.20839 0
M  V30 9901 H 904.098 0.662052 -0.0508274 0
M  V30 9902 H 906.628 1.89498 -0.771469 0
M  V30 9903 H 906.638 4.06408 0.360112 0
M  V30 9904 H 905.313 4.08288 -0.792089 0
M  V30 9905 H 903.89 3.59944 0.97442 0
M  V30 9906 N 906.075 0.2925 1.54862 0
M  V30 9907 C 907.005 -0.580677 2.26165 0
M  V30 9908 C 907.986 -1.14485 1.25806 0
M  V30 9909 O 909.171 -1.17577 1.54562 0
M  V30 9910 C 906.301 -1.75668 2.99596 0
M  V30 9911 C 905.255 -1.32325 4.07031 0
M  V30 9912 C 904.581 -2.58374 4.68131 0
M  V30 9913 C 905.881 -0.460703 5.20264 0
M  V30 9914 H 907.575 0.0140075 2.99397 0
M  V30 9915 H 905.121 0.00817706 1.43998 0
M  V30 9916 H 907.074 -2.37356 3.48195 0
M  V30 9917 H 905.798 -2.37747 2.23928 0
M  V30 9918 H 904.457 -0.729477 3.59269 0
M  V30 9919 H 904.105 -3.18749 3.89112 0
M  V30 9920 H 903.805 -2.30078 5.40683 0
M  V30 9921 H 905.329 -3.2088 5.19489 0
M  V30 9922 H 906.743 -0.983037 5.64809 0
M  V30 9923 H 905.14 -0.271881 5.99484 0
M  V30 9924 H 906.21 0.516304 4.82143 0
M  V30 9925 N 907.553 -1.57587 0.0200696 0
M  V30 9926 C 908.463 -2.13119 -0.980676 0
M  V30 9927 C 909.479 -1.08124 -1.36328 0
M  V30 9928 O 910.655 -1.40134 -1.44653 0
M  V30 9929 C 907.72 -2.63991 -2.24743 0
M  V30 9930 C 906.781 -3.83667 -1.9261 0
M  V30 9931 C 906.014 -4.32103 -3.13246 0
M  V30 9932 O 906.237 -3.79758 -4.25606 0
M  V30 9933 O 905.171 -5.24047 -2.96072 0
M  V30 9934 H 908.997 -2.98887 -0.538528 0
M  V30 9935 H 906.582 -1.48055 -0.19999 0
M  V30 9936 H 908.464 -2.9682 -2.99125 0
M  V30 9937 H 907.139 -1.81311 -2.68157 0
M  V30 9938 H 906.046 -3.55778 -1.15641 0
M  V30 9939 H 907.379 -4.67482 -1.54019 0
M  V30 9940 N 909.032 0.252966 -1.55557 0
M  V30 9941 C 910.257 1.0038 -1.8149 0
M  V30 9942 C 910.682 1.78397 -0.596318 0
M  V30 9943 O 910.04 1.7551 0.454535 0
M  V30 9944 C 910.088 1.9222 -3.05096 0
M  V30 9945 O 909.192 3.01302 -2.81587 0
M  V30 9946 H 908.533 0.285949 -0.599274 0
M  V30 9947 H 911.063 0.275795 -2.02733 0
M  V30 9948 H 911.073 2.338 -3.34368 0
M  V30 9949 H 909.748 1.34852 -3.93431 0
M  V30 9950 H 908.325 2.63894 -2.63466 0
M  V30 9951 N 910.51 1.48831 0.518367 0
M  V30 9952 C 911.759 1.5669 1.27008 0
M  V30 9953 C 912.072 0.250934 1.93984 0
M  V30 9954 O 913.278 0.207884 2.70703 0
M  V30 9955 C 911.734 2.76387 2.30517 0
M  V30 9956 C 911.342 4.14673 1.69559 0
M  V30 9957 C 913.086 2.93566 3.06625 0
M  V30 9958 C 910.993 5.25616 2.71076 0
M  V30 9959 H 909.923 0.583362 0.477708 0
M  V30 9960 H 912.574 1.75187 0.546052 0
M  V30 9961 H 910.956 2.51348 3.06006 0
M  V30 9962 H 912.13 4.49779 1.00179 0
M  V30 9963 H 910.445 4.02708 1.05902 0
M  V30 9964 H 913.042 3.7362 3.82508 0
M  V30 9965 H 913.385 2.03462 3.63193 0
M  V30 9966 H 913.918 3.18562 2.38251 0
M  V30 9967 H 910.657 6.17723 2.19313 0
M  V30 9968 H 910.177 4.94985 3.38748 0
M  V30 9969 H 911.856 5.5422 3.3384 0
M  V30 9970 N 911.988 -0.768124 1.37614 0
M  V30 9971 C 912.898 -1.91249 1.35871 0
M  V30 9972 C 913.914 -1.7208 0.257786 0
M  V30 9973 O 915.09 -1.95253 0.493782 0
M  V30 9974 C 912.155 -3.26423 1.16829 0
M  V30 9975 C 911.216 -3.5822 2.36594 0
M  V30 9976 C 910.449 -4.86945 2.1845 0
M  V30 9977 O 910.672 -5.58258 1.17064 0
M  V30 9978 O 909.606 -5.17888 3.06718 0
M  V30 9979 H 913.432 -1.95671 2.32264 0
M  V30 9980 H 911.017 -0.911382 1.18382 0
M  V30 9981 H 912.899 -4.07269 1.08212 0
M  V30 9982 H 911.574 -3.22845 0.235123 0
M  V30 9983 H 910.481 -2.77594 2.50783 0
M  V30 9984 H 911.814 -3.66545 3.2849 0
M  V30 9985 N 913.466 -1.22244 -0.994698 0
M  V30 9986 C 914.743 -0.954459 -1.70732 0
M  V30 9987 C 915.123 0.530945 -2.04314 0
M  V30 9988 O 914.471 1.49851 -1.72502 0
M  V30 9989 C 914.681 -1.85016 -2.95922 0
M  V30 9990 C 916.029 -2.10517 -3.68738 0
M  V30 9991 O 917.053 -1.82449 -3.05926 0
M  V30 9992 O 915.912 -2.58044 -4.81742 0
M  V30 9993 H 913.006 -0.35879 -0.745116 0
M  V30 9994 H 915.552 -1.33221 -1.0512 0
M  V30 9995 H 914.324 -2.85498 -2.67594 0
M  V30 9996 H 913.947 -1.47388 -3.69273 0
M  V30 9997 N 914.944 1.19125 -1.03184 0
M  V30 9998 C 916.355 1.70564 -0.759264 0
M  V30 9999 C 916.706 1.8248 0.720794 0
M  V30 10000 O 915.831 1.49804 1.56166 0
M  V30 10001 C 916.426 3.09793 -1.37163 0
M  V30 10002 C 914.985 3.5848 -1.14757 0
M  V30 10003 C 914.132 2.35265 -1.46784 0
M  V30 10004 H 917.083 1.03925 -1.19939 0
M  V30 10005 H 917.104 3.72624 -0.77015 0
M  V30 10006 H 916.616 3.01088 -2.44882 0
M  V30 10007 H 914.717 3.72494 -0.0887182 0
M  V30 10008 H 914.83 4.42426 -1.83836 0
M  V30 10009 H 913.194 2.38747 -0.887254 0
M  V30 10010 H 913.977 2.29188 -2.55593 0
M  V30 10011 N 916.422 0.810101 1.35185 0
M  V30 10012 C 917.369 0.220927 2.2974 0
M  V30 10013 C 918.339 -0.647024 1.5298 0
M  V30 10014 O 919.524 -0.591367 1.81404 0
M  V30 10015 C 916.664 -0.62167 3.39454 0
M  V30 10016 C 915.777 0.267104 4.31173 0
M  V30 10017 C 914.912 -0.583833 5.27982 0
M  V30 10018 C 913.951 0.305123 6.11339 0
M  V30 10019 N 913.088 -0.505992 7.00274 0
M  V30 10020 H 917.928 1.03266 2.79536 0
M  V30 10021 H 915.465 0.520768 1.37573 0
M  V30 10022 H 917.423 -1.12539 4.01735 0
M  V30 10023 H 916.053 -1.39863 2.90926 0
M  V30 10024 H 915.105 0.88895 3.69867 0
M  V30 10025 H 916.417 0.951182 4.89647 0
M  V30 10026 H 915.571 -1.15254 5.95652 0
M  V30 10027 H 914.31 -1.30146 4.70014 0
M  V30 10028 H 913.315 0.886075 5.42613 0
M  V30 10029 H 914.54 1.02067 6.71386 0
M  V30 10030 H 912.486 -1.20753 6.4479 0
M  V30 10031 H 912.403 0.119966 7.55905 0
M  V30 10032 H 913.671 -1.05787 7.72288 0
M  V30 10033 N 917.9 -1.47166 0.563914 0
M  V30 10034 C 918.832 -2.28165 -0.217583 0
M  V30 10035 C 919.845 -1.37405 -0.873134 0
M  V30 10036 O 921.034 -1.6217 -0.745857 0
M  V30 10037 C 918.134 -3.11873 -1.32621 0
M  V30 10038 C 917.307 -4.30637 -0.766177 0
M  V30 10039 C 916.366 -4.95889 -1.76014 0
M  V30 10040 O 915.392 -5.54071 -1.3036 0
M  V30 10041 N 916.594 -4.91191 -3.09373 0
M  V30 10042 H 919.359 -2.95876 0.477256 0
M  V30 10043 H 916.92 -1.5687 0.40043 0
M  V30 10044 H 918.912 -3.52392 -1.99003 0
M  V30 10045 H 917.482 -2.46361 -1.92419 0
M  V30 10046 H 916.702 -3.94129 0.0745998 0
M  V30 10047 H 917.99 -5.07442 -0.371472 0
M  V30 10048 H 917.388 -4.45133 -3.49104 0
M  V30 10049 H 915.945 -5.35708 -3.71295 0
M  V30 10050 N 919.378 -0.300708 -1.54705 0
M  V30 10051 C 920.311 0.617513 -2.19686 0
M  V30 10052 C 921.289 1.1331 -1.16617 0
M  V30 10053 O 922.473 1.20135 -1.45258 0
M  V30 10054 C 919.6 1.84486 -2.84047 0
M  V30 10055 C 918.646 1.46253 -4.0064 0
M  V30 10056 S 919.479 0.518718 -5.32982 0
M  V30 10057 C 920.635 1.75387 -6.00825 0
M  V30 10058 H 920.868 0.0654548 -2.97228 0
M  V30 10059 H 918.401 -0.0848492 -1.54167 0
M  V30 10060 H 920.359 2.54921 -3.21754 0
M  V30 10061 H 919.02 2.36808 -2.06351 0
M  V30 10062 H 918.213 2.37648 -4.44454 0
M  V30 10063 H 917.815 0.838129 -3.64488 0
M  V30 10064 H 920.107 2.69448 -6.21614 0
M  V30 10065 H 921.05 1.35829 -6.9495 0
M  V30 10066 H 921.458 1.93045 -5.30466 0
M  V30 10067 N 920.856 1.57574 -0.0284266 0
M  V30 10068 C 921.803 2.10176 0.953658 0
M  V30 10069 C 922.773 1.00367 1.32347 0
M  V30 10070 O 923.958 1.27783 1.4169 0
M  V30 10071 C 921.098 2.63287 2.231 0
M  V30 10072 C 920.211 3.87102 1.91771 0
M  V30 10073 C 919.346 4.28609 3.13795 0
M  V30 10074 C 918.385 5.45184 2.78282 0
M  V30 10075 N 917.522 5.81851 3.92929 0
M  V30 10076 H 922.362 2.93806 0.498176 0
M  V30 10077 H 919.899 1.45222 0.234302 0
M  V30 10078 H 921.857 2.9217 2.97813 0
M  V30 10079 H 920.487 1.82489 2.66266 0
M  V30 10080 H 919.539 3.64952 1.07303 0
M  V30 10081 H 920.851 4.71892 1.61615 0
M  V30 10082 H 920.005 4.58925 3.96829 0
M  V30 10083 H 918.744 3.42585 3.47112 0
M  V30 10084 H 917.749 5.14563 1.93661 0
M  V30 10085 H 918.974 6.32907 2.46182 0
M  V30 10086 H 916.92 4.98782 4.2609 0
M  V30 10087 H 916.837 6.6128 3.66395 0
M  V30 10088 H 918.105 6.16772 4.76669 0
M  V30 10089 N 922.334 -0.244713 1.55689 0
M  V30 10090 C 923.266 -1.32595 1.86952 0
M  V30 10091 C 924.279 -1.44185 0.755948 0
M  V30 10092 O 925.468 -1.45496 1.03408 0
M  V30 10093 C 922.568 -2.70429 2.04258 0
M  V30 10094 C 921.741 -2.8108 3.35131 0
M  V30 10095 C 920.8 -3.99773 3.42152 0
M  V30 10096 O 919.826 -3.89197 4.15348 0
M  V30 10097 N 921.028 -5.13041 2.71604 0
M  V30 10098 H 923.793 -1.06111 2.80287 0
M  V30 10099 H 921.354 -0.434811 1.55952 0
M  V30 10100 H 923.346 -3.48173 2.06295 0
M  V30 10101 H 921.916 -2.89612 1.17658 0
M  V30 10102 H 921.136 -1.89994 3.45392 0
M  V30 10103 H 922.424 -2.85147 4.21389 0
M  V30 10104 H 921.822 -5.24525 2.11872 0
M  V30 10105 H 920.379 -5.88912 2.79331 0
M  V30 10106 N 923.813 -1.49104 -0.510467 0
M  V30 10107 C 925.041 -1.61806 -1.28944 0
M  V30 10108 C 925.456 -0.285774 -1.86625 0
M  V30 10109 O 924.813 0.727551 -1.67371 0
M  V30 10110 C 924.864 -2.67966 -2.42645 0
M  V30 10111 O 924.585 -3.96026 -1.87337 0
M  V30 10112 C 926.086 -2.91286 -3.34166 0
M  V30 10113 H 923.306 -0.544999 -0.391429 0
M  V30 10114 H 925.85 -1.95071 -0.613805 0
M  V30 10115 H 924.005 -2.37505 -3.06056 0
M  V30 10116 H 924.419 -4.54427 -2.61909 0
M  V30 10117 H 925.893 -3.69323 -4.1025 0
M  V30 10118 H 926.37 -2.00842 -3.90588 0
M  V30 10119 H 926.976 -3.23127 -2.76531 0
M  V30 10120 N 925.291 0.760815 -1.38019 0
M  V30 10121 C 926.221 1.88811 -1.37377 0
M  V30 10122 C 927.202 1.68388 -0.240737 0
M  V30 10123 O 928.387 1.89086 -0.442739 0
M  V30 10124 C 925.517 3.26244 -1.1909 0
M  V30 10125 C 924.471 3.61254 -2.29521 0
M  V30 10126 C 923.797 4.97346 -1.96345 0
M  V30 10127 C 925.097 3.66874 -3.71753 0
M  V30 10128 H 926.791 1.89606 -2.31711 0
M  V30 10129 H 924.337 0.910818 -1.11535 0
M  V30 10130 H 926.29 4.04755 -1.17267 0
M  V30 10131 H 925.014 3.2591 -0.212152 0
M  V30 10132 H 923.673 2.85057 -2.30517 0
M  V30 10133 H 923.321 4.93564 -0.969728 0
M  V30 10134 H 923.021 5.21739 -2.703 0
M  V30 10135 H 924.545 5.78244 -1.96129 0
M  V30 10136 H 925.959 4.35514 -3.72828 0
M  V30 10137 H 924.356 4.02772 -4.44853 0
M  V30 10138 H 925.426 2.67273 -4.0459 0
M  V30 10139 N 926.769 1.22769 0.988202 0
M  V30 10140 C 928.016 1.05509 1.72841 0
M  V30 10141 C 928.344 -0.409145 1.90148 0
M  V30 10142 O 927.599 -1.3195 1.44526 0
M  V30 10143 C 927.898 1.71679 3.13466 0
M  V30 10144 C 927.564 3.21584 3.16061 0
M  V30 10145 C 926.226 3.62486 3.16476 0
M  V30 10146 C 928.578 4.17511 3.11984 0
M  V30 10147 C 925.906 4.97789 3.10521 0
M  V30 10148 C 928.258 5.52796 3.0757 0
M  V30 10149 C 926.922 5.93072 3.06304 0
M  V30 10150 H 926.192 0.386085 0.632471 0
M  V30 10151 H 928.839 1.52596 1.157 0
M  V30 10152 H 927.144 1.1693 3.73945 0
M  V30 10153 H 928.841 1.55809 3.69492 0
M  V30 10154 H 925.431 2.89019 3.1649 0
M  V30 10155 H 929.615 3.86926 3.10809 0
M  V30 10156 H 924.871 5.28218 3.07888 0
M  V30 10157 H 929.045 6.26848 3.03372 0
M  V30 10158 H 926.672 6.97879 3.01444 0
M  V30 10159 N 928.247 -1.18576 1.03814 0
M  V30 10160 C 929.524 -1.8433 0.654358 0
M  V30 10161 C 929.904 -1.92504 -0.866338 0
M  V30 10162 O 929.252 -1.44904 -1.76678 0
M  V30 10163 C 929.462 -3.22778 1.32723 0
M  V30 10164 C 930.81 -3.98841 1.45641 0
M  V30 10165 O 931.834 -3.32209 1.28514 0
M  V30 10166 O 930.693 -5.18219 1.73526 0
M  V30 10167 H 927.787 -0.794766 0.228638 0
M  V30 10168 H 930.333 -1.25989 1.13687 0
M  V30 10169 H 929.105 -3.11717 2.36534 0
M  V30 10170 H 928.728 -3.88772 0.833176 0
M  V30 10171 N 929.725 -0.817259 -1.34754 0
M  V30 10172 C 930.688 -0.240611 -2.27934 0
M  V30 10173 C 931.688 0.578219 -1.50044 0
M  V30 10174 O 932.878 0.395148 -1.69659 0
M  V30 10175 C 930.01 0.663318 -3.34384 0
M  V30 10176 H 931.203 -1.06257 -2.80445 0
M  V30 10177 H 928.756 -0.588697 -1.4479 0
M  V30 10178 H 929.491 1.50855 -2.87077 0
M  V30 10179 H 929.276 0.0777388 -3.92023 0
M  V30 10180 H 930.766 1.06076 -4.03903 0
M  V30 10181 N 931.203 1.46865 -0.571711 0
M  V30 10182 C 932.113 2.33979 0.170571 0
M  V30 10183 C 933.129 1.49083 0.897239 0
M  V30 10184 O 934.305 1.81979 0.862888 0
M  V30 10185 C 931.37 3.26063 1.17831 0
M  V30 10186 C 930.431 4.26855 0.457499 0
M  V30 10187 C 929.664 5.14539 1.41722 0
M  V30 10188 O 929.887 5.04945 2.65305 0
M  V30 10189 O 928.821 5.94612 0.9338 0
M  V30 10190 H 932.647 2.98781 -0.544396 0
M  V30 10191 H 930.232 1.4566 -0.332198 0
M  V30 10192 H 932.114 3.82903 1.75965 0
M  V30 10193 H 930.789 2.63871 1.87493 0
M  V30 10194 H 929.696 3.73734 -0.165406 0
M  V30 10195 H 931.029 4.91802 -0.197953 0
M  V30 10196 N 932.681 0.308908 1.54543 0
M  V30 10197 C 933.909 -0.300418 2.04707 0
M  V30 10198 C 934.324 -1.46915 1.18581 0
M  V30 10199 O 933.681 -1.81251 0.213186 0
M  V30 10200 C 933.732 -0.749038 3.53655 0
M  V30 10201 O 933.453 0.373181 4.36508 0
M  V30 10202 C 934.954 -1.4227 4.1985 0
M  V30 10203 H 932.174 -0.0641267 0.667929 0
M  V30 10204 H 934.718 0.450839 1.99469 0
M  V30 10205 H 932.873 -1.4503 3.59228 0
M  V30 10206 H 933.287 0.0224752 5.24495 0
M  V30 10207 H 934.761 -1.68768 5.25568 0
M  V30 10208 H 935.238 -2.36531 3.70067 0
M  V30 10209 H 935.844 -0.764404 4.18374 0
M  V30 10210 N 934.159 -1.57557 0.0367827 0
M  V30 10211 C 935.405 -1.92399 -0.641133 0
M  V30 10212 C 935.738 -0.914191 -1.71336 0
M  V30 10213 O 935.013 0.0619616 -1.94401 0
M  V30 10214 C 935.296 -3.37689 -1.25052 0
M  V30 10215 C 935.149 -4.4941 -0.187326 0
M  V30 10216 C 936.468 -3.8309 -2.16634 0
M  V30 10217 H 933.587 -0.699666 -0.231597 0
M  V30 10218 H 936.229 -1.89759 0.0956083 0
M  V30 10219 H 934.379 -3.40069 -1.87843 0
M  V30 10220 H 936.051 -4.59161 0.443736 0
M  V30 10221 H 934.294 -4.31065 0.486313 0
M  V30 10222 H 934.965 -5.48119 -0.653459 0
M  V30 10223 H 937.441 -3.82494 -1.63821 0
M  V30 10224 H 936.317 -4.85429 -2.56222 0
M  V30 10225 H 936.578 -3.19028 -3.06062 0
M  V30 10226 N 935.637 0.236453 -1.55816 0
M  V30 10227 C 936.6 1.27633 -1.90375 0
M  V30 10228 C 937.6 1.40557 -0.781048 0
M  V30 10229 O 938.79 1.39078 -1.04895 0
M  V30 10230 C 935.922 2.65247 -2.14142 0
M  V30 10231 H 937.115 0.982019 -2.83366 0
M  V30 10232 H 934.668 0.476215 -1.48869 0
M  V30 10233 H 935.403 2.99801 -1.23653 0
M  V30 10234 H 935.188 2.57246 -2.95917 0
M  V30 10235 H 936.678 3.40313 -2.42026 0
M  V30 10236 N 937.115 1.49373 0.502552 0
M  V30 10237 C 938.045 1.68839 1.61294 0
M  V30 10238 C 939.026 0.537096 1.61398 0
M  V30 10239 O 940.211 0.772764 1.78163 0
M  V30 10240 C 937.341 1.75347 2.99784 0
M  V30 10241 C 936.295 2.90251 3.14545 0
M  V30 10242 C 935.621 2.8187 4.54371 0
M  V30 10243 C 936.921 4.31207 2.94717 0
M  V30 10244 H 938.615 2.61803 1.45257 0
M  V30 10245 H 936.161 1.25987 0.697371 0
M  V30 10246 H 938.114 1.87552 3.77362 0
M  V30 10247 H 936.838 0.789814 3.16906 0
M  V30 10248 H 935.497 2.77646 2.39392 0
M  V30 10249 H 935.145 1.83416 4.68367 0
M  V30 10250 H 934.845 3.5899 4.65188 0
M  V30 10251 H 936.369 2.96081 5.34012 0
M  V30 10252 H 937.783 4.44501 3.62065 0
M  V30 10253 H 936.18 5.09536 3.17007 0
M  V30 10254 H 937.25 4.45759 1.90857 0
M  V30 10255 N 938.594 -0.753485 1.38421 0
M  V30 10256 C 939.871 -1.50318 1.25155 0
M  V30 10257 C 940.251 -2.10588 -0.147003 0
M  V30 10258 O 939.599 -1.97071 -1.15651 0
M  V30 10259 C 939.809 -2.56946 2.36177 0
M  V30 10260 C 941.157 -3.23846 2.74607 0
M  V30 10261 O 942.181 -2.67251 2.3549 0
M  V30 10262 O 941.04 -4.2621 3.42064 0
M  V30 10263 H 938.134 -0.666624 0.48943 0
M  V30 10264 H 940.68 -0.788887 1.50249 0
M  V30 10265 H 939.452 -2.1066 3.29754 0
M  V30 10266 H 939.075 -3.35956 2.12648 0
M  V30 10267 N 940.072 -1.23292 -0.981677 0
M  V30 10268 C 941.035 -1.01417 -2.05542 0
M  V30 10269 C 942.035 0.0235354 -1.60783 0
M  V30 10270 O 943.225 -0.216082 -1.72855 0
M  V30 10271 C 940.357 -0.534239 -3.36688 0
M  V30 10272 H 941.55 -1.96702 -2.26381 0
M  V30 10273 H 939.103 -1.05318 -1.1549 0
M  V30 10274 H 939.838 0.422452 -3.21537 0
M  V30 10275 H 939.623 -1.28304 -3.70514 0
M  V30 10276 H 941.113 -0.40179 -4.15663 0
M  V30 10277 N 941.55 1.18024 -1.04442 0
M  V30 10278 C 942.497 2.21785 -0.638759 0
M  V30 10279 C 943.467 1.62255 0.355312 0
M  V30 10280 O 944.652 1.89176 0.24844 0
M  V30 10281 C 941.792 3.45098 -0.0118002 0
M  V30 10282 C 940.905 4.1895 -1.05379 0
M  V30 10283 C 940.04 5.2973 -0.394951 0
M  V30 10284 C 939.079 5.95359 -1.42178 0
M  V30 10285 N 938.216 6.97668 -0.787635 0
M  V30 10286 H 943.056 2.55839 -1.52808 0
M  V30 10287 H 940.593 1.25681 -0.764378 0
M  V30 10288 H 942.551 4.15564 0.369075 0
M  V30 10289 H 941.181 3.11652 0.84102 0
M  V30 10290 H 940.233 3.47274 -1.55258 0
M  V30 10291 H 941.545 4.63877 -1.83355 0
M  V30 10292 H 940.699 6.06687 0.0399244 0
M  V30 10293 H 939.438 4.85915 0.416867 0
M  V30 10294 H 938.443 5.17139 -1.86675 0
M  V30 10295 H 939.668 6.41255 -2.23536 0
M  V30 10296 H 937.614 6.56 0.00380893 0
M  V30 10297 H 937.531 7.40867 -1.50505 0
M  V30 10298 H 938.799 7.78586 -0.377282 0
M  V30 10299 N 943.028 0.824394 1.34319 0
M  V30 10300 C 944.444 0.510336 1.51221 0
M  V30 10301 C 944.644 -0.965201 1.76879 0
M  V30 10302 O 943.7 -1.74961 1.82057 0
M  V30 10303 C 945.013 1.37114 2.6762 0
M  V30 10304 C 946.561 1.36842 2.81502 0
M  V30 10305 C 947.036 2.21374 4.00946 0
M  V30 10306 N 948.527 2.19005 4.08156 0
M  V30 10307 C 949.262 2.81159 4.99737 0
M  V30 10308 N 948.758 3.52309 5.96532 0
M  V30 10309 N 950.551 2.70706 4.9262 0
M  V30 10310 H 942.702 1.77976 1.15924 0
M  V30 10311 H 944.965 0.758503 0.568663 0
M  V30 10312 H 944.671 2.41905 2.55294 0
M  V30 10313 H 944.545 1.03689 3.62669 0
M  V30 10314 H 946.932 0.328284 2.93268 0
M  V30 10315 H 947.013 1.74265 1.87257 0
M  V30 10316 H 946.657 3.25437 3.8994 0
M  V30 10317 H 946.587 1.813 4.94407 0
M  V30 10318 H 949.078 1.67252 3.38874 0
M  V30 10319 H 949.391 3.96977 6.63045 0
M  V30 10320 H 947.736 3.56415 5.96652 0
M  V30 10321 H 950.927 2.14694 4.15962 0
M  V30 10322 H 951.1 3.19431 5.63798 0
M  V30 10323 N 944.506 -1.46559 0.579492 0
M  V30 10324 C 945.416 -2.34066 -0.15816 0
M  V30 10325 C 946.432 -1.49556 -0.88932 0
M  V30 10326 O 947.608 -1.82434 -0.853226 0
M  V30 10327 C 944.673 -3.26683 -1.161 0
M  V30 10328 C 943.734 -4.27092 -0.434855 0
M  V30 10329 C 942.967 -5.15283 -1.38992 0
M  V30 10330 O 943.19 -5.06345 -2.62623 0
M  V30 10331 O 942.124 -5.95099 -0.902253 0
M  V30 10332 H 945.95 -2.98488 0.560234 0
M  V30 10333 H 943.535 -1.45482 0.339918 0
M  V30 10334 H 945.417 -3.8383 -1.73932 0
M  V30 10335 H 944.092 -2.64862 -1.86091 0
M  V30 10336 H 942.999 -3.73641 0.185224 0
M  V30 10337 H 944.332 -4.9169 0.224031 0
M  V30 10338 N 945.984 -0.3171 -1.54377 0
M  V30 10339 C 947.209 0.292311 -2.0533 0
M  V30 10340 C 947.634 1.45503 -1.19207 0
M  V30 10341 O 946.992 1.80197 -0.199721 0
M  V30 10342 C 947.04 0.710787 -3.53525 0
M  V30 10343 O 946.144 1.81387 -3.70368 0
M  V30 10344 H 945.485 0.0539976 -0.661801 0
M  V30 10345 H 948.015 -0.463629 -1.99278 0
M  V30 10346 H 948.025 0.995216 -3.95676 0
M  V30 10347 H 946.7 -0.139668 -4.15665 0
M  V30 10348 H 945.277 1.52875 -3.40123 0
M  V30 10349 N 947.462 1.57535 -0.0451378 0
M  V30 10350 C 948.425 2.1008 0.916461 0
M  V30 10351 C 949.425 1.01913 1.2438 0
M  V30 10352 O 950.615 1.2801 1.18148 0
M  V30 10353 C 947.747 2.58001 2.22818 0
M  V30 10354 H 948.94 2.96334 0.461076 0
M  V30 10355 H 946.493 1.54974 0.203169 0
M  V30 10356 H 947.228 1.75123 2.72951 0
M  V30 10357 H 947.013 3.3704 2.00366 0
M  V30 10358 H 948.503 2.98822 2.9171 0
M  V30 10359 N 948.94 -0.228186 1.55939 0
M  V30 10360 C 950.187 -0.953552 1.78644 0
M  V30 10361 C 950.515 -1.84596 0.61275 0
M  V30 10362 O 949.77 -1.91502 -0.403175 0
M  V30 10363 C 950.069 -1.82924 3.0704 0
M  V30 10364 C 949.735 -1.09062 4.37511 0
M  V30 10365 C 948.397 -0.886565 4.72962 0
M  V30 10366 C 950.749 -0.568533 5.1809 0
M  V30 10367 C 948.077 -0.148413 5.86512 0
M  V30 10368 C 950.429 0.156243 6.32407 0
M  V30 10369 C 949.093 0.371612 6.66465 0
M  V30 10370 H 948.363 -0.348929 0.653704 0
M  V30 10371 H 951.01 -0.222211 1.90206 0
M  V30 10372 H 949.315 -2.62823 2.90571 0
M  V30 10373 H 951.012 -2.3925 3.21808 0
M  V30 10374 H 947.602 -1.25963 4.09672 0
M  V30 10375 H 951.786 -0.713673 4.91142 0
M  V30 10376 H 947.042 0.0287418 6.11393 0
M  V30 10377 H 951.216 0.568333 6.94077 0
M  V30 10378 H 948.843 0.945522 7.54297 0
M  V30 10379 N 950.418 -1.49637 -0.494624 0
M  V30 10380 C 951.348 -1.69692 -1.60396 0
M  V30 10381 C 952.329 -0.545648 -1.61111 0
M  V30 10382 O 953.514 -0.782202 -1.77751 0
M  V30 10383 C 950.644 -1.76934 -2.9885 0
M  V30 10384 C 949.598 -2.91915 -3.13001 0
M  V30 10385 C 948.924 -2.84276 -4.5287 0
M  V30 10386 C 950.224 -4.32764 -2.92426 0
M  V30 10387 H 951.918 -2.6257 -1.43866 0
M  V30 10388 H 949.464 -1.26355 -0.690679 0
M  V30 10389 H 951.417 -1.8955 -3.76362 0
M  V30 10390 H 950.141 -0.806609 -3.16483 0
M  V30 10391 H 948.8 -2.78911 -2.37916 0
M  V30 10392 H 948.448 -1.85897 -4.67388 0
M  V30 10393 H 948.148 -3.61452 -4.63278 0
M  V30 10394 H 949.672 -2.98909 -5.32434 0
M  V30 10395 H 951.086 -4.46415 -3.59703 0
M  V30 10396 H 949.483 -5.1121 -3.143 0
M  V30 10397 H 950.553 -4.46765 -1.88491 0
M  V30 10398 N 951.896 0.746133 -1.38819 0
M  V30 10399 C 953.312 1.0502 -1.20179 0
M  V30 10400 C 953.512 2.01423 -0.0556271 0
M  V30 10401 O 952.568 2.45359 0.59625 0
M  V30 10402 C 953.881 1.62315 -2.53129 0
M  V30 10403 C 955.429 1.74449 -2.59878 0
M  V30 10404 C 955.904 2.35155 -3.93022 0
M  V30 10405 N 957.395 2.42577 -3.94602 0
M  V30 10406 C 958.13 2.9046 -4.94389 0
M  V30 10407 N 957.626 3.38322 -6.04574 0
M  V30 10408 N 959.419 2.89568 -4.81775 0
M  V30 10409 H 951.57 0.106551 -2.12133 0
M  V30 10410 H 953.833 0.109897 -0.941609 0
M  V30 10411 H 953.539 0.98946 -3.37495 0
M  V30 10412 H 953.413 2.61276 -2.72057 0
M  V30 10413 H 955.8 2.36943 -1.75903 0
M  V30 10414 H 955.881 0.741721 -2.4481 0
M  V30 10415 H 955.525 1.73292 -4.77422 0
M  V30 10416 H 955.455 3.36088 -4.05404 0
M  V30 10417 H 957.946 2.08735 -3.15021 0
M  V30 10418 H 958.259 3.73336 -6.76639 0
M  V30 10419 H 956.604 3.3636 -6.08184 0
M  V30 10420 H 959.795 2.51492 -3.94803 0
M  V30 10421 H 959.968 3.26571 -5.59692 0
M  V30 10422 N 953.375 1.23811 0.975125 0
M  V30 10423 C 954.6 1.10109 1.75757 0
M  V30 10424 C 955.025 -0.342922 1.84948 0
M  V30 10425 O 954.383 -1.24814 1.31496 0
M  V30 10426 C 954.431 1.73724 3.15994 0
M  V30 10427 O 953.535 1.00297 4.00018 0
M  V30 10428 H 952.876 0.385627 0.540544 0
M  V30 10429 H 955.406 1.63971 1.22372 0
M  V30 10430 H 955.416 1.79178 3.6655 0
M  V30 10431 H 954.091 2.78794 3.0862 0
M  V30 10432 H 952.668 1.02575 3.58515 0
M  V30 10433 N 954.853 -1.17469 1.05066 0
M  V30 10434 C 955.763 -2.25089 0.661222 0
M  V30 10435 C 956.779 -1.71086 -0.31712 0
M  V30 10436 O 957.955 -2.00685 -0.169534 0
M  V30 10437 C 955.02 -3.46676 0.0406415 0
M  V30 10438 C 954.081 -4.15771 1.06927 0
M  V30 10439 C 953.314 -5.31553 0.478208 0
M  V30 10440 O 953.537 -5.6593 -0.712714 0
M  V30 10441 O 952.471 -5.89574 1.21185 0
M  V30 10442 H 956.297 -2.60685 1.5581 0
M  V30 10443 H 953.882 -1.24744 0.822147 0
M  V30 10444 H 955.764 -4.203 -0.304312 0
M  V30 10445 H 954.439 -3.1288 -0.829909 0
M  V30 10446 H 953.346 -3.44171 1.46619 0
M  V30 10447 H 954.679 -4.53591 1.91092 0
M  V30 10448 N 956.331 -0.831506 -1.3388 0
M  V30 10449 C 957.279 -0.247896 -2.31275 0
M  V30 10450 C 958.273 0.616083 -1.578 0
M  V30 10451 O 959.479 0.506465 -1.72728 0
M  V30 10452 H 955.854 -0.0614293 -0.749487 0
M  V30 10453 H 957.825 -1.08401 -2.78014 0
M  V30 10454 C 956.574 0.568434 -3.43022 0
M  V30 10455 H 955.897 -0.0870654 -3.99705 0
M  V30 10456 H 957.337 0.942751 -4.13386 0
M  V30 10457 C 955.796 1.74431 -2.88228 0
M  V30 10458 O 956.326 2.84278 -2.83811 0
M  V30 10459 N 954.532 1.56382 -2.44935 0
M  V30 10460 H 954.079 0.670255 -2.48727 0
M  V30 10461 H 954.037 2.35208 -2.08625 0
M  V30 10462 N 957.809 1.4625 -0.587256 0
M  V30 10463 C 958.739 2.33132 0.131076 0
M  V30 10464 C 959.72 1.45619 0.879158 0
M  V30 10465 O 960.905 1.74428 0.853723 0
M  V30 10466 C 958.035 3.27975 1.14236 0
M  V30 10467 C 956.989 4.24965 0.508819 0
M  V30 10468 C 956.315 5.09349 1.62689 0
M  V30 10469 C 957.615 5.19322 -0.55694 0
M  V30 10470 H 959.309 2.93442 -0.594333 0
M  V30 10471 H 956.855 1.41106 -0.287263 0
M  V30 10472 H 958.808 3.87614 1.65328 0
M  V30 10473 H 957.532 2.65781 1.8981 0
M  V30 10474 H 956.191 3.66595 0.0189337 0
M  V30 10475 H 955.839 4.43537 2.37242 0
M  V30 10476 H 955.539 5.75036 1.20861 0
M  V30 10477 H 957.063 5.71852 2.14049 0
M  V30 10478 H 958.477 5.73151 -0.130903 0
M  V30 10479 H 956.874 5.93376 -0.895801 0
M  V30 10480 H 957.944 4.62979 -1.44148 0
M  V30 10481 N 959.287 0.325282 1.54207 0
M  V30 10482 C 960.197 -0.548778 2.28091 0
M  V30 10483 C 961.213 -1.12772 1.32508 0
M  V30 10484 O 962.389 -1.14732 1.65525 0
M  V30 10485 C 959.454 -1.69284 3.02562 0
M  V30 10486 C 958.515 -1.14553 4.13734 0
M  V30 10487 C 957.748 -2.23506 4.84645 0
M  V30 10488 O 957.971 -3.43884 4.55082 0
M  V30 10489 O 956.905 -1.88828 5.71513 0
M  V30 10490 H 960.731 0.0512974 3.03657 0
M  V30 10491 H 958.316 0.0909159 1.49123 0
M  V30 10492 H 960.198 -2.35887 3.49192 0
M  V30 10493 H 958.873 -2.27906 2.2987 0
M  V30 10494 H 957.78 -0.444532 3.71449 0
M  V30 10495 H 959.113 -0.60441 4.88475 0
M  V30 10496 N 960.765 -1.57509 0.0534917 0
M  V30 10497 C 961.695 -2.14698 -0.917999 0
M  V30 10498 C 962.676 -1.06924 -1.32292 0
M  V30 10499 O 963.861 -1.34875 -1.39723 0
M  V30 10500 C 960.991 -2.69383 -2.19203 0
M  V30 10501 C 959.945 -3.82161 -1.9271 0
M  V30 10502 C 959.271 -4.23373 -3.26587 0
M  V30 10503 C 960.571 -5.07199 -1.24686 0
M  V30 10504 H 962.265 -2.96125 -0.44165 0
M  V30 10505 H 959.811 -1.42446 -0.210993 0
M  V30 10506 H 961.764 -3.08031 -2.87567 0
M  V30 10507 H 960.488 -1.85151 -2.69048 0
M  V30 10508 H 959.147 -3.43989 -1.26757 0
M  V30 10509 H 958.795 -3.36089 -3.74237 0
M  V30 10510 H 958.495 -4.99385 -3.09658 0
M  V30 10511 H 960.019 -4.64623 -3.96178 0
M  V30 10512 H 961.433 -5.43279 -1.83088 0
M  V30 10513 H 959.83 -5.88369 -1.18076 0
M  V30 10514 H 960.9 -4.84386 -0.223227 0
M  V30 10515 N 962.243 0.219913 -1.56058 0
M  V30 10516 C 963.19 1.27254 -1.92549 0
M  V30 10517 C 964.16 1.46493 -0.782883 0
M  V30 10518 O 965.345 1.60035 -1.03892 0
M  V30 10519 C 962.485 2.61756 -2.24896 0
M  V30 10520 C 961.598 2.50302 -3.52098 0
M  V30 10521 C 960.733 3.77338 -3.73884 0
M  V30 10522 C 959.772 3.60613 -4.94595 0
M  V30 10523 N 958.909 4.79603 -5.12763 0
M  V30 10524 H 963.749 0.954352 -2.82305 0
M  V30 10525 H 961.286 0.459928 -1.39725 0
M  V30 10526 H 963.244 3.40082 -2.4166 0
M  V30 10527 H 961.874 2.91668 -1.38311 0
M  V30 10528 H 960.926 1.63401 -3.43517 0
M  V30 10529 H 962.238 2.33866 -4.40577 0
M  V30 10530 H 961.392 4.64108 -3.90754 0
M  V30 10531 H 960.131 3.96702 -2.83689 0
M  V30 10532 H 959.136 2.72228 -4.77674 0
M  V30 10533 H 960.361 3.42719 -5.86277 0
M  V30 10534 H 958.307 4.99277 -4.2551 0
M  V30 10535 H 958.224 4.65899 -5.95377 0
M  V30 10536 H 959.492 5.67794 -5.34069 0
M  V30 10537 N 963.721 1.49897 0.486681 0
M  V30 10538 C 964.631 1.70379 1.6127 0
M  V30 10539 C 965.647 0.58659 1.63814 0
M  V30 10540 O 966.823 0.863044 1.81971 0
M  V30 10541 C 963.888 1.77911 2.97571 0
M  V30 10542 C 962.949 3.01569 3.0554 0
M  V30 10543 C 962.182 3.08732 4.35339 0
M  V30 10544 O 962.405 2.23099 5.2496 0
M  V30 10545 O 961.339 4.01325 4.48578 0
M  V30 10546 H 965.165 2.65799 1.46916 0
M  V30 10547 H 962.75 1.33808 0.664516 0
M  V30 10548 H 964.632 1.85135 3.78554 0
M  V30 10549 H 963.307 0.856722 3.12157 0
M  V30 10550 H 962.214 2.99854 2.23693 0
M  V30 10551 H 963.547 3.93335 2.95886 0
M  V30 10552 N 965.199 -0.738761 1.39212 0
M  V30 10553 C 966.146 -1.85273 1.37631 0
M  V30 10554 C 967.116 -1.64407 0.236572 0
M  V30 10555 O 968.301 -1.85866 0.431104 0
M  V30 10556 C 965.441 -3.22745 1.22188 0
M  V30 10557 C 964.554 -3.55342 2.45674 0
M  V30 10558 C 963.689 -4.82195 2.22847 0
M  V30 10559 C 962.728 -5.07625 3.42029 0
M  V30 10560 N 961.865 -6.25679 3.18543 0
M  V30 10561 H 966.705 -1.85959 2.32859 0
M  V30 10562 H 964.242 -0.908716 1.15675 0
M  V30 10563 H 966.2 -4.02095 1.11245 0
M  V30 10564 H 964.83 -3.21347 0.30592 0
M  V30 10565 H 963.882 -2.70722 2.67233 0
M  V30 10566 H 965.194 -3.70054 3.34457 0
M  V30 10567 H 964.348 -5.69518 2.09126 0
M  V30 10568 H 963.087 -4.6965 1.31454 0
M  V30 10569 H 962.092 -4.18765 3.56253 0
M  V30 10570 H 963.317 -5.22058 4.34319 0
M  V30 10571 H 961.263 -6.14429 2.2981 0
M  V30 10572 H 961.18 -6.40961 4.0088 0
M  V30 10573 H 962.448 -7.15851 3.08508 0
M  V30 10574 N 966.677 -1.24326 -0.968545 0
M  V30 10575 C 967.61 -0.978121 -2.06175 0
M  V30 10576 C 968.588 0.0878107 -1.62363 0
M  V30 10577 O 969.772 -0.0489472 -1.88436 0
M  V30 10578 C 966.899 -0.475884 -3.3534 0
M  V30 10579 C 965.945 -1.53023 -3.98103 0
M  V30 10580 S 966.778 -3.11131 -4.35841 0
M  V30 10581 C 967.934 -2.62608 -5.68144 0
M  V30 10582 H 968.167 -1.9038 -2.28348 0
M  V30 10583 H 965.7 -1.07701 -1.10633 0
M  V30 10584 H 967.658 -0.192739 -4.10047 0
M  V30 10585 H 966.319 0.429067 -3.11156 0
M  V30 10586 H 965.512 -1.12922 -4.91187 0
M  V30 10587 H 965.114 -1.76334 -3.29822 0
M  V30 10588 H 967.406 -2.05367 -6.45624 0
M  V30 10589 H 968.349 -3.54277 -6.13101 0
M  V30 10590 H 968.757 -2.03063 -5.26712 0
M  V30 10591 N 968.156 1.1691 -1.05688 0
M  V30 10592 C 969.103 2.21095 -0.662246 0
M  V30 10593 C 970.073 1.62623 0.338083 0
M  V30 10594 O 971.258 1.89428 0.228362 0
M  V30 10595 C 968.398 3.45066 -0.0484018 0
M  V30 10596 C 967.511 4.17809 -1.09817 0
M  V30 10597 C 966.646 5.29281 -0.451114 0
M  V30 10598 C 965.685 5.93817 -1.48484 0
M  V30 10599 N 964.822 6.96793 -0.861588 0
M  V30 10600 H 969.662 2.54204 -1.55513 0
M  V30 10601 H 967.199 1.24863 -0.777665 0
M  V30 10602 H 969.157 4.15932 0.324978 0
M  V30 10603 H 967.787 3.12526 0.807918 0
M  V30 10604 H 966.839 3.45608 -1.58932 0
M  V30 10605 H 968.151 4.61907 -1.88265 0
M  V30 10606 H 967.305 6.06695 -0.0244251 0
M  V30 10607 H 966.044 4.8633 0.365306 0
M  V30 10608 H 965.049 5.1513 -1.92149 0
M  V30 10609 H 966.274 6.38848 -2.30325 0
M  V30 10610 H 964.22 6.55967 -0.0657688 0
M  V30 10611 H 964.137 7.39229 -1.58354 0
M  V30 10612 H 965.405 7.78142 -0.45984 0
M  V30 10613 N 969.634 0.838594 1.33437 0
M  V30 10614 C 970.544 0.274048 2.32994 0
M  V30 10615 C 971.56 -0.599776 1.63336 0
M  V30 10616 O 972.736 -0.503963 1.94993 0
M  V30 10617 C 969.801 -0.541804 3.4244 0
M  V30 10618 C 968.862 0.356262 4.27819 0
M  V30 10619 C 968.095 -0.420747 5.32039 0
M  V30 10620 O 968.318 -1.65247 5.45939 0
M  V30 10621 O 967.252 0.205101 6.0155 0
M  V30 10622 H 971.078 1.09846 2.83139 0
M  V30 10623 H 968.663 0.601111 1.36774 0
M  V30 10624 H 970.545 -1.00544 4.0923 0
M  V30 10625 H 969.22 -1.34328 2.94513 0
M  V30 10626 H 968.127 0.867726 3.63897 0
M  V30 10627 H 969.46 1.1225 4.79229 0
M  V30 10628 N 971.112 -1.45937 0.595003 0
M  V30 10629 C 972.042 -2.33198 -0.11871 0
M  V30 10630 C 973.023 -1.46083 -0.871423 0
M  V30 10631 O 974.208 -1.74879 -0.844461 0
M  V30 10632 C 971.338 -3.28576 -1.12495 0
M  V30 10633 C 970.292 -4.25229 -0.486275 0
M  V30 10634 C 969.618 -5.10204 -1.59986 0
M  V30 10635 C 970.918 -5.19019 0.584473 0
M  V30 10636 H 972.612 -2.93122 0.609886 0
M  V30 10637 H 970.158 -1.40951 0.294742 0
M  V30 10638 H 972.111 -3.88485 -1.6327 0
M  V30 10639 H 970.835 -2.66784 -1.88398 0
M  V30 10640 H 969.494 -3.666 0.000507962 0
M  V30 10641 H 969.142 -4.44789 -2.34886 0
M  V30 10642 H 968.842 -5.75669 -1.1781 0
M  V30 10643 H 970.366 -5.7298 -2.11014 0
M  V30 10644 H 971.78 -5.73073 0.161297 0
M  V30 10645 H 970.177 -5.92893 0.927256 0
M  V30 10646 H 971.247 -4.62208 1.46601 0
M  V30 10647 N 972.59 -0.333456 -1.54032 0
M  V30 10648 C 973.553 0.515392 -2.2333 0
M  V30 10649 C 974.553 1.03566 -1.23007 0
M  V30 10650 O 975.743 0.926514 -1.47517 0
M  V30 10651 C 972.875 1.7169 -2.94508 0
M  V30 10652 H 974.068 -0.0905407 -2.99763 0
M  V30 10653 H 971.621 -0.0846651 -1.56071 0
M  V30 10654 H 972.356 2.3618 -2.22237 0
M  V30 10655 H 972.141 1.35115 -3.68085 0
M  V30 10656 H 973.631 2.31922 -3.47278 0
M  V30 10657 N 974.068 1.57479 -0.061844 0
M  V30 10658 C 975.296 1.97429 0.618837 0
M  V30 10659 C 975.711 0.939826 1.63746 0
M  V30 10660 O 975.068 -0.0747173 1.82347 0
M  V30 10661 C 975.119 3.3746 1.29628 0
M  V30 10662 O 974.84 4.36941 0.318431 0
M  V30 10663 C 976.341 3.92228 2.06572 0
M  V30 10664 H 973.561 0.649513 0.168444 0
M  V30 10665 H 976.105 2.04078 -0.131303 0
M  V30 10666 H 974.26 3.31928 1.99757 0
M  V30 10667 H 974.674 5.18313 0.803239 0
M  V30 10668 H 976.148 4.92458 2.49377 0
M  V30 10669 H 976.625 3.28231 2.91824 0
M  V30 10670 H 977.231 4.01131 1.4133 0
M  V30 10671 N 975.546 -0.211634 1.56173 0
M  V30 10672 C 976.774 -0.951184 1.83739 0
M  V30 10673 C 977.189 -1.7754 0.642252 0
M  V30 10674 O 976.546 -1.78302 -0.389174 0
M  V30 10675 C 976.597 -1.86075 3.09933 0
M  V30 10676 O 976.318 -1.06983 4.24837 0
M  V30 10677 C 977.819 -2.71337 3.50559 0
M  V30 10678 H 975.039 -0.278312 0.61056 0
M  V30 10679 H 977.583 -0.223871 2.03271 0
M  V30 10680 H 975.738 -2.54189 2.92347 0
M  V30 10681 H 976.152 -1.68815 4.9659 0
M  V30 10682 H 977.626 -3.30843 4.41868 0
M  V30 10683 H 978.103 -3.44226 2.72773 0
M  V30 10684 H 978.709 -2.0862 3.70618 0
M  V30 10685 N 977.024 -1.50153 -0.478725 0
M  V30 10686 C 978.254 -1.64266 -1.253 0
M  V30 10687 C 978.662 -0.322256 -1.86435 0
M  V30 10688 O 978.005 0.704925 -1.69636 0
M  V30 10689 C 978.067 -2.67017 -2.40712 0
M  V30 10690 C 977.731 -4.10779 -2.00274 0
M  V30 10691 C 978.728 -4.96889 -1.52963 0
M  V30 10692 C 976.413 -4.5665 -2.09228 0
M  V30 10693 C 978.407 -6.26914 -1.15139 0
M  V30 10694 C 976.094 -5.86683 -1.71015 0
M  V30 10695 C 977.092 -6.71641 -1.24048 0
M  V30 10696 O 976.78 -7.99248 -0.863617 0
M  V30 10697 H 976.512 -0.555382 -0.385392 0
M  V30 10698 H 979.066 -1.97078 -0.578751 0
M  V30 10699 H 977.296 -2.29432 -3.11284 0
M  V30 10700 H 978.985 -2.70428 -3.02694 0
M  V30 10701 H 979.751 -4.62669 -1.45474 0
M  V30 10702 H 975.63 -3.90674 -2.44735 0
M  V30 10703 H 979.174 -6.93179 -0.784089 0
M  V30 10704 H 975.071 -6.20426 -1.78162 0
M  V30 10705 H 975.839 -8.12452 -0.993139 0
M  V30 10706 N 978.502 0.731368 -1.39602 0
M  V30 10707 C 979.449 1.84541 -1.38612 0
M  V30 10708 C 980.419 1.64279 -0.245287 0
M  V30 10709 O 981.604 1.85635 -0.440954 0
M  V30 10710 C 978.744 3.22092 -1.23897 0
M  V30 10711 C 977.857 3.54034 -2.47555 0
M  V30 10712 C 976.992 4.81007 -2.25402 0
M  V30 10713 C 976.031 5.05804 -3.44716 0
M  V30 10714 N 975.168 6.23981 -3.21857 0
M  V30 10715 H 980.008 1.84722 -2.33841 0
M  V30 10716 H 977.545 0.902569 -1.16156 0
M  V30 10717 H 979.503 4.01499 -1.13376 0
M  V30 10718 H 978.133 3.2118 -0.322958 0
M  V30 10719 H 977.185 2.69301 -2.68665 0
M  V30 10720 H 978.497 3.68275 -3.36415 0
M  V30 10721 H 977.651 5.68401 -2.12143 0
M  V30 10722 H 976.39 4.68946 -1.33943 0
M  V30 10723 H 975.395 4.1687 -3.58468 0
M  V30 10724 H 976.62 5.19747 -4.37081 0
M  V30 10725 H 974.566 6.13202 -2.33065 0
M  V30 10726 H 974.483 6.38826 -4.04274 0
M  V30 10727 H 975.751 7.14205 -3.123 0
M  V30 10728 N 979.98 1.24838 0.961938 0
M  V30 10729 C 980.912 1.00369 2.06055 0
M  V30 10730 C 981.925 -0.0288583 1.62774 0
M  V30 10731 O 983.114 0.208853 1.77274 0
M  V30 10732 C 980.214 0.493953 3.35281 0
M  V30 10733 C 979.387 1.59097 4.07439 0
M  V30 10734 C 978.446 1.08288 5.14937 0
M  V30 10735 O 977.472 1.77577 5.40791 0
M  V30 10736 N 978.674 -0.0796836 5.80445 0
M  V30 10737 H 981.439 1.94962 2.27618 0
M  V30 10738 H 979 1.15945 1.12997 0
M  V30 10739 H 980.992 0.138675 4.04462 0
M  V30 10740 H 979.562 -0.357851 3.10545 0
M  V30 10741 H 978.782 2.11817 3.32456 0
M  V30 10742 H 980.07 2.32817 4.52409 0
M  V30 10743 H 979.468 -0.658827 5.6185 0
M  V30 10744 H 978.025 -0.376057 6.50714 0
M  V30 10745 N 981.458 -1.16348 1.06306 0
M  V30 10746 C 982.391 -2.19667 0.618197 0
M  V30 10747 C 983.369 -1.58586 -0.359078 0
M  V30 10748 O 984.553 -1.86585 -0.268023 0
M  V30 10749 C 981.68 -3.3857 -0.0937091 0
M  V30 10750 C 980.726 -4.18139 0.840339 0
M  V30 10751 S 981.559 -4.81879 2.33565 0
M  V30 10752 C 982.715 -6.04161 1.63524 0
M  V30 10753 H 982.948 -2.57063 1.49352 0
M  V30 10754 H 980.481 -1.27141 0.876046 0
M  V30 10755 H 982.439 -4.07465 -0.498227 0
M  V30 10756 H 981.1 -2.9954 -0.94523 0
M  V30 10757 H 980.293 -5.03172 0.288781 0
M  V30 10758 H 979.895 -3.54739 1.18474 0
M  V30 10759 H 982.187 -6.70935 0.940904 0
M  V30 10760 H 983.13 -6.63866 2.46347 0
M  V30 10761 H 983.538 -5.53323 1.11778 0
M  V30 10762 N 982.937 -0.845659 -1.3299 0
M  V30 10763 C 983.847 -0.2864 -2.32845 0
M  V30 10764 C 984.863 0.591105 -1.63652 0
M  V30 10765 O 986.039 0.493615 -1.95257 0
M  V30 10766 C 983.104 0.523636 -3.42723 0
M  V30 10767 C 982.165 -0.378945 -4.27624 0
M  V30 10768 C 981.398 0.392526 -5.32255 0
M  V30 10769 O 981.621 1.6235 -5.46808 0
M  V30 10770 O 980.555 -0.237 -6.01433 0
M  V30 10771 H 984.381 -1.11346 -2.82552 0
M  V30 10772 H 981.966 -0.608356 -1.36453 0
M  V30 10773 H 983.848 0.983718 -4.09757 0
M  V30 10774 H 982.523 1.32764 -2.95221 0
M  V30 10775 H 981.43 -0.887012 -3.63432 0
M  V30 10776 H 982.763 -1.1479 -4.78627 0
M  V30 10777 N 984.415 1.45619 -0.602734 0
M  V30 10778 C 985.363 2.32228 0.131484 0
M  V30 10779 C 986.357 1.45681 0.864484 0
M  V30 10780 O 987.563 1.62193 0.7806 0
M  V30 10781 H 983.938 0.7495 0.0612638 0
M  V30 10782 H 985.909 2.91941 -0.617496 0
M  V30 10783 C 984.658 3.29213 1.11866 0
M  V30 10784 H 983.981 3.95801 0.564061 0
M  V30 10785 H 985.421 3.92554 1.60242 0
M  V30 10786 C 983.88 2.56028 2.18978 0
M  V30 10787 O 984.41 2.33806 3.26646 0
M  V30 10788 N 982.616 2.16245 1.94129 0
M  V30 10789 H 982.163 2.34518 1.06579 0
M  V30 10790 H 982.121 1.67601 2.66003 0
M  V30 10791 N 985.893 0.34162 1.53853 0
M  V30 10792 C 987.17 -0.310664 1.93117 0
M  V30 10793 C 987.55 -1.68398 1.273 0
M  V30 10794 O 986.898 -2.24546 0.423225 0
M  V30 10795 C 987.108 -0.384867 3.46871 0
M  V30 10796 C 988.456 -0.636621 4.198 0
M  V30 10797 O 989.48 -0.467061 3.53125 0
M  V30 10798 O 988.339 -0.964962 5.37913 0
M  V30 10799 H 985.433 -0.180881 0.806977 0
M  V30 10800 H 987.979 0.392656 1.65095 0
M  V30 10801 H 986.751 0.57894 3.86994 0
M  V30 10802 H 986.374 -1.13505 3.81054 0
M  V30 10803 N 987.371 -1.57444 0.0701946 0
M  V30 10804 C 988.62 -1.92605 -0.598849 0
M  V30 10805 C 988.933 -0.952058 -1.70866 0
M  V30 10806 O 990.139 -1.19643 -2.43716 0
M  V30 10807 C 988.595 -3.42142 -1.11655 0
M  V30 10808 C 988.203 -4.47984 -0.0378355 0
M  V30 10809 C 989.947 -3.86307 -1.75975 0
M  V30 10810 C 987.854 -5.88652 -0.569495 0
M  V30 10811 H 986.784 -0.718873 -0.22746 0
M  V30 10812 H 989.435 -1.82948 0.14217 0
M  V30 10813 H 987.817 -3.46866 -1.91049 0
M  V30 10814 H 988.991 -4.54874 0.736661 0
M  V30 10815 H 987.306 -4.13277 0.50904 0
M  V30 10816 H 989.903 -4.88784 -2.16782 0
M  V30 10817 H 990.246 -3.23587 -2.61911 0
M  V30 10818 H 990.779 -3.84179 -1.03206 0
M  V30 10819 H 987.518 -6.55013 0.252662 0
M  V30 10820 H 987.038 -5.85285 -1.31155 0
M  V30 10821 H 988.717 -6.38482 -1.04641 0
M  V30 10822 N 988.849 0.203349 -1.56283 0
M  V30 10823 C 989.781 1.27592 -1.90402 0
M  V30 10824 C 990.794 1.4213 -0.79391 0
M  V30 10825 O 991.983 1.42703 -1.07229 0
M  V30 10826 C 989.083 2.64919 -2.11356 0
M  V30 10827 C 988.256 2.72095 -3.42466 0
M  V30 10828 C 987.315 3.9056 -3.52631 0
M  V30 10829 O 986.341 3.78048 -4.25521 0
M  V30 10830 N 987.543 5.0566 -2.85111 0
M  V30 10831 H 990.308 0.986423 -2.83001 0
M  V30 10832 H 987.869 0.39331 -1.5705 0
M  V30 10833 H 989.861 3.42581 -2.15453 0
M  V30 10834 H 988.431 2.86391 -1.25295 0
M  V30 10835 H 987.651 1.8077 -3.50308 0
M  V30 10836 H 988.939 2.73874 -4.28801 0
M  V30 10837 H 988.337 5.18723 -2.25705 0
M  V30 10838 H 986.894 5.81299 -2.94847 0
M  V30 10839 N 990.327 1.50405 0.470755 0
M  V30 10840 C 991.257 1.72222 1.57676 0
M  V30 10841 C 992.238 0.57121 1.60222 0
M  V30 10842 O 993.423 0.810381 1.76484 0
M  V30 10843 C 990.553 1.81666 2.95998 0
M  V30 10844 C 989.507 2.96857 3.08318 0
M  V30 10845 C 988.833 2.91445 4.4829 0
M  V30 10846 C 990.133 4.37361 2.85504 0
M  V30 10847 H 991.827 2.64825 1.39671 0
M  V30 10848 H 989.373 1.27438 0.67049 0
M  V30 10849 H 991.326 1.95514 3.73299 0
M  V30 10850 H 990.05 0.856856 3.1516 0
M  V30 10851 H 988.709 2.82661 2.33449 0
M  V30 10852 H 988.357 1.93309 4.64371 0
M  V30 10853 H 988.057 3.68776 4.57469 0
M  V30 10854 H 989.581 3.07341 5.27611 0
M  V30 10855 H 990.995 4.52081 3.52555 0
M  V30 10856 H 989.392 5.16145 3.06127 0
M  V30 10857 H 990.462 4.49708 1.81359 0
M  V30 10858 N 991.805 -0.723954 1.39988 0
M  V30 10859 C 993.035 -1.51094 1.40905 0
M  V30 10860 C 993.443 -1.89199 0.00476744 0
M  V30 10861 O 992.786 -1.55398 -0.979646 0
M  V30 10862 C 992.848 -2.82114 2.22827 0
M  V30 10863 C 992.512 -2.66379 3.71337 0
M  V30 10864 C 993.509 -2.34192 4.64166 0
M  V30 10865 C 991.194 -2.82905 4.15054 0
M  V30 10866 C 993.188 -2.18729 5.98696 0
M  V30 10867 C 990.875 -2.67059 5.49657 0
M  V30 10868 C 991.873 -2.35018 6.41292 0
M  V30 10869 O 991.561 -2.19284 7.73414 0
M  V30 10870 H 991.293 -0.473142 0.482818 0
M  V30 10871 H 993.847 -0.901321 1.84568 0
M  V30 10872 H 992.077 -3.45377 1.7393 0
M  V30 10873 H 993.766 -3.43789 2.15787 0
M  V30 10874 H 994.532 -2.21065 4.31689 0
M  V30 10875 H 990.411 -3.06834 3.44055 0
M  V30 10876 H 993.955 -1.93641 6.70186 0
M  V30 10877 H 989.852 -2.79768 5.81722 0
M  V30 10878 H 990.62 -2.34269 7.84258 0
M  V30 10879 N 993.283 -1.25346 -0.955304 0
M  V30 10880 C 994.215 -1.0146 -2.0552 0
M  V30 10881 C 995.228 0.0202256 -1.62787 0
M  V30 10882 O 996.417 -0.218251 -1.77161 0
M  V30 10883 C 993.517 -0.511727 -3.35014 0
M  V30 10884 C 992.69 -1.61256 -4.0659 0
M  V30 10885 C 991.749 -1.11017 -5.14356 0
M  V30 10886 O 990.775 -1.80443 -5.39842 0
M  V30 10887 N 991.977 0.0489001 -5.80479 0
M  V30 10888 H 994.742 -1.96166 -2.26581 0
M  V30 10889 H 992.303 -1.16543 -1.12381 0
M  V30 10890 H 994.295 -0.160123 -4.04383 0
M  V30 10891 H 992.865 0.341377 -3.1073 0
M  V30 10892 H 992.085 -2.13577 -3.31328 0
M  V30 10893 H 993.373 -2.35213 -4.51168 0
M  V30 10894 H 992.771 0.629021 -5.62192 0
M  V30 10895 H 991.328 0.341542 -6.50905 0
M  V30 10896 N 994.761 1.15782 -1.06922 0
M  V30 10897 C 995.986 1.90896 -0.810771 0
M  V30 10898 C 996.411 1.77246 0.629714 0
M  V30 10899 O 995.769 1.10215 1.43953 0
M  V30 10900 C 995.817 3.39397 -1.21829 0
M  V30 10901 O 994.921 4.10818 -0.360934 0
M  V30 10902 H 994.262 0.594497 -0.295752 0
M  V30 10903 H 996.792 1.46652 -1.42669 0
M  V30 10904 H 996.802 3.90181 -1.19259 0
M  V30 10905 H 995.477 3.4865 -2.2675 0
M  V30 10906 H 994.054 3.7019 -0.448748 0
M  V30 10907 N 996.239 0.8527 1.3254 0
M  V30 10908 C 997.171 0.253181 2.27797 0
M  V30 10909 C 998.184 -0.573977 1.52346 0
M  V30 10910 O 999.373 -0.398786 1.73988 0
M  V30 10911 C 996.473 -0.661034 3.32391 0
M  V30 10912 C 995.646 0.12984 4.37207 0
M  V30 10913 C 994.705 -0.709837 5.2139 0
M  V30 10914 O 993.731 -0.144056 5.69018 0
M  V30 10915 N 994.933 -2.0249 5.44039 0
M  V30 10916 H 997.698 1.07171 2.79883 0
M  V30 10917 H 995.259 0.712491 1.45379 0
M  V30 10918 H 997.251 -1.22806 3.85617 0
M  V30 10919 H 995.821 -1.38025 2.80478 0
M  V30 10920 H 995.041 0.878289 3.84291 0
M  V30 10921 H 996.329 0.673141 5.04328 0
M  V30 10922 H 995.727 -2.50792 5.0707 0
M  V30 10923 H 994.284 -2.5401 6.00269 0
M  V30 10924 N 997.718 -1.45297 0.610449 0
M  V30 10925 C 998.648 -2.33311 -0.0939698 0
M  V30 10926 C 999.629 -1.46999 -0.85588 0
M  V30 10927 O 1000.81 -1.75764 -0.825865 0
M  V30 10928 C 997.944 -3.29751 -1.09003 0
M  V30 10929 C 996.898 -4.2572 -0.441146 0
M  V30 10930 C 996.224 -5.11873 -1.54566 0
M  V30 10931 C 997.524 -5.1837 0.639489 0
M  V30 10932 H 999.218 -2.92459 0.640941 0
M  V30 10933 H 996.764 -1.40631 0.309675 0
M  V30 10934 H 998.717 -3.90195 -1.59141 0
M  V30 10935 H 997.441 -2.68768 -1.85557 0
M  V30 10936 H 996.1 -3.66579 0.0393908 0
M  V30 10937 H 995.748 -4.47256 -2.30155 0
M  V30 10938 H 995.448 -5.76886 -1.11698 0
M  V30 10939 H 996.972 -5.75185 -2.04925 0
M  V30 10940 H 998.386 -5.7287 0.22207 0
M  V30 10941 H 996.783 -5.91876 0.990089 0
M  V30 10942 H 997.853 -4.60627 1.51495 0
M  V30 10943 N 999.196 -0.349774 -1.5367 0
M  V30 10944 C 1000.11 0.512421 -2.28935 0
M  V30 10945 C 1001.12 1.1065 -1.34286 0
M  V30 10946 O 1002.3 1.12084 -1.67329 0
M  V30 10947 C 999.363 1.64449 -3.05217 0
M  V30 10948 C 998.424 1.07956 -4.15505 0
M  V30 10949 C 997.657 2.15768 -4.88139 0
M  V30 10950 O 997.88 3.366 -4.60496 0
M  V30 10951 O 996.814 1.79712 -5.74445 0
M  V30 10952 H 1000.64 -0.0996001 -3.03537 0
M  V30 10953 H 998.225 -0.114629 -1.4896 0
M  V30 10954 H 1000.11 2.30302 -3.52901 0
M  V30 10955 H 998.782 2.24221 -2.33467 0
M  V30 10956 H 997.689 0.385381 -3.7211 0
M  V30 10957 H 999.022 0.526621 -4.89375 0
M  V30 10958 N 1000.67 1.57404 -0.0785433 0
M  V30 10959 C 1001.64 2.11977 0.871693 0
M  V30 10960 C 1002.64 1.04529 1.2219 0
M  V30 10961 O 1003.83 1.30488 1.15406 0
M  V30 10962 C 1000.96 2.6267 2.17296 0
M  V30 10963 H 1002.15 2.97246 0.398115 0
M  V30 10964 H 999.705 1.5537 0.170251 0
M  V30 10965 H 1000.44 1.80873 2.69175 0
M  V30 10966 H 1000.22 3.41214 1.93171 0
M  V30 10967 H 1001.71 3.04943 2.85306 0
M  V30 10968 N 1002.15 -0.195058 1.56388 0
M  V30 10969 C 1003.1 -1.24175 1.94549 0
M  V30 10970 C 1004.07 -1.45229 0.806089 0
M  V30 10971 O 1005.25 -1.58362 1.06425 0
M  V30 10972 C 1002.39 -2.58145 2.29031 0
M  V30 10973 C 1001.51 -2.44669 3.56035 0
M  V30 10974 C 1000.64 -3.71342 3.7984 0
M  V30 10975 C 999.681 -3.52699 5.0027 0
M  V30 10976 N 998.818 -4.71385 5.20328 0
M  V30 10977 H 1003.66 -0.909319 2.83788 0
M  V30 10978 H 1001.19 -0.437641 1.40439 0
M  V30 10979 H 1003.15 -3.36195 2.4704 0
M  V30 10980 H 1001.78 -2.8943 1.42933 0
M  V30 10981 H 1000.83 -1.57916 3.46073 0
M  V30 10982 H 1002.15 -2.26827 4.44242 0
M  V30 10983 H 1001.3 -4.57832 3.98088 0
M  V30 10984 H 1000.04 -3.92138 2.89964 0
M  V30 10985 H 999.045 -2.64594 4.81944 0
M  V30 10986 H 1000.27 -3.33349 5.91655 0
M  V30 10987 H 998.216 -4.92444 4.33399 0
M  V30 10988 H 998.133 -4.56368 6.02714 0
M  V30 10989 H 999.401 -5.59226 5.43035 0
M  V30 10990 N 1003.63 -1.50653 -0.462772 0
M  V30 10991 C 1004.58 -1.70122 -1.55971 0
M  V30 10992 C 1005.55 -0.542581 -1.56988 0
M  V30 10993 O 1006.73 -0.774114 -1.74391 0
M  V30 10994 C 1003.87 -1.80899 -2.93887 0
M  V30 10995 C 1002.98 -3.08318 -3.02595 0
M  V30 10996 C 1002.12 -3.09841 -4.31477 0
M  V30 10997 C 1001.16 -4.3168 -4.33957 0
M  V30 10998 N 1000.3 -4.30894 -5.54323 0
M  V30 10999 H 1005.14 -2.63768 -1.38674 0
M  V30 11000 H 1002.67 -1.30746 -0.674091 0
M  V30 11001 H 1004.63 -1.85128 -3.73876 0
M  V30 11002 H 1003.26 -0.906854 -3.098 0
M  V30 11003 H 1002.31 -3.13521 -2.15427 0
M  V30 11004 H 1003.62 -3.98282 -3.00288 0
M  V30 11005 H 1002.78 -3.12845 -5.1982 0
M  V30 11006 H 1001.52 -2.17722 -4.36404 0
M  V30 11007 H 1000.52 -4.28879 -3.4401 0
M  V30 11008 H 1001.75 -5.25035 -4.30715 0
M  V30 11009 H 999.694 -3.41633 -5.6002 0
M  V30 11010 H 999.611 -5.14636 -5.53792 0
M  V30 11011 H 1000.88 -4.38056 -6.44769 0
M  V30 11012 N 1005.11 0.71652 -1.4037 0
M  V30 11013 C 1006.06 1.8306 -1.40562 0
M  V30 11014 C 1007.03 1.64009 -0.262697 0
M  V30 11015 O 1008.21 1.85157 -0.460619 0
M  V30 11016 C 1005.35 3.2076 -1.27307 0
M  V30 11017 C 1004.46 3.51389 -2.51296 0
M  V30 11018 C 1003.6 4.78589 -2.30491 0
M  V30 11019 C 1002.64 5.02119 -3.50061 0
M  V30 11020 N 1001.77 6.20533 -3.28457 0
M  V30 11021 H 1006.61 1.82231 -2.35788 0
M  V30 11022 H 1004.15 0.890198 -1.17106 0
M  V30 11023 H 1006.11 4.00274 -1.17628 0
M  V30 11024 H 1004.74 3.2082 -0.357005 0
M  V30 11025 H 1003.79 2.66436 -2.71507 0
M  V30 11026 H 1005.1 3.64686 -3.40302 0
M  V30 11027 H 1004.26 5.66119 -2.1816 0
M  V30 11028 H 1003 4.67499 -1.38909 0
M  V30 11029 H 1002 4.13044 -3.6287 0
M  V30 11030 H 1003.23 5.15082 -4.42569 0
M  V30 11031 H 1001.17 6.10695 -2.39556 0
M  V30 11032 H 1001.09 6.34502 -4.11027 0
M  V30 11033 H 1002.36 7.10853 -3.19857 0
M  V30 11034 N 1006.59 1.25851 0.948643 0
M  V30 11035 C 1007.52 1.0108 2.04593 0
M  V30 11036 C 1008.5 -0.0619691 1.62482 0
M  V30 11037 O 1009.68 0.0789196 1.88335 0
M  V30 11038 C 1006.81 0.529174 3.34541 0
M  V30 11039 C 1005.85 1.59337 3.95618 0
M  V30 11040 S 1006.69 3.18026 4.30836 0
M  V30 11041 C 1007.84 2.71613 5.63895 0
M  V30 11042 H 1008.08 1.93988 2.2529 0
M  V30 11043 H 1005.61 1.09448 1.08906 0
M  V30 11044 H 1007.57 0.25795 4.09689 0
M  V30 11045 H 1006.23 -0.37951 3.11799 0
M  V30 11046 H 1005.42 1.20722 4.89328 0
M  V30 11047 H 1005.02 1.81559 3.26975 0
M  V30 11048 H 1007.32 2.15612 6.42275 0
M  V30 11049 H 1008.26 3.63986 6.07387 0
M  V30 11050 H 1008.67 2.11417 5.23415 0
M  V30 11051 N 1008.06 -1.15214 1.07534 0
M  V30 11052 C 1009 -2.19634 0.655261 0
M  V30 11053 C 1010.01 -1.60139 -0.293165 0
M  V30 11054 O 1011.2 -1.78311 -0.0821957 0
M  V30 11055 C 1008.3 -3.38851 -0.0578281 0
M  V30 11056 C 1007.47 -4.27888 0.90725 0
M  V30 11057 C 1006.53 -5.25692 0.231115 0
M  V30 11058 O 1005.56 -5.62469 0.872746 0
M  V30 11059 N 1006.76 -5.71424 -1.0225 0
M  V30 11060 H 1009.52 -2.56292 1.55353 0
M  V30 11061 H 1007.08 -1.30347 0.960271 0
M  V30 11062 H 1009.08 -4.01334 -0.520874 0
M  V30 11063 H 1007.65 -3.00593 -0.858071 0
M  V30 11064 H 1006.87 -3.62475 1.54937 0
M  V30 11065 H 1008.15 -4.84246 1.56151 0
M  V30 11066 H 1007.55 -5.43659 -1.56369 0
M  V30 11067 H 1006.11 -6.35938 -1.42919 0
M  V30 11068 N 1009.54 -0.859717 -1.32086 0
M  V30 11069 C 1010.79 -0.466271 -1.97367 0
M  V30 11070 C 1011.12 0.976728 -1.6785 0
M  V30 11071 O 1010.4 1.68618 -0.969449 0
M  V30 11072 C 1010.68 -0.711851 -3.52994 0
M  V30 11073 C 1010.53 -2.20364 -3.92122 0
M  V30 11074 C 1011.85 -0.17156 -4.39765 0
M  V30 11075 H 1008.97 -0.170883 -0.716916 0
M  V30 11076 H 1011.61 -1.07907 -1.56384 0
M  V30 11077 H 1009.76 -0.190258 -3.88034 0
M  V30 11078 H 1011.43 -2.7917 -3.67236 0
M  V30 11079 H 1009.68 -2.68019 -3.41099 0
M  V30 11080 H 1010.35 -2.32615 -5.00594 0
M  V30 11081 H 1012.82 -0.617665 -4.1149 0
M  V30 11082 H 1011.7 -0.372921 -5.47632 0
M  V30 11083 H 1011.96 0.925959 -4.32294 0
M  V30 11084 N 1011.02 1.44971 -0.618145 0
M  V30 11085 C 1012.3 1.95539 -0.0489895 0
M  V30 11086 C 1012.68 1.5604 1.42179 0
M  V30 11087 O 1012.03 0.82809 2.12967 0
M  V30 11088 C 1012.24 3.48044 -0.258193 0
M  V30 11089 C 1013.58 4.24354 -0.144541 0
M  V30 11090 O 1014.61 3.55699 -0.18887 0
M  V30 11091 O 1013.47 5.46486 -0.038519 0
M  V30 11092 H 1010.56 0.826466 0.0297256 0
M  V30 11093 H 1013.11 1.55086 -0.688944 0
M  V30 11094 H 1011.88 3.69798 -1.27926 0
M  V30 11095 H 1011.5 3.95412 0.416522 0
M  V30 11096 N 1012.5 0.357919 1.53482 0
M  V30 11097 C 1013.43 -0.484231 2.28424 0
M  V30 11098 C 1014.41 -1.09046 1.30548 0
M  V30 11099 O 1015.59 -1.10916 1.59409 0
M  V30 11100 C 1012.72 -1.62803 3.06778 0
M  V30 11101 C 1011.68 -1.14943 4.12277 0
M  V30 11102 C 1011 -2.38287 4.78669 0
M  V30 11103 C 1012.3 -0.239627 5.2175 0
M  V30 11104 H 1014 0.140979 2.99068 0
M  V30 11105 H 1011.54 0.069244 1.43833 0
M  V30 11106 H 1013.5 -2.22374 3.57949 0
M  V30 11107 H 1012.22 -2.28036 2.3381 0
M  V30 11108 H 1010.88 -0.576442 3.6204 0
M  V30 11109 H 1010.53 -3.01959 4.02281 0
M  V30 11110 H 1010.23 -2.06939 5.49955 0
M  V30 11111 H 1011.75 -2.98558 5.32631 0
M  V30 11112 H 1013.17 -0.742597 5.6847 0
M  V30 11113 H 1011.56 -0.0173747 6.00097 0
M  V30 11114 H 1012.63 0.720333 4.7952 0
M  V30 11115 N 1013.98 -1.5736 0.0868897 0
M  V30 11116 C 1014.89 -2.17087 -0.889402 0
M  V30 11117 C 1015.9 -1.13809 -1.31619 0
M  V30 11118 O 1017.08 -1.46143 -1.38579 0
M  V30 11119 C 1014.14 -2.73286 -2.13344 0
M  V30 11120 C 1013.2 -3.91491 -1.76164 0
M  V30 11121 C 1012.44 -4.45 -2.94637 0
M  V30 11122 O 1012.66 -3.97467 -4.09116 0
M  V30 11123 O 1011.59 -5.36133 -2.73579 0
M  V30 11124 H 1015.42 -3.00902 -0.411275 0
M  V30 11125 H 1013.01 -1.4877 -0.137015 0
M  V30 11126 H 1014.89 -3.0924 -2.86266 0
M  V30 11127 H 1013.56 -1.92521 -2.60225 0
M  V30 11128 H 1012.47 -3.60363 -1.00447 0
M  V30 11129 H 1013.8 -4.73593 -1.34053 0
M  V30 11130 N 1015.45 0.186762 -1.56489 0
M  V30 11131 C 1016.4 1.23141 -1.95205 0
M  V30 11132 C 1017.37 1.44799 -0.81378 0
M  V30 11133 O 1018.56 1.57795 -1.07263 0
M  V30 11134 C 1015.7 2.56926 -2.30397 0
M  V30 11135 C 1014.81 2.42777 -3.57328 0
M  V30 11136 C 1013.94 3.69323 -3.81804 0
M  V30 11137 C 1012.98 3.50041 -5.02133 0
M  V30 11138 N 1012.12 4.68619 -5.2282 0
M  V30 11139 H 1016.96 0.894256 -2.84266 0
M  V30 11140 H 1014.5 0.430187 -1.40669 0
M  V30 11141 H 1016.46 3.3488 -2.4882 0
M  V30 11142 H 1015.09 2.88668 -1.44466 0
M  V30 11143 H 1014.14 1.56078 -3.46906 0
M  V30 11144 H 1015.45 2.24468 -4.45439 0
M  V30 11145 H 1014.6 4.55715 -4.00511 0
M  V30 11146 H 1013.34 3.90595 -2.92039 0
M  V30 11147 H 1012.35 2.62034 -4.8334 0
M  V30 11148 H 1013.57 3.30206 -5.93414 0
M  V30 11149 H 1011.52 4.90139 -4.36005 0
M  V30 11150 H 1011.44 4.53165 -6.05126 0
M  V30 11151 H 1012.7 5.56338 -5.45993 0
M  V30 11152 N 1016.93 1.50896 0.454776 0
M  V30 11153 C 1017.84 1.73762 1.5762 0
M  V30 11154 C 1018.86 0.621206 1.62533 0
M  V30 11155 O 1020.03 0.901449 1.801 0
M  V30 11156 C 1017.1 1.84183 2.9373 0
M  V30 11157 C 1016.16 3.07982 2.99075 0
M  V30 11158 C 1015.39 3.17896 4.28693 0
M  V30 11159 O 1015.62 2.34184 5.20109 0
M  V30 11160 O 1014.55 4.10749 4.39964 0
M  V30 11161 H 1018.38 2.68856 1.41245 0
M  V30 11162 H 1015.96 1.35187 0.635984 0
M  V30 11163 H 1017.84 1.93123 3.74542 0
M  V30 11164 H 1016.52 0.922742 3.10269 0
M  V30 11165 H 1015.43 3.04531 2.17282 0
M  V30 11166 H 1016.76 3.99523 2.87476 0
M  V30 11167 N 1018.41 -0.709066 1.40748 0
M  V30 11168 C 1019.34 -1.83583 1.4429 0
M  V30 11169 C 1020.32 -1.67378 0.303067 0
M  V30 11170 O 1021.51 -1.87312 0.512612 0
M  V30 11171 C 1018.64 -3.21599 1.31116 0
M  V30 11172 C 1017.59 -3.52486 2.4277 0
M  V30 11173 C 1016.92 -4.89716 2.14668 0
M  V30 11174 C 1018.22 -3.52824 3.85113 0
M  V30 11175 H 1019.91 -1.80876 2.38588 0
M  V30 11176 H 1017.46 -0.868795 1.14839 0
M  V30 11177 H 1019.41 -4.00123 1.32209 0
M  V30 11178 H 1018.13 -3.24898 0.332965 0
M  V30 11179 H 1016.79 -2.76305 2.40937 0
M  V30 11180 H 1016.44 -4.89625 1.15224 0
M  V30 11181 H 1016.14 -5.11347 2.89478 0
M  V30 11182 H 1017.66 -5.70566 2.17455 0
M  V30 11183 H 1019.08 -4.21377 3.88734 0
M  V30 11184 H 1017.48 -3.85984 4.59496 0
M  V30 11185 H 1018.55 -2.52073 4.14231 0
M  V30 11186 N 1019.89 -1.26353 -0.941956 0
M  V30 11187 C 1020.82 -1.03634 -2.04432 0
M  V30 11188 C 1021.83 0.00295864 -1.628 0
M  V30 11189 O 1023.02 -0.237029 -1.76919 0
M  V30 11190 C 1020.12 -0.547231 -3.34453 0
M  V30 11191 C 1019.3 -1.65559 -4.04857 0
M  V30 11192 C 1018.36 -1.16466 -5.13149 0
M  V30 11193 O 1017.38 -1.86158 -5.37898 0
M  V30 11194 N 1018.58 -0.0126703 -5.80499 0
M  V30 11195 H 1021.35 -1.98558 -2.24488 0
M  V30 11196 H 1018.91 -1.17728 -1.11138 0
M  V30 11197 H 1020.9 -0.203004 -4.04191 0
M  V30 11198 H 1019.47 0.308401 -3.11075 0
M  V30 11199 H 1018.69 -2.17079 -3.29044 0
M  V30 11200 H 1019.98 -2.39985 -4.48647 0
M  V30 11201 H 1019.38 0.569358 -5.62828 0
M  V30 11202 H 1017.93 0.272486 -6.5123 0
M  V30 11203 N 1021.37 1.14642 -1.08144 0
M  V30 11204 C 1022.59 1.90025 -0.830972 0
M  V30 11205 C 1023.02 1.77904 0.610879 0
M  V30 11206 O 1022.38 1.11735 1.42776 0
M  V30 11207 C 1022.42 3.38085 -1.25422 0
M  V30 11208 O 1021.53 4.10412 -0.404486 0
M  V30 11209 H 1020.87 0.591327 -0.302041 0
M  V30 11210 H 1023.4 1.4513 -1.44216 0
M  V30 11211 H 1023.41 3.88894 -1.23391 0
M  V30 11212 H 1022.08 3.46226 -2.30435 0
M  V30 11213 H 1020.66 3.69693 -0.487987 0
M  V30 11214 N 1022.85 0.866709 1.31628 0
M  V30 11215 C 1023.81 0.325041 2.26883 0
M  V30 11216 C 1024.81 -0.522133 1.52087 0
M  V30 11217 O 1026 -0.331908 1.71009 0
M  V30 11218 C 1023.13 -0.538756 3.36616 0
M  V30 11219 H 1024.32 1.16592 2.76308 0
M  V30 11220 H 1021.88 0.642029 1.42505 0
M  V30 11221 H 1022.61 -1.40096 2.92478 0
M  V30 11222 H 1022.4 0.0678115 3.92041 0
M  V30 11223 H 1023.89 -0.910123 4.07562 0
M  V30 11224 N 1024.32 -1.44642 0.625825 0
M  V30 11225 C 1025.57 -2.02094 0.128201 0
M  V30 11226 C 1025.9 -1.49181 -1.24801 0
M  V30 11227 O 1025.15 -0.663965 -1.84092 0
M  V30 11228 C 1025.45 -3.57352 0.0584381 0
M  V30 11229 C 1025.12 -4.29496 1.37272 0
M  V30 11230 C 1023.78 -4.48922 1.7327 0
M  V30 11231 C 1026.13 -4.70586 2.2405 0
M  V30 11232 C 1023.46 -5.06697 2.95762 0
M  V30 11233 C 1025.81 -5.29717 3.45807 0
M  V30 11234 C 1024.48 -5.47363 3.82034 0
M  V30 11235 H 1023.75 -0.739514 0.0469122 0
M  V30 11236 H 1026.39 -1.73475 0.811083 0
M  V30 11237 H 1024.7 -3.85354 -0.707791 0
M  V30 11238 H 1026.4 -3.9953 -0.34303 0
M  V30 11239 H 1022.99 -4.14702 1.08258 0
M  V30 11240 H 1027.17 -4.55295 1.97535 0
M  V30 11241 H 1022.43 -5.18546 3.23913 0
M  V30 11242 H 1026.6 -5.60507 4.13286 0
M  V30 11243 H 1024.23 -5.91898 4.77033 0
M  V30 11244 N 1025.8 -0.366053 -1.5329 0
M  V30 11245 C 1026.75 0.495319 -2.27265 0
M  V30 11246 C 1027.74 1.08298 -1.30261 0
M  V30 11247 O 1028.95 1.02613 -1.47887 0
M  V30 11248 H 1025.32 0.178454 -0.730519 0
M  V30 11249 H 1027.3 -0.150354 -2.98021 0
M  V30 11250 C 1026.04 1.62283 -3.07505 0
M  V30 11251 H 1025.37 1.17993 -3.81992 0
M  V30 11252 H 1026.81 2.20024 -3.62444 0
M  V30 11253 C 1025.27 2.56542 -2.18375 0
M  V30 11254 O 1025.8 3.59371 -1.79486 0
M  V30 11255 N 1024 2.25742 -1.82999 0
M  V30 11256 H 1023.55 1.42159 -2.14822 0
M  V30 11257 H 1023.51 2.89064 -1.2365 0
M  V30 11258 N 1027.28 1.57312 -0.0952337 0
M  V30 11259 C 1028.19 2.17556 0.877877 0
M  V30 11260 C 1029.21 1.14505 1.31014 0
M  V30 11261 O 1030.38 1.46876 1.37802 0
M  V30 11262 C 1027.45 2.74413 2.11892 0
M  V30 11263 C 1026.51 3.92419 1.74085 0
M  V30 11264 C 1025.74 4.46556 2.92273 0
M  V30 11265 O 1025.96 3.99631 4.07002 0
M  V30 11266 O 1024.9 5.37576 2.70732 0
M  V30 11267 H 1028.72 3.01116 0.395312 0
M  V30 11268 H 1026.31 1.48841 0.129123 0
M  V30 11269 H 1028.19 3.10754 2.84622 0
M  V30 11270 H 1026.87 1.93899 2.59201 0
M  V30 11271 H 1025.77 3.6089 0.985346 0
M  V30 11272 H 1027.11 4.74298 1.31539 0
M  V30 11273 N 1028.76 -0.17846 1.56586 0
M  V30 11274 C 1030.01 -0.894502 1.8078 0
M  V30 11275 C 1030.32 -1.8372 0.67129 0
M  V30 11276 O 1031.53 -2.59509 0.797971 0
M  V30 11277 C 1029.98 -1.64109 3.20306 0
M  V30 11278 C 1029.59 -0.742387 4.41806 0
M  V30 11279 C 1031.33 -2.34578 3.53798 0
M  V30 11280 C 1029.24 -1.4888 5.72354 0
M  V30 11281 H 1028.17 -0.33776 0.674117 0
M  V30 11282 H 1030.82 -0.14752 1.82906 0
M  V30 11283 H 1029.2 -2.43257 3.12477 0
M  V30 11284 H 1030.38 0.011615 4.60799 0
M  V30 11285 H 1028.69 -0.147705 4.16138 0
M  V30 11286 H 1031.29 -2.91004 4.48577 0
M  V30 11287 H 1031.63 -3.09572 2.78336 0
M  V30 11288 H 1032.17 -1.62381 3.63149 0
M  V30 11289 H 1028.9 -0.781325 6.50827 0
M  V30 11290 H 1028.42 -2.21631 5.57351 0
M  V30 11291 H 1030.1 -2.03819 6.14058 0
M  V30 11292 N 1030.24 -1.51135 -0.446768 0
M  V30 11293 C 1031.46 -1.67129 -1.21965 0
M  V30 11294 C 1031.88 -0.36467 -1.85245 0
M  V30 11295 O 1031.24 0.655908 -1.70306 0
M  V30 11296 C 1031.29 -2.78016 -2.31061 0
M  V30 11297 O 1031.01 -4.03615 -1.70371 0
M  V30 11298 C 1032.51 -3.05197 -3.21511 0
M  V30 11299 H 1029.73 -0.561111 -0.367961 0
M  V30 11300 H 1032.27 -1.97499 -0.530517 0
M  V30 11301 H 1030.43 -2.50272 -2.95707 0
M  V30 11302 H 1030.84 -4.65126 -2.424 0
M  V30 11303 H 1032.32 -3.8639 -3.94216 0
M  V30 11304 H 1032.79 -2.17228 -3.81718 0
M  V30 11305 H 1033.4 -3.34565 -2.62577 0
M  V30 11306 N 1031.71 0.701592 -1.41122 0
M  V30 11307 C 1032.66 1.81559 -1.42495 0
M  V30 11308 C 1033.63 1.63722 -0.280078 0
M  V30 11309 O 1034.82 1.84658 -0.480231 0
M  V30 11310 C 1031.96 3.19392 -1.30702 0
M  V30 11311 C 1031.07 3.48704 -2.55009 0
M  V30 11312 C 1030.2 4.76118 -2.35554 0
M  V30 11313 C 1029.24 4.98378 -3.55367 0
M  V30 11314 N 1028.38 6.17014 -3.3502 0
M  V30 11315 H 1033.22 1.7972 -2.37707 0
M  V30 11316 H 1030.76 0.877727 -1.18044 0
M  V30 11317 H 1032.71 3.99004 -1.21867 0
M  V30 11318 H 1031.34 3.20423 -0.391012 0
M  V30 11319 H 1030.4 2.63542 -2.74317 0
M  V30 11320 H 1031.71 3.61057 -3.44151 0
M  V30 11321 H 1030.86 5.63774 -2.24152 0
M  V30 11322 H 1029.6 4.66 -1.43859 0
M  V30 11323 H 1028.61 4.09172 -3.6723 0
M  V30 11324 H 1029.83 5.10359 -4.48007 0
M  V30 11325 H 1027.78 6.0812 -2.4602 0
M  V30 11326 H 1027.69 6.30107 -4.17733 0
M  V30 11327 H 1028.96 7.0742 -3.27379 0
M  V30 11328 N 1033.19 1.2685 0.935242 0
M  V30 11329 C 1034.12 1.1143 2.05196 0
M  V30 11330 C 1035.1 0.0178362 1.70091 0
M  V30 11331 O 1036.29 0.190951 1.93259 0
M  V30 11332 C 1033.42 0.752779 3.39044 0
M  V30 11333 C 1032.37 1.80164 3.88233 0
M  V30 11334 C 1031.7 1.29428 5.18799 0
M  V30 11335 C 1033 3.20431 4.12457 0
M  V30 11336 H 1034.69 2.04845 2.18355 0
M  V30 11337 H 1032.24 0.986276 1.04922 0
M  V30 11338 H 1034.19 0.631757 4.16637 0
M  V30 11339 H 1032.91 -0.217075 3.25878 0
M  V30 11340 H 1031.57 1.91144 3.12825 0
M  V30 11341 H 1031.22 0.3141 5.02018 0
M  V30 11342 H 1030.92 1.99546 5.5268 0
M  V30 11343 H 1032.45 1.18605 5.9897 0
M  V30 11344 H 1033.86 3.12495 4.80645 0
M  V30 11345 H 1032.26 3.88193 4.57631 0
M  V30 11346 H 1033.33 3.66046 3.18023 0
M  V30 11347 N 1034.67 -1.14067 1.0875 0
M  V30 11348 C 1035.9 -1.89041 0.840902 0
M  V30 11349 C 1036.31 -1.78768 -0.60725 0
M  V30 11350 O 1035.67 -1.14945 -1.41753 0
M  V30 11351 C 1035.72 -3.38891 1.25838 0
M  V30 11352 O 1035.44 -3.48886 2.64972 0
M  V30 11353 C 1036.94 -4.30852 1.04315 0
M  V30 11354 H 1034.16 -0.598685 0.303014 0
M  V30 11355 H 1036.71 -1.44438 1.44769 0
M  V30 11356 H 1034.86 -3.81103 0.695627 0
M  V30 11357 H 1035.28 -4.41989 2.82393 0
M  V30 11358 H 1036.75 -5.34353 1.38461 0
M  V30 11359 H 1037.23 -4.39196 -0.0195784 0
M  V30 11360 H 1037.83 -3.944 1.59151 0
M  V30 11361 N 1036.15 -0.873678 -1.31166 0
M  V30 11362 C 1037.37 -0.500242 -2.01277 0
M  V30 11363 C 1037.8 0.900811 -1.65127 0
M  V30 11364 O 1037.16 1.59504 -0.861862 0
M  V30 11365 C 1037.2 -0.668976 -3.5434 0
M  V30 11366 O 1036.31 0.290096 -4.11378 0
M  V30 11367 H 1035.65 -0.198507 -0.633633 0
M  V30 11368 H 1038.18 -1.17811 -1.67277 0
M  V30 11369 H 1038.19 -0.563673 -4.04088 0
M  V30 11370 H 1036.86 -1.69055 -3.79991 0
M  V30 11371 H 1035.44 0.139437 -3.72639 0
M  V30 11372 N 1037.63 1.44308 -0.633487 0
M  V30 11373 C 1038.56 2.33431 0.0568402 0
M  V30 11374 C 1039.54 1.48342 0.832386 0
M  V30 11375 O 1040.72 1.77056 0.797798 0
M  V30 11376 C 1037.85 3.31443 1.03743 0
M  V30 11377 C 1036.81 4.26368 0.373362 0
M  V30 11378 C 1036.13 5.14267 1.46403 0
M  V30 11379 C 1037.43 5.17287 -0.721876 0
M  V30 11380 H 1039.13 2.91402 -0.687388 0
M  V30 11381 H 1036.67 1.4012 -0.332009 0
M  V30 11382 H 1038.63 3.92677 1.52913 0
M  V30 11383 H 1037.35 2.71686 1.81258 0
M  V30 11384 H 1036.01 3.6647 -0.0977053 0
M  V30 11385 H 1035.66 4.50861 2.23011 0
M  V30 11386 H 1035.36 5.7859 1.02506 0
M  V30 11387 H 1036.88 5.78373 1.95748 0
M  V30 11388 H 1038.29 5.72444 -0.313181 0
M  V30 11389 H 1036.69 5.90226 -1.08413 0
M  V30 11390 H 1037.76 4.58159 -1.58804 0
M  V30 11391 N 1039.1 0.374177 1.53094 0
M  V30 11392 C 1040.35 -0.213981 2.00562 0
M  V30 11393 C 1040.67 -1.4916 1.26533 0
M  V30 11394 O 1041.87 -2.15889 1.64634 0
M  V30 11395 C 1040.33 -0.431876 3.57299 0
M  V30 11396 C 1039.94 0.831615 4.40214 0
M  V30 11397 C 1041.68 -0.977222 4.13099 0
M  V30 11398 C 1039.59 0.582831 5.88521 0
M  V30 11399 H 1038.52 -0.0837386 0.749336 0
M  V30 11400 H 1041.17 0.494245 1.76719 0
M  V30 11401 H 1039.55 -1.20158 3.7733 0
M  V30 11402 H 1040.72 1.60477 4.31953 0
M  V30 11403 H 1039.04 1.30081 3.9556 0
M  V30 11404 H 1041.64 -1.17881 5.21544 0
M  V30 11405 H 1041.98 -1.94189 3.68234 0
M  V30 11406 H 1042.51 -0.267473 3.969 0
M  V30 11407 H 1039.25 1.51807 6.37679 0
M  V30 11408 H 1038.77 -0.151666 5.99608 0
M  V30 11409 H 1040.45 0.211604 6.46654 0
M  V30 11410 N 1040.58 -1.57259 0.103575 0
M  V30 11411 C 1041.86 -1.86143 -0.600852 0
M  V30 11412 C 1042.24 -1.00198 -1.85805 0
M  V30 11413 O 1041.59 -0.0766791 -2.28371 0
M  V30 11414 C 1041.8 -3.36978 -0.908108 0
M  V30 11415 C 1043.15 -4.05228 -1.26788 0
M  V30 11416 O 1044.17 -3.41908 -0.998859 0
M  V30 11417 O 1043.03 -5.16971 -1.7721 0
M  V30 11418 H 1040.12 -0.770064 -0.301547 0
M  V30 11419 H 1042.67 -1.69147 0.136914 0
M  V30 11420 H 1041.44 -3.91296 -0.0165615 0
M  V30 11421 H 1041.06 -3.5935 -1.70156 0
M  V30 11422 N 1042.06 0.170153 -1.56679 0
M  V30 11423 C 1043.31 0.884841 -1.817 0
M  V30 11424 C 1043.63 1.82731 -0.680763 0
M  V30 11425 O 1042.9 1.936 0.299294 0
M  V30 11426 H 1041.48 0.329738 -0.670285 0
M  V30 11427 H 1044.14 0.169691 -1.9416 0
M  V30 11428 H 1043.24 1.46104 -2.7579 0
M  V30 11429 N 1043.54 1.5137 0.438746 0
M  V30 11430 C 1044.49 1.72582 1.53245 0
M  V30 11431 C 1045.46 0.567488 1.56105 0
M  V30 11432 O 1046.64 0.80176 1.73137 0
M  V30 11433 C 1043.78 1.85551 2.90972 0
M  V30 11434 C 1042.89 3.13094 2.97652 0
M  V30 11435 C 1042.03 3.16666 4.26493 0
M  V30 11436 C 1041.07 4.38529 4.27035 0
M  V30 11437 N 1040.2 4.39659 5.47398 0
M  V30 11438 H 1045.04 2.65941 1.3446 0
M  V30 11439 H 1042.58 1.31801 0.653206 0
M  V30 11440 H 1044.54 1.91053 3.70884 0
M  V30 11441 H 1043.17 0.956025 3.08318 0
M  V30 11442 H 1042.22 3.16909 2.10412 0
M  V30 11443 H 1043.53 4.03009 2.93914 0
M  V30 11444 H 1042.69 3.21075 5.14777 0
M  V30 11445 H 1041.43 2.24637 4.32885 0
M  V30 11446 H 1040.43 4.34297 3.37144 0
M  V30 11447 H 1041.66 5.31821 4.22307 0
M  V30 11448 H 1039.6 3.50499 5.54514 0
M  V30 11449 H 1039.52 5.23382 5.45534 0
M  V30 11450 H 1040.79 4.48259 6.37718 0
M  V30 11451 N 1045.02 -0.694098 1.41492 0
M  V30 11452 C 1046.26 -1.4563 1.41137 0
M  V30 11453 C 1046.6 -1.94189 0.0208428 0
M  V30 11454 O 1045.87 -1.69628 -0.951655 0
M  V30 11455 C 1046.15 -2.66714 2.41941 0
M  V30 11456 C 1046.01 -2.23912 3.90107 0
M  V30 11457 C 1047.33 -3.68913 2.39981 0
M  V30 11458 H 1044.44 -0.52821 0.513968 0
M  V30 11459 H 1047.09 -0.790437 1.72778 0
M  V30 11460 H 1045.24 -3.23525 2.1509 0
M  V30 11461 H 1046.91 -1.72417 4.27867 0
M  V30 11462 H 1045.15 -1.5568 4.04903 0
M  V30 11463 H 1045.82 -3.108 4.56188 0
M  V30 11464 H 1048.3 -3.21779 2.63813 0
M  V30 11465 H 1047.17 -4.51242 3.12524 0
M  V30 11466 H 1047.44 -4.18711 1.41892 0
M  V30 11467 N 1046.49 -1.27344 -0.928501 0
M  V30 11468 C 1047.91 -1.12361 -1.49103 0
M  V30 11469 C 1048.26 0.291667 -1.9402 0
M  V30 11470 O 1047.38 1.18449 -1.81104 0
M  V30 11471 C 1047.98 -2.03358 -2.70981 0
M  V30 11472 C 1046.54 -1.92483 -3.23461 0
M  V30 11473 C 1045.68 -1.95961 -1.962 0
M  V30 11474 H 1048.63 -1.40249 -0.742689 0
M  V30 11475 H 1048.65 -1.58892 -3.45736 0
M  V30 11476 H 1048.17 -3.06356 -2.38259 0
M  V30 11477 H 1046.27 -0.924676 -3.60944 0
M  V30 11478 H 1046.38 -2.78682 -3.89709 0
M  V30 11479 H 1044.74 -1.40175 -2.12657 0
M  V30 11480 H 1045.53 -3.00612 -1.65793 0
M  V30 11481 N 1047.97 1.13488 -1.09353 0
M  V30 11482 C 1048.92 2.18876 -0.732251 0
M  V30 11483 C 1049.89 1.63616 0.286175 0
M  V30 11484 O 1051.07 1.90059 0.167981 0
M  V30 11485 C 1048.21 3.44737 -0.158157 0
M  V30 11486 C 1047.33 4.14104 -1.23053 0
M  V30 11487 C 1046.46 5.27578 -0.619272 0
M  V30 11488 C 1045.5 5.88793 -1.67301 0
M  V30 11489 N 1044.64 6.937 -1.08283 0
M  V30 11490 H 1049.48 2.49128 -1.63522 0
M  V30 11491 H 1047.02 1.22326 -0.816995 0
M  V30 11492 H 1048.97 4.16756 0.192488 0
M  V30 11493 H 1047.6 3.14938 0.708082 0
M  V30 11494 H 1046.66 3.40376 -1.69847 0
M  V30 11495 H 1047.97 4.55683 -2.02865 0
M  V30 11496 H 1047.12 6.0631 -0.217428 0
M  V30 11497 H 1045.86 4.87246 0.210399 0
M  V30 11498 H 1044.87 5.08756 -2.0844 0
M  V30 11499 H 1046.09 6.31197 -2.50533 0
M  V30 11500 H 1044.04 6.55426 -0.274426 0
M  V30 11501 H 1043.95 7.33817 -1.81792 0
M  V30 11502 H 1045.22 7.76286 -0.707167 0
M  V30 11503 N 1049.45 0.880621 1.30701 0
M  V30 11504 C 1050.73 0.41712 1.91101 0
M  V30 11505 C 1051.11 -1.10177 1.80067 0
M  V30 11506 O 1050.46 -1.93513 1.21511 0
M  V30 11507 C 1050.67 0.910364 3.36917 0
M  V30 11508 C 1052.01 0.942764 4.14001 0
M  V30 11509 O 1053.04 0.856733 3.45743 0
M  V30 11510 O 1051.9 1.06913 5.3594 0
M  V30 11511 H 1048.99 0.126775 0.817225 0
M  V30 11512 H 1051.54 0.969236 1.39298 0
M  V30 11513 H 1050.31 1.95414 3.39012 0
M  V30 11514 H 1049.93 0.337164 3.96168 0
M  V30 11515 N 1050.93 -1.4397 0.641131 0
M  V30 11516 C 1051.86 -2.33458 -0.04446 0
M  V30 11517 C 1052.84 -1.48781 -0.824507 0
M  V30 11518 O 1054.03 -1.77477 -0.788397 0
M  V30 11519 C 1051.16 -3.31989 -1.01984 0
M  V30 11520 C 1050.11 -4.2656 -0.350745 0
M  V30 11521 C 1049.44 -5.15036 -1.43673 0
M  V30 11522 C 1050.74 -5.16897 0.749299 0
M  V30 11523 H 1052.43 -2.91034 0.702832 0
M  V30 11524 H 1049.98 -1.39942 0.339435 0
M  V30 11525 H 1051.93 -3.93483 -1.50828 0
M  V30 11526 H 1050.65 -2.72643 -1.79815 0
M  V30 11527 H 1049.31 -3.66413 0.117139 0
M  V30 11528 H 1048.96 -4.52037 -2.20617 0
M  V30 11529 H 1048.66 -5.79125 -0.994358 0
M  V30 11530 H 1050.18 -5.79403 -1.92678 0
M  V30 11531 H 1051.6 -5.7227 0.343534 0
M  V30 11532 H 1049.99 -5.89643 1.11541 0
M  V30 11533 H 1051.06 -4.5731 1.61232 0
M  V30 11534 N 1052.41 -0.382291 -1.52893 0
M  V30 11535 C 1053.34 0.447829 -2.29165 0
M  V30 11536 C 1054.32 1.06956 -1.32267 0
M  V30 11537 O 1055.5 1.08365 -1.61154 0
M  V30 11538 C 1052.63 1.57902 -3.09329 0
M  V30 11539 C 1051.59 1.08369 -4.14053 0
M  V30 11540 C 1050.91 2.30641 -4.82399 0
M  V30 11541 C 1052.21 0.156591 -5.22065 0
M  V30 11542 H 1053.91 -0.188541 -2.98806 0
M  V30 11543 H 1051.45 -0.0921179 -1.43705 0
M  V30 11544 H 1053.41 2.16652 -3.61442 0
M  V30 11545 H 1052.13 2.24287 -2.37409 0
M  V30 11546 H 1050.79 0.518772 -3.62911 0
M  V30 11547 H 1050.44 2.9552 -4.07034 0
M  V30 11548 H 1050.14 1.98163 -5.53177 0
M  V30 11549 H 1051.66 2.90047 -5.37313 0
M  V30 11550 H 1053.08 0.652065 -5.6958 0
M  V30 11551 H 1051.47 -0.0780978 -6.00049 0
M  V30 11552 H 1052.54 -0.796529 -4.78313 0
M  V30 11553 N 1053.89 1.57202 -0.111913 0
M  V30 11554 C 1055.13 1.96834 0.550967 0
M  V30 11555 C 1055.49 0.993502 1.64297 0
M  V30 11556 O 1056.69 1.27894 2.36425 0
M  V30 11557 C 1054.96 3.40805 1.07641 0
M  V30 11558 S 1056.52 4.02445 1.74881 0
M  V30 11559 H 1053.34 0.688021 0.179298 0
M  V30 11560 H 1055.94 1.94522 -0.195312 0
M  V30 11561 H 1054.64 4.09508 0.270377 0
M  V30 11562 H 1054.18 3.46752 1.85814 0
M  V30 11563 H 1056.19 3.92623 3.03416 0
M  V30 11564 N 1055.36 -0.161842 1.56767 0
M  V30 11565 C 1056.31 -1.21948 1.98069 0
M  V30 11566 C 1057.31 -1.45303 0.870835 0
M  V30 11567 O 1058.51 -1.45771 1.05598 0
M  V30 11568 H 1054.89 -0.410145 0.630306 0
M  V30 11569 H 1056.86 -0.844336 2.86205 0
M  V30 11570 C 1055.61 -2.549 2.36477 0
M  V30 11571 H 1054.93 -2.37755 3.21423 0
M  V30 11572 H 1056.37 -3.27568 2.69212 0
M  V30 11573 C 1054.83 -3.14353 1.21176 0
M  V30 11574 O 1055.36 -3.98519 0.504499 0
M  V30 11575 N 1053.56 -2.73582 0.979855 0
M  V30 11576 H 1053.11 -2.05239 1.55675 0
M  V30 11577 H 1053.07 -3.13696 0.21025 0
M  V30 11578 N 1056.84 -1.516 -0.430713 0
M  V30 11579 C 1057.77 -1.76342 -1.53054 0
M  V30 11580 C 1058.75 -0.61349 -1.58652 0
M  V30 11581 O 1059.94 -0.856888 -1.74273 0
M  V30 11582 C 1057.07 -1.8945 -2.91077 0
M  V30 11583 C 1056.02 -3.04928 -3.00339 0
M  V30 11584 C 1055.35 -3.03228 -4.40405 0
M  V30 11585 C 1056.65 -4.44777 -2.73808 0
M  V30 11586 H 1058.34 -2.68435 -1.326 0
M  V30 11587 H 1055.89 -1.29171 -0.636466 0
M  V30 11588 H 1057.84 -2.05343 -3.67984 0
M  V30 11589 H 1056.56 -0.940114 -3.12777 0
M  V30 11590 H 1055.22 -2.88751 -2.25872 0
M  V30 11591 H 1054.87 -2.05553 -4.59083 0
M  V30 11592 H 1054.57 -3.80776 -4.47531 0
M  V30 11593 H 1056.1 -3.21222 -5.19277 0
M  V30 11594 H 1057.51 -4.6127 -3.40445 0
M  V30 11595 H 1055.91 -5.2408 -2.92335 0
M  V30 11596 H 1056.98 -4.54358 -1.69372 0
M  V30 11597 N 1058.32 0.686584 -1.41858 0
M  V30 11598 C 1059.23 1.83002 -1.46791 0
M  V30 11599 C 1060.25 1.70284 -0.357675 0
M  V30 11600 O 1061.42 1.92042 -0.606781 0
M  V30 11601 C 1058.49 3.19056 -1.35661 0
M  V30 11602 C 1057.55 3.43817 -2.57077 0
M  V30 11603 C 1056.78 4.7338 -2.46469 0
M  V30 11604 O 1057 5.50483 -1.49413 0
M  V30 11605 O 1055.94 4.99124 -3.36391 0
M  V30 11606 H 1059.76 1.81797 -2.43277 0
M  V30 11607 H 1057.35 0.840812 -1.23494 0
M  V30 11608 H 1059.23 4.00267 -1.31773 0
M  V30 11609 H 1057.91 3.20925 -0.422951 0
M  V30 11610 H 1056.81 2.625 -2.66541 0
M  V30 11611 H 1058.15 3.4677 -3.49302 0
M  V30 11612 N 1059.8 1.27835 0.921735 0
M  V30 11613 C 1060.73 1.136 2.04003 0
M  V30 11614 C 1061.71 0.0358756 1.70062 0
M  V30 11615 O 1062.89 0.211438 1.93046 0
M  V30 11616 C 1060.02 0.788697 3.38226 0
M  V30 11617 C 1058.98 1.84272 3.863 0
M  V30 11618 C 1058.3 1.34923 5.17397 0
M  V30 11619 C 1059.6 3.24788 4.09035 0
M  V30 11620 H 1061.3 2.07149 2.1617 0
M  V30 11621 H 1058.84 0.997349 1.0387 0
M  V30 11622 H 1060.8 0.675911 4.15944 0
M  V30 11623 H 1059.52 -0.182499 3.2609 0
M  V30 11624 H 1058.18 1.94451 3.1078 0
M  V30 11625 H 1057.83 0.367328 5.01657 0
M  V30 11626 H 1057.53 2.05397 5.50532 0
M  V30 11627 H 1059.05 1.24951 5.97678 0
M  V30 11628 H 1060.47 3.17575 4.77304 0
M  V30 11629 H 1058.86 3.93025 4.53488 0
M  V30 11630 H 1059.93 3.69398 3.14122 0
M  V30 11631 N 1061.28 -1.12907 1.09954 0
M  V30 11632 C 1062.19 -2.22082 0.756095 0
M  V30 11633 C 1063.2 -1.72277 -0.244272 0
M  V30 11634 O 1064.38 -2.01224 -0.0842637 0
M  V30 11635 C 1061.44 -3.46192 0.187642 0
M  V30 11636 C 1060.5 -4.10861 1.24465 0
M  V30 11637 C 1059.74 -5.29047 0.703227 0
M  V30 11638 O 1059.96 -5.68443 -0.472043 0
M  V30 11639 O 1058.89 -5.83904 1.46082 0
M  V30 11640 H 1062.72 -2.53842 1.66727 0
M  V30 11641 H 1060.3 -1.21145 0.874316 0
M  V30 11642 H 1062.19 -4.21212 -0.125774 0
M  V30 11643 H 1060.86 -3.16119 -0.696459 0
M  V30 11644 H 1059.77 -3.37643 1.61085 0
M  V30 11645 H 1061.1 -4.45078 2.10159 0
M  V30 11646 N 1062.75 -0.88754 -1.30232 0
M  V30 11647 C 1064 -0.506277 -1.95656 0
M  V30 11648 C 1064.32 0.948191 -1.70395 0
M  V30 11649 O 1063.59 1.66701 -1.02895 0
M  V30 11650 H 1062.17 -0.184235 -0.723924 0
M  V30 11651 H 1064.83 -1.13118 -1.58715 0
M  V30 11652 H 1063.93 -0.678673 -3.04632 0
M  V30 11653 N 1064.23 1.43628 -0.648757 0
M  V30 11654 C 1065.18 2.30755 0.0455536 0
M  V30 11655 C 1066.15 1.44495 0.819168 0
M  V30 11656 O 1067.33 1.73372 0.79667 0
M  V30 11657 C 1064.47 3.30017 1.00908 0
M  V30 11658 C 1063.59 4.31376 0.232039 0
M  V30 11659 C 1062.72 5.17723 1.18897 0
M  V30 11660 C 1061.76 6.10778 0.402096 0
M  V30 11661 N 1060.9 6.89763 1.31038 0
M  V30 11662 H 1065.74 2.89581 -0.70332 0
M  V30 11663 H 1063.28 1.42662 -0.3586 0
M  V30 11664 H 1065.23 3.86072 1.58128 0
M  V30 11665 H 1063.86 2.72851 1.72488 0
M  V30 11666 H 1062.92 3.77652 -0.456373 0
M  V30 11667 H 1064.23 4.9735 -0.380023 0
M  V30 11668 H 1063.38 5.78381 1.83194 0
M  V30 11669 H 1062.12 4.51864 1.83494 0
M  V30 11670 H 1061.13 5.49212 -0.254255 0
M  V30 11671 H 1062.35 6.78678 -0.239411 0
M  V30 11672 H 1060.3 6.26557 1.94324 0
M  V30 11673 H 1060.21 7.52243 0.752774 0
M  V30 11674 H 1061.48 7.54931 1.94164 0
M  V30 11675 N 1065.71 0.390394 1.52688 0
M  V30 11676 C 1066.96 -0.192697 2.00777 0
M  V30 11677 C 1067.27 -1.4781 1.28108 0
M  V30 11678 O 1068.48 -2.1413 1.66914 0
M  V30 11679 C 1066.93 -0.393955 3.57737 0
M  V30 11680 C 1066.54 0.878259 4.39307 0
M  V30 11681 C 1068.29 -0.933352 4.14112 0
M  V30 11682 C 1066.19 0.645218 5.8787 0
M  V30 11683 H 1065.12 -0.0757862 0.750182 0
M  V30 11684 H 1067.77 0.512961 1.76184 0
M  V30 11685 H 1066.16 -1.16149 3.78583 0
M  V30 11686 H 1067.33 1.65049 4.30227 0
M  V30 11687 H 1065.65 1.34269 3.94158 0
M  V30 11688 H 1068.24 -1.12343 5.22765 0
M  V30 11689 H 1068.59 -1.90272 3.70273 0
M  V30 11690 H 1069.12 -0.225361 3.97161 0
M  V30 11691 H 1065.86 1.58562 6.36033 0
M  V30 11692 H 1065.38 -0.0880609 5.99735 0
M  V30 11693 H 1067.06 0.280178 6.46393 0
M  V30 11694 N 1067.19 -1.57141 0.120249 0
M  V30 11695 C 1068.42 -1.99589 -0.545136 0
M  V30 11696 C 1068.83 -0.999951 -1.60145 0
M  V30 11697 O 1068.19 0.00698897 -1.82499 0
M  V30 11698 C 1068.24 -3.42038 -1.17014 0
M  V30 11699 O 1067.96 -4.37822 -0.156044 0
M  V30 11700 C 1069.46 -3.99625 -1.91872 0
M  V30 11701 H 1066.68 -0.655318 -0.144222 0
M  V30 11702 H 1069.23 -2.0345 0.206955 0
M  V30 11703 H 1067.38 -3.39113 -1.873 0
M  V30 11704 H 1067.79 -5.20937 -0.610317 0
M  V30 11705 H 1069.27 -5.01374 -2.30928 0
M  V30 11706 H 1069.75 -3.38836 -2.7944 0
M  V30 11707 H 1070.35 -4.061 -1.26345 0
M  V30 11708 N 1068.67 0.153526 -1.5685 0
M  V30 11709 C 1069.94 0.895545 -1.73895 0
M  V30 11710 C 1070.32 1.99625 -0.686504 0
M  V30 11711 O 1069.67 2.26579 0.2957 0
M  V30 11712 C 1069.88 1.44399 -3.17726 0
M  V30 11713 C 1071.23 1.90996 -3.79217 0
M  V30 11714 O 1072.25 1.54155 -3.21115 0
M  V30 11715 O 1071.11 2.58917 -4.81274 0
M  V30 11716 H 1068.21 0.422755 -0.710779 0
M  V30 11717 H 1070.75 0.139961 -1.69122 0
M  V30 11718 H 1069.52 0.652635 -3.85819 0
M  V30 11719 H 1069.15 2.26326 -3.26898 0
M  V30 11720 N 1070.14 1.51827 0.422667 0
M  V30 11721 C 1071.07 1.77152 1.52117 0
M  V30 11722 C 1072.06 0.621895 1.58324 0
M  V30 11723 O 1073.24 0.866118 1.73816 0
M  V30 11724 C 1070.37 1.90991 2.90068 0
M  V30 11725 C 1069.32 3.06516 2.98717 0
M  V30 11726 C 1068.65 3.05559 4.38791 0
M  V30 11727 C 1069.95 4.46223 2.71445 0
M  V30 11728 H 1071.64 2.69135 1.31175 0
M  V30 11729 H 1069.19 1.29507 0.629607 0
M  V30 11730 H 1071.14 2.07291 3.6689 0
M  V30 11731 H 1069.87 0.956688 3.12274 0
M  V30 11732 H 1068.53 2.89945 2.24338 0
M  V30 11733 H 1068.17 2.07985 4.57986 0
M  V30 11734 H 1067.87 3.83144 4.45505 0
M  V30 11735 H 1069.4 3.23971 5.17566 0
M  V30 11736 H 1070.81 4.63069 3.37994 0
M  V30 11737 H 1069.21 5.25623 2.89552 0
M  V30 11738 H 1070.28 4.5525 1.6696 0
M  V30 11739 N 1071.62 -0.679052 1.4222 0
M  V30 11740 C 1072.55 -1.80455 1.41311 0
M  V30 11741 C 1073.57 -1.59767 0.312799 0
M  V30 11742 O 1074.76 -1.68964 0.575612 0
M  V30 11743 C 1071.86 -3.17492 1.18541 0
M  V30 11744 C 1071.03 -3.65066 2.40926 0
M  V30 11745 C 1070.09 -4.80823 2.13765 0
M  V30 11746 O 1069.11 -4.91587 2.86934 0
M  V30 11747 N 1070.32 -5.69233 1.13813 0
M  V30 11748 H 1073.08 -1.81722 2.38322 0
M  V30 11749 H 1070.64 -0.861988 1.37045 0
M  V30 11750 H 1072.63 -3.92581 0.982958 0
M  V30 11751 H 1071.2 -3.1115 0.300691 0
M  V30 11752 H 1070.42 -2.80702 2.76767 0
M  V30 11753 H 1071.71 -3.93593 3.22431 0
M  V30 11754 H 1071.11 -5.63185 0.532887 0
M  V30 11755 H 1069.67 -6.44152 0.995554 0
M  V30 11756 N 1073.1 -1.28322 -0.914942 0
M  V30 11757 C 1074.05 -1.12146 -2.01722 0
M  V30 11758 C 1075.02 -0.0189279 -1.66089 0
M  V30 11759 O 1076.2 -0.183638 -1.89914 0
M  V30 11760 C 1073.34 -0.78808 -3.35981 0
M  V30 11761 C 1072.46 -1.96954 -3.84491 0
M  V30 11762 C 1071.59 -1.57688 -5.07255 0
M  V30 11763 C 1070.63 -2.72506 -5.48094 0
M  V30 11764 N 1069.77 -2.33741 -6.62049 0
M  V30 11765 H 1074.61 -2.06461 -2.1489 0
M  V30 11766 H 1072.14 -1.0276 -1.05256 0
M  V30 11767 H 1074.1 -0.575546 -4.13211 0
M  V30 11768 H 1072.73 0.118132 -3.22584 0
M  V30 11769 H 1071.78 -2.29423 -3.03429 0
M  V30 11770 H 1073.1 -2.8304 -4.10719 0
M  V30 11771 H 1072.25 -1.32634 -5.92025 0
M  V30 11772 H 1070.99 -0.687291 -4.82833 0
M  V30 11773 H 1069.99 -2.9826 -4.61867 0
M  V30 11774 H 1071.22 -3.62106 -5.74505 0
M  V30 11775 H 1069.16 -1.4725 -6.3926 0
M  V30 11776 H 1069.08 -3.13364 -6.87997 0
M  V30 11777 H 1070.35 -2.11968 -7.50127 0
M  V30 11778 N 1074.58 1.12322 -1.10551 0
M  V30 11779 C 1075.49 2.21678 -0.767862 0
M  V30 11780 C 1076.5 1.72404 0.235132 0
M  V30 11781 O 1077.68 2.01266 0.0735912 0
M  V30 11782 C 1074.75 3.46087 -0.205999 0
M  V30 11783 C 1073.81 4.10195 -1.26642 0
M  V30 11784 C 1073.04 5.28666 -0.731274 0
M  V30 11785 O 1073.26 5.68686 0.44189 0
M  V30 11786 O 1072.2 5.83121 -1.49176 0
M  V30 11787 H 1076.02 2.52955 -1.6807 0
M  V30 11788 H 1073.61 1.2068 -0.880728 0
M  V30 11789 H 1075.49 4.21273 0.103435 0
M  V30 11790 H 1074.16 3.16484 0.679685 0
M  V30 11791 H 1073.07 3.36784 -1.62873 0
M  V30 11792 H 1074.4 4.43957 -2.12516 0
M  V30 11793 N 1076.06 0.894434 1.2976 0
M  V30 11794 C 1076.99 0.3847 2.30309 0
M  V30 11795 C 1077.97 -0.537486 1.61385 0
M  V30 11796 O 1079.15 -0.449332 1.8893 0
M  V30 11797 C 1076.28 -0.393311 3.45066 0
M  V30 11798 C 1075.24 0.437968 4.25753 0
M  V30 11799 C 1074.56 -0.467221 5.32655 0
M  V30 11800 C 1075.86 1.6851 4.9437 0
M  V30 11801 H 1077.56 1.22496 2.73194 0
M  V30 11802 H 1075.1 0.590471 1.31337 0
M  V30 11803 H 1077.06 -0.760614 4.14479 0
M  V30 11804 H 1075.78 -1.2673 3.0101 0
M  V30 11805 H 1074.44 0.787533 3.58041 0
M  V30 11806 H 1074.09 -1.33919 4.84845 0
M  V30 11807 H 1073.79 0.0852482 5.87538 0
M  V30 11808 H 1075.31 -0.830833 6.04921 0
M  V30 11809 H 1076.72 1.38784 5.56248 0
M  V30 11810 H 1075.12 2.17849 5.59162 0
M  V30 11811 H 1076.19 2.42412 4.19958 0
M  V30 11812 N 1077.53 -1.43282 0.656365 0
M  V30 11813 C 1078.48 -2.32556 -0.0452037 0
M  V30 11814 C 1079.48 -1.48789 -0.80982 0
M  V30 11815 O 1080.68 -1.64979 -0.719865 0
M  V30 11816 H 1077.06 -0.751258 -0.0334043 0
M  V30 11817 H 1079.03 -2.89448 0.725423 0
M  V30 11818 C 1077.78 -3.33138 -0.995706 0
M  V30 11819 H 1077.1 -3.97622 -0.416774 0
M  V30 11820 H 1078.54 -3.98231 -1.45562 0
M  V30 11821 C 1077 -2.63978 -2.09325 0
M  V30 11822 O 1077.53 -2.45769 -3.17743 0
M  V30 11823 N 1075.74 -2.23301 -1.8597 0
M  V30 11824 H 1075.28 -2.38312 -0.97802 0
M  V30 11825 H 1075.24 -1.77358 -2.59599 0
M  V30 11826 N 1079.01 -0.398486 -1.52479 0
M  V30 11827 C 1079.96 0.432212 -2.26717 0
M  V30 11828 C 1080.93 1.05007 -1.28696 0
M  V30 11829 O 1082.12 1.07636 -1.57541 0
M  V30 11830 C 1079.26 1.54868 -3.08399 0
M  V30 11831 C 1078.37 0.952779 -4.21362 0
M  V30 11832 C 1077.5 2.04106 -4.90423 0
M  V30 11833 C 1076.54 1.42153 -5.95364 0
M  V30 11834 N 1075.68 2.44951 -6.57984 0
M  V30 11835 H 1080.52 -0.207303 -2.97278 0
M  V30 11836 H 1078.06 -0.114066 -1.46657 0
M  V30 11837 H 1080.01 2.20684 -3.54054 0
M  V30 11838 H 1078.64 2.15837 -2.4003 0
M  V30 11839 H 1077.7 0.183962 -3.79955 0
M  V30 11840 H 1079.01 0.460131 -4.96673 0
M  V30 11841 H 1078.16 2.77672 -5.39429 0
M  V30 11842 H 1076.9 2.56733 -4.14656 0
M  V30 11843 H 1075.91 0.671161 -5.45688 0
M  V30 11844 H 1077.13 0.903093 -6.73068 0
M  V30 11845 H 1075.08 2.9673 -5.85053 0
M  V30 11846 H 1074.99 2.00468 -7.28937 0
M  V30 11847 H 1076.26 3.18119 -7.11632 0
M  V30 11848 N 1080.49 1.57075 -0.12858 0
M  V30 11849 C 1081.4 2.19369 0.831533 0
M  V30 11850 C 1082.42 1.17258 1.28555 0
M  V30 11851 O 1083.59 1.49766 1.34656 0
M  V30 11852 C 1080.66 2.78846 2.06024 0
M  V30 11853 C 1079.72 3.96024 1.65722 0
M  V30 11854 C 1078.95 4.52655 2.82735 0
M  V30 11855 O 1079.18 4.08175 3.98434 0
M  V30 11856 O 1078.11 5.43198 2.59268 0
M  V30 11857 H 1081.94 3.01887 0.331352 0
M  V30 11858 H 1079.52 1.49081 0.0975226 0
M  V30 11859 H 1081.4 3.16721 2.77967 0
M  V30 11860 H 1080.08 1.99353 2.5503 0
M  V30 11861 H 1078.98 3.62899 0.908574 0
M  V30 11862 H 1080.32 4.76981 1.21449 0
M  V30 11863 N 1081.97 -0.145205 1.5693 0
M  V30 11864 C 1083.22 -0.858786 1.83719 0
M  V30 11865 C 1083.55 -1.80738 0.710452 0
M  V30 11866 O 1082.82 -1.92389 -0.285791 0
M  V30 11867 C 1083.11 -1.6317 3.2101 0
M  V30 11868 C 1082.96 -0.704472 4.44249 0
M  V30 11869 C 1084.28 -2.59377 3.55544 0
M  V30 11870 H 1081.4 -0.310757 0.66828 0
M  V30 11871 H 1084.04 -0.123918 1.89595 0
M  V30 11872 H 1082.19 -2.25816 3.16132 0
M  V30 11873 H 1083.86 -0.08887 4.61214 0
M  V30 11874 H 1082.1 -0.0141693 4.33798 0
M  V30 11875 H 1082.78 -1.28135 5.36922 0
M  V30 11876 H 1085.25 -2.06848 3.61044 0
M  V30 11877 H 1084.13 -3.10506 4.52634 0
M  V30 11878 H 1084.39 -3.40819 2.81594 0
M  V30 11879 N 1083.45 -1.52049 -0.414609 0
M  V30 11880 C 1084.36 -1.7788 -1.52958 0
M  V30 11881 C 1085.37 -0.66408 -1.60829 0
M  V30 11882 O 1086.55 -0.948882 -1.77646 0
M  V30 11883 C 1083.61 -1.91906 -2.88744 0
M  V30 11884 C 1082.68 -3.15803 -2.90804 0
M  V30 11885 C 1081.91 -3.29151 -4.20114 0
M  V30 11886 O 1082.13 -2.47892 -5.13718 0
M  V30 11887 O 1081.07 -4.2227 -4.28919 0
M  V30 11888 H 1084.89 -2.72506 -1.34067 0
M  V30 11889 H 1082.48 -1.36826 -0.599918 0
M  V30 11890 H 1084.36 -2.02986 -3.6929 0
M  V30 11891 H 1083.03 -1.00468 -3.07714 0
M  V30 11892 H 1081.94 -3.10185 -2.09131 0
M  V30 11893 H 1083.27 -4.07004 -2.76783 0
M  V30 11894 N 1084.93 0.6715 -1.42579 0
M  V30 11895 C 1085.84 1.81435 -1.48723 0
M  V30 11896 C 1086.85 1.69895 -0.375716 0
M  V30 11897 O 1088.03 1.91388 -0.627115 0
M  V30 11898 C 1085.09 3.17599 -1.39038 0
M  V30 11899 C 1084.15 3.41071 -2.60709 0
M  V30 11900 C 1083.39 4.7074 -2.51476 0
M  V30 11901 O 1083.61 5.48868 -1.55243 0
M  V30 11902 O 1082.54 4.95528 -3.41666 0
M  V30 11903 H 1086.37 1.79206 -2.45191 0
M  V30 11904 H 1083.95 0.827666 -1.24379 0
M  V30 11905 H 1085.84 3.98847 -1.3601 0
M  V30 11906 H 1084.51 3.20458 -0.456966 0
M  V30 11907 H 1083.42 2.59659 -2.69311 0
M  V30 11908 H 1084.75 3.43045 -3.5296 0
M  V30 11909 N 1086.4 1.28806 0.908124 0
M  V30 11910 C 1087.35 1.13083 2.03261 0
M  V30 11911 C 1088.35 0.0486094 1.6933 0
M  V30 11912 O 1089.55 0.207794 1.78797 0
M  V30 11913 H 1085.93 0.349057 0.666081 0
M  V30 11914 H 1087.9 2.08304 2.13663 0
M  V30 11915 C 1086.65 0.815339 3.38005 0
M  V30 11916 H 1085.97 1.64007 3.64612 0
M  V30 11917 H 1087.41 0.745311 4.17398 0
M  V30 11918 C 1085.87 -0.48113 3.33447 0
M  V30 11919 O 1086.4 -1.50974 3.7225 0
M  V30 11920 N 1084.6 -0.483912 2.86543 0
M  V30 11921 H 1084.15 0.353593 2.55162 0
M  V30 11922 H 1084.11 -1.35138 2.83875 0
M  V30 11923 N 1087.88 -1.11734 1.11145 0
M  V30 11924 C 1088.79 -2.21267 0.779607 0
M  V30 11925 C 1089.81 -1.72526 -0.225986 0
M  V30 11926 O 1090.98 -2.01302 -0.0629166 0
M  V30 11927 C 1088.05 -3.45973 0.22435 0
M  V30 11928 C 1087.11 -4.09518 1.28816 0
M  V30 11929 C 1086.34 -5.28271 0.7593 0
M  V30 11930 O 1086.57 -5.68912 -0.411725 0
M  V30 11931 O 1085.5 -5.82322 1.52266 0
M  V30 11932 H 1089.33 -2.5206 1.6941 0
M  V30 11933 H 1086.91 -1.20211 0.887115 0
M  V30 11934 H 1088.79 -4.21322 -0.0810921 0
M  V30 11935 H 1087.47 -3.1684 -0.662891 0
M  V30 11936 H 1086.37 -3.35915 1.64657 0
M  V30 11937 H 1087.71 -4.42824 2.14868 0
M  V30 11938 N 1089.36 -0.901303 -1.29284 0
M  V30 11939 C 1090.32 -0.385081 -2.25942 0
M  V30 11940 C 1091.32 0.481626 -1.53418 0
M  V30 11941 O 1092.51 0.286451 -1.71829 0
M  V30 11942 C 1089.64 0.449319 -3.37926 0
M  V30 11943 H 1090.84 -1.23877 -2.7312 0
M  V30 11944 H 1088.39 -0.679586 -1.40753 0
M  V30 11945 H 1089.13 1.32292 -2.9609 0
M  V30 11946 H 1088.91 -0.171731 -3.91724 0
M  V30 11947 H 1090.4 0.801746 -4.09831 0
M  V30 11948 N 1090.84 1.42931 -0.663954 0
M  V30 11949 C 1091.77 2.33499 0.00731327 0
M  V30 11950 C 1092.75 1.50074 0.800733 0
M  V30 11951 O 1093.93 1.78708 0.760062 0
M  V30 11952 C 1091.06 3.33569 0.966897 0
M  V30 11953 C 1090.02 4.27064 0.282839 0
M  V30 11954 C 1089.34 5.17257 1.35461 0
M  V30 11955 C 1090.64 5.1564 -0.831438 0
M  V30 11956 H 1092.34 2.89879 -0.749044 0
M  V30 11957 H 1089.88 1.39385 -0.361656 0
M  V30 11958 H 1091.84 3.95833 1.44549 0
M  V30 11959 H 1090.56 2.75469 1.75455 0
M  V30 11960 H 1089.22 3.6618 -0.175417 0
M  V30 11961 H 1088.87 4.5549 2.13397 0
M  V30 11962 H 1088.57 5.80634 0.902098 0
M  V30 11963 H 1090.09 5.82395 1.83436 0
M  V30 11964 H 1091.51 5.71651 -0.434534 0
M  V30 11965 H 1089.9 5.87794 -1.20908 0
M  V30 11966 H 1090.97 4.54687 -1.68487 0
M  V30 11967 N 1092.32 0.406567 1.52266 0
M  V30 11968 C 1093.73 0.0573228 1.59497 0
M  V30 11969 C 1093.93 -1.43005 1.41957 0
M  V30 11970 O 1092.99 -2.19659 1.24523 0
M  V30 11971 C 1094.3 0.549947 2.95628 0
M  V30 11972 C 1095.85 0.5077 3.08855 0
M  V30 11973 C 1096.32 0.976792 4.47463 0
M  V30 11974 N 1097.81 0.933508 4.53696 0
M  V30 11975 C 1098.55 1.26769 5.59211 0
M  V30 11976 N 1098.05 1.6732 6.72292 0
M  V30 11977 N 1099.84 1.18782 5.49406 0
M  V30 11978 H 1091.99 1.37468 1.61914 0
M  V30 11979 H 1094.25 0.564562 0.76156 0
M  V30 11980 H 1093.96 1.58943 3.13736 0
M  V30 11981 H 1093.83 -0.0417767 3.77177 0
M  V30 11982 H 1096.22 -0.522728 2.90433 0
M  V30 11983 H 1096.3 1.13545 2.29219 0
M  V30 11984 H 1095.94 2.00554 4.66627 0
M  V30 11985 H 1095.87 0.325885 5.25591 0
M  V30 11986 H 1098.37 0.635333 3.72521 0
M  V30 11987 H 1098.68 1.91137 7.4879 0
M  V30 11988 H 1097.02 1.71221 6.73579 0
M  V30 11989 H 1100.21 0.869906 4.59946 0
M  V30 11990 H 1100.39 1.45157 6.31533 0
M  V30 11991 N 1093.79 -1.57004 0.136909 0
M  V30 11992 C 1094.7 -2.19807 -0.819887 0
M  V30 11993 C 1095.72 -1.17939 -1.27932 0
M  V30 11994 O 1096.9 -1.50478 -1.3386 0
M  V30 11995 C 1093.96 -2.79935 -2.04542 0
M  V30 11996 C 1093.02 -3.96897 -1.6362 0
M  V30 11997 C 1092.26 -4.54148 -2.80331 0
M  V30 11998 O 1092.48 -4.10282 -3.96264 0
M  V30 11999 O 1091.41 -5.44565 -2.56384 0
M  V30 12000 H 1095.24 -3.02058 -0.315337 0
M  V30 12001 H 1092.82 -1.49131 -0.0896151 0
M  V30 12002 H 1094.71 -3.18191 -2.76283 0
M  V30 12003 H 1093.38 -2.00703 -2.53969 0
M  V30 12004 H 1092.29 -3.63376 -0.889316 0
M  V30 12005 H 1093.62 -4.77618 -1.18918 0
M  V30 12006 N 1095.27 0.136881 -1.57004 0
M  V30 12007 C 1096.18 1.18793 -2.023 0
M  V30 12008 C 1097.2 1.46412 -0.94018 0
M  V30 12009 O 1098.37 1.57883 -1.2504 0
M  V30 12010 C 1095.44 2.49903 -2.40311 0
M  V30 12011 C 1094.5 2.29841 -3.6259 0
M  V30 12012 C 1093.73 3.54699 -3.98779 0
M  V30 12013 O 1093.96 4.61291 -3.3551 0
M  V30 12014 O 1092.89 3.46761 -4.91976 0
M  V30 12015 H 1096.72 0.833345 -2.92043 0
M  V30 12016 H 1094.3 0.346361 -1.4533 0
M  V30 12017 H 1096.18 3.27183 -2.65574 0
M  V30 12018 H 1094.86 2.84872 -1.5372 0
M  V30 12019 H 1093.77 1.50478 -3.42501 0
M  V30 12020 H 1095.1 1.99784 -4.4983 0
M  V30 12021 N 1096.75 1.52266 0.40654 0
M  V30 12022 C 1098 1.66699 1.15496 0
M  V30 12023 C 1098.33 0.397019 1.90098 0
M  V30 12024 O 1097.6 -0.604646 1.84863 0
M  V30 12025 C 1097.89 2.8907 2.14734 0
M  V30 12026 C 1097.74 4.26123 1.44012 0
M  V30 12027 C 1099.06 3.06966 3.15373 0
M  V30 12028 H 1096.18 0.606642 0.418515 0
M  V30 12029 H 1098.82 1.84826 0.440381 0
M  V30 12030 H 1096.97 2.73745 2.75673 0
M  V30 12031 H 1098.64 4.5318 0.861722 0
M  V30 12032 H 1096.89 4.27406 0.742064 0
M  V30 12033 H 1097.56 5.07799 2.16436 0
M  V30 12034 H 1100.03 3.21205 2.64512 0
M  V30 12035 H 1098.91 3.94097 3.82072 0
M  V30 12036 H 1099.17 2.20395 3.83247 0
M  V30 12037 N 1098.23 -0.663929 1.42933 0
M  V30 12038 C 1099.48 -1.41973 1.43271 0
M  V30 12039 C 1099.79 -1.95518 0.0566103 0
M  V30 12040 O 1101 -2.71428 -0.0625862 0
M  V30 12041 C 1099.45 -2.56882 2.52071 0
M  V30 12042 C 1099.06 -2.0999 3.95737 0
M  V30 12043 C 1100.8 -3.34322 2.61589 0
M  V30 12044 C 1098.71 -3.22046 4.96025 0
M  V30 12045 H 1097.64 -0.5334 0.532917 0
M  V30 12046 H 1100.29 -0.717709 1.68882 0
M  V30 12047 H 1098.67 -3.29504 2.19643 0
M  V30 12048 H 1099.85 -1.44449 4.37574 0
M  V30 12049 H 1098.16 -1.45459 3.90168 0
M  V30 12050 H 1100.76 -4.17796 3.33692 0
M  V30 12051 H 1101.1 -3.8164 1.66302 0
M  V30 12052 H 1101.64 -2.68775 2.93266 0
M  V30 12053 H 1098.38 -2.79708 5.92827 0
M  V30 12054 H 1097.9 -3.86333 4.5881 0
M  V30 12055 H 1099.57 -3.87345 5.1824 0
M  V30 12056 N 1099.71 -1.29285 -0.901281 0
M  V30 12057 C 1100.64 -1.16832 -2.0217 0
M  V30 12058 C 1101.62 -0.0629265 -1.69984 0
M  V30 12059 O 1102.8 -0.242123 -1.92685 0
M  V30 12060 C 1099.93 -0.842406 -3.36929 0
M  V30 12061 C 1098.89 -1.90394 -3.8332 0
M  V30 12062 C 1098.21 -1.43138 -5.15185 0
M  V30 12063 C 1099.51 -3.31254 -4.03817 0
M  V30 12064 H 1101.21 -2.10562 -2.12847 0
M  V30 12065 H 1098.75 -1.01375 -1.0227 0
M  V30 12066 H 1100.71 -0.741999 -4.14816 0
M  V30 12067 H 1099.43 0.130598 -3.26339 0
M  V30 12068 H 1098.09 -1.99371 -3.07647 0
M  V30 12069 H 1097.74 -0.447091 -5.01009 0
M  V30 12070 H 1097.44 -2.14129 -5.47195 0
M  V30 12071 H 1098.96 -1.34444 -5.95615 0
M  V30 12072 H 1100.37 -3.25129 -4.72191 0
M  V30 12073 H 1098.77 -4.00189 -4.47178 0
M  V30 12074 H 1099.84 -3.74349 -3.08206 0
M  V30 12075 N 1101.18 1.11143 -1.11736 0
M  V30 12076 C 1102.11 2.19339 -0.800795 0
M  V30 12077 C 1103.1 1.68508 0.23221 0
M  V30 12078 O 1104.28 1.93967 0.0950063 0
M  V30 12079 C 1101.41 3.46424 -0.246579 0
M  V30 12080 C 1100.36 4.10487 -1.21181 0
M  V30 12081 C 1099.69 5.32183 -0.518158 0
M  V30 12082 C 1100.99 4.55052 -2.56368 0
M  V30 12083 H 1102.68 2.46077 -1.70548 0
M  V30 12084 H 1100.23 1.18271 -0.821454 0
M  V30 12085 H 1102.18 4.21398 -0.0128889 0
M  V30 12086 H 1100.91 3.19154 0.693415 0
M  V30 12087 H 1099.57 3.3751 -1.43118 0
M  V30 12088 H 1099.21 5.01187 0.426742 0
M  V30 12089 H 1098.91 5.75997 -1.16196 0
M  V30 12090 H 1100.44 6.09895 -0.293333 0
M  V30 12091 H 1101.85 5.21335 -2.38501 0
M  V30 12092 H 1100.25 5.0969 -3.16758 0
M  V30 12093 H 1101.32 3.68343 -3.1536 0
M  V30 12094 N 1102.66 0.908147 1.28804 0
M  V30 12095 C 1103.89 0.553431 1.9988 0
M  V30 12096 C 1104.31 -0.856714 1.67458 0
M  V30 12097 O 1103.67 -1.57163 0.903849 0
M  V30 12098 C 1103.72 0.762688 3.52442 0
M  V30 12099 O 1102.82 -0.180924 4.12003 0
M  V30 12100 H 1102.16 0.215237 0.628147 0
M  V30 12101 H 1104.69 1.22205 1.64095 0
M  V30 12102 H 1104.7 0.670612 4.02451 0
M  V30 12103 H 1103.38 1.79071 3.75375 0
M  V30 12104 H 1101.96 -0.0405897 3.72878 0
M  V30 12105 N 1104.14 -1.42577 0.671525 0
M  V30 12106 C 1105.05 -2.34598 -0.00898225 0
M  V30 12107 C 1106.07 -1.54909 -0.792407 0
M  V30 12108 O 1107.24 -1.87491 -0.735477 0
M  V30 12109 C 1104.31 -3.33405 -0.950888 0
M  V30 12110 C 1103.37 -4.28993 -0.16236 0
M  V30 12111 C 1102.6 -5.2308 -1.0594 0
M  V30 12112 O 1102.82 -5.22022 -2.2989 0
M  V30 12113 O 1101.76 -5.99632 -0.521966 0
M  V30 12114 H 1105.58 -2.94321 0.748927 0
M  V30 12115 H 1103.17 -1.43025 0.43175 0
M  V30 12116 H 1105.05 -3.94115 -1.49169 0
M  V30 12117 H 1103.73 -2.7616 -1.68871 0
M  V30 12118 H 1102.63 -3.71707 0.42247 0
M  V30 12119 H 1103.97 -4.8927 0.536274 0
M  V30 12120 N 1105.62 -0.414636 -1.52048 0
M  V30 12121 C 1106.55 0.399119 -2.30064 0
M  V30 12122 C 1107.53 1.04126 -1.34506 0
M  V30 12123 O 1108.71 1.04923 -1.63416 0
M  V30 12124 C 1105.84 1.51305 -3.12608 0
M  V30 12125 C 1104.8 0.995621 -4.16259 0
M  V30 12126 C 1104.12 2.20357 -4.87183 0
M  V30 12127 C 1105.42 0.0458178 -5.2228 0
M  V30 12128 H 1107.12 -0.251879 -2.98339 0
M  V30 12129 H 1104.66 -0.122579 -1.43477 0
M  V30 12130 H 1106.62 2.08936 -3.65956 0
M  V30 12131 H 1105.34 2.19201 -2.42113 0
M  V30 12132 H 1104 0.441676 -3.6393 0
M  V30 12133 H 1103.65 2.8682 -4.13211 0
M  V30 12134 H 1103.35 1.86385 -5.57256 0
M  V30 12135 H 1104.87 2.78584 -5.43345 0
M  V30 12136 H 1106.29 0.531102 -5.70835 0
M  V30 12137 H 1104.68 -0.20536 -5.99749 0
M  V30 12138 H 1105.75 -0.897807 -4.76516 0
M  V30 12139 N 1107.1 1.56929 -0.145233 0
M  V30 12140 C 1108.04 2.16671 0.795128 0
M  V30 12141 C 1109.01 1.09908 1.24537 0
M  V30 12142 O 1110.2 1.37941 1.31821 0
M  V30 12143 C 1107.34 2.79111 2.02956 0
M  V30 12144 C 1106.45 4.00261 1.62528 0
M  V30 12145 C 1105.59 4.50705 2.81137 0
M  V30 12146 C 1104.63 5.64324 2.37075 0
M  V30 12147 N 1103.76 6.09395 3.48687 0
M  V30 12148 H 1108.6 2.96692 0.278865 0
M  V30 12149 H 1106.14 1.4656 0.125934 0
M  V30 12150 H 1108.1 3.13456 2.7532 0
M  V30 12151 H 1106.73 2.01737 2.51996 0
M  V30 12152 H 1105.78 3.71906 0.799365 0
M  V30 12153 H 1107.09 4.8258 1.26166 0
M  V30 12154 H 1106.25 4.87096 3.61693 0
M  V30 12155 H 1104.98 3.67389 3.20744 0
M  V30 12156 H 1103.99 5.27511 1.54958 0
M  V30 12157 H 1105.21 6.49425 1.98556 0
M  V30 12158 H 1103.16 5.29014 3.87917 0
M  V30 12159 H 1103.08 6.86636 3.16333 0
M  V30 12160 H 1104.35 6.50431 4.29605 0
M  V30 12161 N 1108.58 -0.128553 1.57075 0
M  V30 12162 C 1109.8 -0.8564 1.88893 0
M  V30 12163 C 1110.23 -1.73095 0.736196 0
M  V30 12164 O 1109.58 -1.78567 -0.313629 0
M  V30 12165 C 1109.63 -1.67368 3.19406 0
M  V30 12166 O 1108.74 -2.77973 3.04639 0
M  V30 12167 H 1108.08 -0.237424 0.620102 0
M  V30 12168 H 1110.61 -0.113821 2.04283 0
M  V30 12169 H 1110.62 -2.0649 3.51889 0
M  V30 12170 H 1109.29 -1.03161 4.02903 0
M  V30 12171 H 1107.87 -2.42123 2.83603 0
M  V30 12172 N 1110.05 -1.5248 -0.398459 0
M  V30 12173 C 1110.98 -1.79549 -1.49279 0
M  V30 12174 C 1111.96 -0.647004 -1.57315 0
M  V30 12175 O 1113.15 -0.893661 -1.72416 0
M  V30 12176 C 1110.28 -1.95582 -2.86993 0
M  V30 12177 C 1109.23 -3.1123 -2.93803 0
M  V30 12178 C 1108.56 -3.12501 -4.33874 0
M  V30 12179 C 1109.86 -4.50485 -2.64312 0
M  V30 12180 H 1111.55 -2.71187 -1.26877 0
M  V30 12181 H 1109.1 -1.30492 -0.608924 0
M  V30 12182 H 1111.05 -2.13102 -3.63546 0
M  V30 12183 H 1109.78 -1.00625 -3.10712 0
M  V30 12184 H 1108.44 -2.93477 -2.19697 0
M  V30 12185 H 1108.08 -2.15245 -4.54619 0
M  V30 12186 H 1107.78 -3.90183 -4.39353 0
M  V30 12187 H 1109.31 -3.32164 -5.12347 0
M  V30 12188 H 1110.72 -4.68387 -3.30585 0
M  V30 12189 H 1109.12 -5.30163 -2.81153 0
M  V30 12190 H 1110.19 -4.57848 -1.59696 0
M  V30 12191 N 1111.53 0.65634 -1.43283 0
M  V30 12192 C 1112.94 1.23744 -1.39801 0
M  V30 12193 C 1113.29 1.95942 -0.100507 0
M  V30 12194 O 1112.42 2.01063 0.800161 0
M  V30 12195 C 1113.01 2.25062 -2.53244 0
M  V30 12196 C 1111.57 2.78657 -2.53036 0
M  V30 12197 C 1110.72 1.53251 -2.31105 0
M  V30 12198 H 1113.67 0.448553 -1.52229 0
M  V30 12199 H 1113.69 3.07174 -2.24553 0
M  V30 12200 H 1113.2 1.72487 -3.47664 0
M  V30 12201 H 1111.3 3.35304 -1.62487 0
M  V30 12202 H 1111.42 3.26414 -3.507 0
M  V30 12203 H 1109.78 1.80487 -1.79713 0
M  V30 12204 H 1110.56 1.02615 -3.27605 0
M  V30 12205 N 1113.01 1.29761 0.894412 0
M  V30 12206 C 1114.23 1.21064 1.68399 0
M  V30 12207 C 1114.66 -0.224608 1.86754 0
M  V30 12208 O 1114.02 -1.16199 1.39167 0
M  V30 12209 C 1114.07 1.93468 3.04306 0
M  V30 12210 O 1113.17 1.25533 3.9283 0
M  V30 12211 H 1112.51 0.419223 0.514925 0
M  V30 12212 H 1115.04 1.71421 1.11696 0
M  V30 12213 H 1115.05 2.02127 3.54413 0
M  V30 12214 H 1113.73 2.97857 2.90265 0
M  V30 12215 H 1112.3 1.25168 3.51266 0
M  V30 12216 N 1114.49 -1.10549 1.12324 0
M  V30 12217 C 1115.4 -2.20428 0.803032 0
M  V30 12218 C 1116.41 -1.72756 -0.207674 0
M  V30 12219 O 1117.59 -2.01357 -0.0415623 0
M  V30 12220 C 1114.65 -3.45716 0.261032 0
M  V30 12221 C 1113.72 -4.08129 1.33152 0
M  V30 12222 C 1112.95 -5.27436 0.815288 0
M  V30 12223 O 1113.17 -5.69317 -0.351361 0
M  V30 12224 O 1112.11 -5.80674 1.58434 0
M  V30 12225 H 1115.93 -2.50249 1.72073 0
M  V30 12226 H 1113.52 -1.19263 0.899815 0
M  V30 12227 H 1115.4 -4.21384 -0.0364007 0
M  V30 12228 H 1114.07 -3.17525 -0.629249 0
M  V30 12229 H 1112.98 -3.3415 1.6821 0
M  V30 12230 H 1114.31 -4.4052 2.19552 0
M  V30 12231 N 1115.97 -0.914965 -1.28321 0
M  V30 12232 C 1117.21 -0.549562 -1.95212 0
M  V30 12233 C 1117.54 0.904658 -1.71842 0
M  V30 12234 O 1116.82 1.64354 -1.04009 0
M  V30 12235 C 1117.1 -0.860927 -3.49657 0
M  V30 12236 C 1116.96 -2.36797 -3.82423 0
M  V30 12237 C 1118.27 -0.357926 -4.38642 0
M  V30 12238 H 1115.39 -0.201136 -0.709023 0
M  V30 12239 H 1118.04 -1.14443 -1.51667 0
M  V30 12240 H 1116.19 -0.354665 -3.86878 0
M  V30 12241 H 1117.86 -2.94494 -3.55065 0
M  V30 12242 H 1116.1 -2.82245 -3.29424 0
M  V30 12243 H 1116.77 -2.53637 -4.90278 0
M  V30 12244 H 1119.25 -0.791636 -4.085 0
M  V30 12245 H 1118.12 -0.604855 -5.45557 0
M  V30 12246 H 1118.38 0.741775 -4.35833 0
M  V30 12247 N 1117.44 1.42219 -0.679077 0
M  V30 12248 C 1118.35 2.346 -0.00345919 0
M  V30 12249 C 1119.37 1.55327 0.784181 0
M  V30 12250 O 1120.55 1.87878 0.725524 0
M  V30 12251 C 1117.61 3.33905 0.933194 0
M  V30 12252 C 1116.67 4.29073 0.139607 0
M  V30 12253 C 1115.9 5.23634 1.03165 0
M  V30 12254 O 1116.13 5.23234 2.27119 0
M  V30 12255 O 1115.06 5.99901 0.490159 0
M  V30 12256 H 1118.89 2.9392 -0.764525 0
M  V30 12257 H 1116.47 1.42794 -0.439329 0
M  V30 12258 H 1118.35 3.949 1.47077 0
M  V30 12259 H 1117.03 2.77052 1.67404 0
M  V30 12260 H 1115.94 3.71478 -0.442177 0
M  V30 12261 H 1117.27 4.88979 -0.562214 0
M  V30 12262 N 1118.92 0.422693 1.51826 0
M  V30 12263 C 1120.34 0.0742364 1.59427 0
M  V30 12264 C 1120.54 -1.41491 1.43466 0
M  V30 12265 O 1119.59 -2.18326 1.26846 0
M  V30 12266 C 1120.91 0.581272 2.95028 0
M  V30 12267 C 1122.45 0.54043 3.08299 0
M  V30 12268 C 1122.93 1.0242 4.46401 0
M  V30 12269 N 1124.42 0.981576 4.5268 0
M  V30 12270 C 1125.16 1.32693 5.57835 0
M  V30 12271 N 1124.65 1.74441 6.70479 0
M  V30 12272 N 1126.44 1.24603 5.48115 0
M  V30 12273 H 1118.6 1.39178 1.60447 0
M  V30 12274 H 1120.86 0.572607 0.75553 0
M  V30 12275 H 1120.56 1.62261 3.12032 0
M  V30 12276 H 1120.44 -0.00176969 3.772 0
M  V30 12277 H 1122.83 -0.491895 2.90971 0
M  V30 12278 H 1122.91 1.15969 2.28002 0
M  V30 12279 H 1122.55 2.05491 4.64474 0
M  V30 12280 H 1122.48 0.381613 5.25215 0
M  V30 12281 H 1124.97 0.674808 3.71826 0
M  V30 12282 H 1125.28 1.99068 7.46721 0
M  V30 12283 H 1123.63 1.78356 6.71725 0
M  V30 12284 H 1126.82 0.918641 4.58997 0
M  V30 12285 H 1126.99 1.51847 6.29958 0
M  V30 12286 N 1120.4 -1.5685 0.153553 0
M  V30 12287 C 1121.33 -2.20101 -0.779601 0
M  V30 12288 C 1122.31 -1.15121 -1.25225 0
M  V30 12289 O 1123.5 -1.43487 -1.30862 0
M  V30 12290 C 1120.63 -2.82778 -2.01628 0
M  V30 12291 C 1119.58 -3.93643 -1.68015 0
M  V30 12292 C 1118.91 -4.43286 -2.99001 0
M  V30 12293 C 1120.21 -5.14102 -0.921774 0
M  V30 12294 H 1121.9 -2.98334 -0.252432 0
M  V30 12295 H 1119.45 -1.43499 -0.119975 0
M  V30 12296 H 1121.4 -3.25696 -2.67395 0
M  V30 12297 H 1120.12 -2.01887 -2.56728 0
M  V30 12298 H 1118.78 -3.51354 -1.04624 0
M  V30 12299 H 1118.43 -3.59208 -3.52106 0
M  V30 12300 H 1118.13 -5.18068 -2.77272 0
M  V30 12301 H 1119.65 -4.88878 -3.65828 0
M  V30 12302 H 1121.07 -5.53823 -1.48167 0
M  V30 12303 H 1119.46 -5.94687 -0.804185 0
M  V30 12304 H 1120.53 -4.84825 0.0852757 0
M  V30 12305 N 1121.88 0.120221 -1.57141 0
M  V30 12306 C 1123.29 0.473718 -1.52408 0
M  V30 12307 C 1123.49 1.81925 -0.866354 0
M  V30 12308 O 1122.55 2.48491 -0.448173 0
M  V30 12309 C 1123.86 0.459338 -2.97171 0
M  V30 12310 C 1125.41 0.542975 -3.08254 0
M  V30 12311 C 1125.89 0.558996 -4.54576 0
M  V30 12312 N 1127.38 0.620469 -4.59026 0
M  V30 12313 C 1128.11 0.654292 -5.69655 0
M  V30 12314 N 1127.61 0.645835 -6.89783 0
M  V30 12315 N 1129.4 0.697208 -5.57759 0
M  V30 12316 H 1121.55 -0.76142 -1.98283 0
M  V30 12317 H 1123.81 -0.280736 -0.905479 0
M  V30 12318 H 1123.52 -0.461654 -3.48657 0
M  V30 12319 H 1123.39 1.28759 -3.54543 0
M  V30 12320 H 1125.78 1.45439 -2.56772 0
M  V30 12321 H 1125.86 -0.312936 -2.53879 0
M  V30 12322 H 1125.51 -0.348367 -5.06704 0
M  V30 12323 H 1125.44 1.43177 -5.06762 0
M  V30 12324 H 1127.93 0.633218 -3.72557 0
M  V30 12325 H 1128.24 0.674233 -7.69853 0
M  V30 12326 H 1126.59 0.613279 -6.92289 0
M  V30 12327 H 1129.78 0.70117 -4.62819 0
M  V30 12328 H 1129.95 0.7201 -6.43986 0
M  V30 12329 N 1123.36 1.52689 0.390367 0
M  V30 12330 C 1124.3 1.7737 1.47677 0
M  V30 12331 C 1125.27 0.616864 1.54221 0
M  V30 12332 O 1126.46 0.856437 1.70499 0
M  V30 12333 C 1123.6 1.94715 2.84921 0
M  V30 12334 C 1122.71 3.22405 2.8754 0
M  V30 12335 C 1121.85 3.30074 4.16202 0
M  V30 12336 C 1120.89 4.51893 4.12867 0
M  V30 12337 N 1120.02 4.56851 5.33134 0
M  V30 12338 H 1124.86 2.70084 1.25932 0
M  V30 12339 H 1122.4 1.33813 0.610943 0
M  V30 12340 H 1124.36 2.02755 3.64618 0
M  V30 12341 H 1122.99 1.05363 3.0512 0
M  V30 12342 H 1122.04 3.23442 2.00223 0
M  V30 12343 H 1123.35 4.12156 2.80943 0
M  V30 12344 H 1122.51 3.3729 5.04302 0
M  V30 12345 H 1121.24 2.38295 4.25519 0
M  V30 12346 H 1120.25 4.44803 3.23156 0
M  V30 12347 H 1121.47 5.44987 4.05174 0
M  V30 12348 H 1119.42 3.67963 5.43083 0
M  V30 12349 H 1119.34 5.40472 5.28607 0
M  V30 12350 H 1120.61 4.6832 6.23134 0
M  V30 12351 N 1124.83 -0.648732 1.43629 0
M  V30 12352 C 1125.74 -1.79046 1.51591 0
M  V30 12353 C 1126.76 -1.69276 0.402697 0
M  V30 12354 O 1127.94 -1.90366 0.657484 0
M  V30 12355 C 1125 -3.15347 1.44073 0
M  V30 12356 C 1124.06 -3.3688 2.66102 0
M  V30 12357 C 1123.3 -4.66679 2.58933 0
M  V30 12358 O 1123.52 -5.46328 1.63956 0
M  V30 12359 O 1122.45 -4.9003 3.49506 0
M  V30 12360 H 1126.28 -1.75283 2.48011 0
M  V30 12361 H 1123.86 -0.807774 1.2568 0
M  V30 12362 H 1125.75 -3.96633 1.42339 0
M  V30 12363 H 1124.42 -3.19691 0.50789 0
M  V30 12364 H 1123.33 -2.55341 2.73407 0
M  V30 12365 H 1124.66 -3.37386 3.58373 0
M  V30 12366 N 1126.31 -1.30234 -0.887518 0
M  V30 12367 C 1127.56 -1.18277 -1.63381 0
M  V30 12368 C 1127.87 0.262079 -1.93836 0
M  V30 12369 O 1129.08 0.503127 -2.66797 0
M  V30 12370 C 1127.54 -2.06944 -2.94452 0
M  V30 12371 C 1127.14 -3.56323 -2.71547 0
M  V30 12372 C 1128.89 -2.03743 -3.7241 0
M  V30 12373 C 1126.8 -4.37054 -3.98419 0
M  V30 12374 H 1125.73 -0.439087 -0.612959 0
M  V30 12375 H 1128.38 -1.54964 -0.982779 0
M  V30 12376 H 1126.76 -1.63138 -3.60835 0
M  V30 12377 H 1127.93 -4.08261 -2.13681 0
M  V30 12378 H 1126.25 -3.61321 -2.06969 0
M  V30 12379 H 1128.84 -2.61312 -4.66497 0
M  V30 12380 H 1129.19 -1.02029 -4.03603 0
M  V30 12381 H 1129.72 -2.45657 -3.12886 0
M  V30 12382 H 1126.46 -5.39453 -3.72385 0
M  V30 12383 H 1125.98 -3.89881 -4.55799 0
M  V30 12384 H 1127.66 -4.48356 -4.66462 0
M  V30 12385 N 1127.79 1.09952 -1.12909 0
M  V30 12386 C 1128.72 2.16257 -0.759305 0
M  V30 12387 C 1129.74 1.61355 0.216427 0
M  V30 12388 O 1130.92 1.785 -0.00297224 0
M  V30 12389 C 1128.02 3.38741 -0.103908 0
M  V30 12390 C 1127.2 4.23072 -1.11037 0
M  V30 12391 C 1126.26 5.23991 -0.481667 0
M  V30 12392 O 1125.28 5.57665 -1.14011 0
M  V30 12393 N 1126.48 5.75652 0.748698 0
M  V30 12394 H 1129.25 2.48588 -1.67405 0
M  V30 12395 H 1126.81 1.25617 -1.02137 0
M  V30 12396 H 1128.8 4.03362 0.328799 0
M  V30 12397 H 1127.37 3.04344 0.713677 0
M  V30 12398 H 1126.59 3.5467 -1.72054 0
M  V30 12399 H 1127.88 4.76244 -1.79078 0
M  V30 12400 H 1127.28 5.505 1.30253 0
M  V30 12401 H 1125.84 6.42033 1.12415 0
M  V30 12402 N 1129.27 0.921757 1.27833 0
M  V30 12403 C 1130.55 0.477706 1.89677 0
M  V30 12404 C 1130.93 -1.04392 1.83481 0
M  V30 12405 O 1130.27 -1.89549 1.27606 0
M  V30 12406 C 1130.48 1.01709 3.33851 0
M  V30 12407 C 1131.83 1.074 4.10792 0
M  V30 12408 O 1132.86 0.966295 3.42843 0
M  V30 12409 O 1131.71 1.23909 5.32268 0
M  V30 12410 H 1128.81 0.15271 0.812778 0
M  V30 12411 H 1131.35 1.01306 1.36144 0
M  V30 12412 H 1130.13 2.061 3.32623 0
M  V30 12413 H 1129.75 0.463031 3.94895 0
M  V30 12414 N 1130.75 -1.41857 0.686609 0
M  V30 12415 C 1131.69 -2.30795 0.015643 0
M  V30 12416 C 1132.66 -1.46616 -0.780569 0
M  V30 12417 O 1133.85 -1.75423 -0.750424 0
M  V30 12418 C 1130.99 -3.32577 -0.921229 0
M  V30 12419 C 1130.1 -4.3184 -0.117585 0
M  V30 12420 C 1129.24 -5.20693 -1.05128 0
M  V30 12421 C 1128.28 -6.11629 -0.240018 0
M  V30 12422 N 1127.41 -6.92995 -1.12704 0
M  V30 12423 H 1132.25 -2.87615 0.77985 0
M  V30 12424 H 1129.79 -1.41661 0.396298 0
M  V30 12425 H 1131.75 -3.90129 -1.47836 0
M  V30 12426 H 1130.38 -2.77328 -1.65193 0
M  V30 12427 H 1129.43 -3.7631 0.55634 0
M  V30 12428 H 1130.74 -4.96168 0.511753 0
M  V30 12429 H 1129.9 -5.83035 -1.67795 0
M  V30 12430 H 1128.63 -4.5657 -1.71449 0
M  V30 12431 H 1127.64 -5.48345 0.399779 0
M  V30 12432 H 1128.86 -6.77805 0.419266 0
M  V30 12433 H 1126.81 -6.31489 -1.77644 0
M  V30 12434 H 1126.73 -7.53974 -0.553065 0
M  V30 12435 H 1128 -7.59813 -1.7408 0
M  V30 12436 N 1132.22 -0.430739 -1.51599 0
M  V30 12437 C 1133.45 0.139197 -2.06932 0
M  V30 12438 C 1133.87 1.3626 -1.29672 0
M  V30 12439 O 1133.23 1.78219 -0.332836 0
M  V30 12440 C 1133.28 0.446593 -3.57824 0
M  V30 12441 O 1132.38 1.53414 -3.82803 0
M  V30 12442 H 1131.73 0.00475812 -0.663983 0
M  V30 12443 H 1134.26 -0.610171 -1.9529 0
M  V30 12444 H 1134.27 0.698972 -4.01968 0
M  V30 12445 H 1132.94 -0.447613 -4.13484 0
M  V30 12446 H 1131.52 1.27224 -3.50526 0
M  V30 12447 N 1133.7 1.56767 -0.161869 0
M  V30 12448 C 1134.61 2.21083 0.784814 0
M  V30 12449 C 1135.63 1.19959 1.26039 0
M  V30 12450 O 1136.8 1.52588 1.31449 0
M  V30 12451 C 1133.87 2.83153 2.00063 0
M  V30 12452 C 1132.93 3.9945 1.57285 0
M  V30 12453 C 1132.16 4.5855 2.7307 0
M  V30 12454 O 1132.39 4.16534 3.89686 0
M  V30 12455 O 1131.32 5.48575 2.47688 0
M  V30 12456 H 1135.15 3.02522 0.267243 0
M  V30 12457 H 1132.73 1.49255 0.0658783 0
M  V30 12458 H 1134.61 3.22546 2.71186 0
M  V30 12459 H 1133.29 2.04718 2.50744 0
M  V30 12460 H 1132.2 3.64745 0.831393 0
M  V30 12461 H 1133.53 4.7945 1.11304 0
M  V30 12462 N 1135.18 -0.111886 1.57202 0
M  V30 12463 C 1136.09 -1.1556 2.04165 0
M  V30 12464 C 1137.11 -1.44898 0.963354 0
M  V30 12465 O 1138.28 -1.55873 1.27536 0
M  V30 12466 C 1135.35 -2.46048 2.44256 0
M  V30 12467 C 1134.41 -2.24043 3.66201 0
M  V30 12468 C 1133.64 -3.4831 4.04371 0
M  V30 12469 O 1133.86 -4.55895 3.42806 0
M  V30 12470 O 1132.8 -3.38891 4.9743 0
M  V30 12471 H 1136.62 -0.786778 2.93332 0
M  V30 12472 H 1134.21 -0.323196 1.45862 0
M  V30 12473 H 1136.09 -3.22916 2.70745 0
M  V30 12474 H 1134.77 -2.8239 1.58233 0
M  V30 12475 H 1133.67 -1.4501 3.44852 0
M  V30 12476 H 1135.01 -1.92602 4.52952 0
M  V30 12477 N 1136.66 -1.52894 -0.382264 0
M  V30 12478 C 1137.59 -1.81122 -1.47367 0
M  V30 12479 C 1138.57 -0.663653 -1.56619 0
M  V30 12480 O 1139.75 -0.911898 -1.71459 0
M  V30 12481 C 1136.88 -1.98615 -2.84902 0
M  V30 12482 C 1135.84 -3.14328 -2.90485 0
M  V30 12483 C 1135.16 -3.17086 -4.30535 0
M  V30 12484 C 1136.46 -4.53263 -2.59519 0
M  V30 12485 H 1138.16 -2.72518 -1.23993 0
M  V30 12486 H 1135.7 -1.3113 -0.595049 0
M  V30 12487 H 1137.66 -2.16946 -3.61265 0
M  V30 12488 H 1136.38 -1.03915 -3.09628 0
M  V30 12489 H 1135.04 -2.95791 -2.16572 0
M  V30 12490 H 1134.69 -2.20055 -4.52311 0
M  V30 12491 H 1134.39 -3.94821 -4.3519 0
M  V30 12492 H 1135.91 -3.3758 -5.08795 0
M  V30 12493 H 1137.33 -4.71867 -3.25598 0
M  V30 12494 H 1135.72 -5.33115 -2.75514 0
M  V30 12495 H 1136.79 -4.59516 -1.54831 0
M  V30 12496 N 1138.14 0.641106 -1.43971 0
M  V30 12497 C 1139.09 1.74699 -1.46507 0
M  V30 12498 C 1140.07 1.57437 -0.332037 0
M  V30 12499 O 1141.26 1.67343 -0.576663 0
M  V30 12500 C 1138.39 3.13344 -1.40252 0
M  V30 12501 C 1137.48 3.3611 -2.58632 0
M  V30 12502 N 1137.87 3.29291 -3.83929 0
M  V30 12503 C 1136.17 3.66873 -2.53615 0
M  V30 12504 C 1136.87 3.52472 -4.62751 0
M  V30 12505 N 1135.84 3.74868 -3.93668 0
M  V30 12506 H 1139.65 1.67869 -2.41241 0
M  V30 12507 H 1137.16 0.843217 -1.38793 0
M  V30 12508 H 1139.16 3.92636 -1.40153 0
M  V30 12509 H 1137.82 3.21346 -0.46549 0
M  V30 12510 H 1138.83 3.08431 -4.16041 0
M  V30 12511 H 1135.51 3.81917 -1.68659 0
M  V30 12512 H 1136.9 3.52876 -5.71776 0
M  V30 12513 N 1139.62 1.30703 0.880598 0
M  V30 12514 C 1140.86 1.19142 1.62752 0
M  V30 12515 C 1141.18 -0.251795 1.93973 0
M  V30 12516 O 1142.38 -0.488971 2.67061 0
M  V30 12517 C 1140.84 2.08503 2.93351 0
M  V30 12518 C 1140.45 3.57758 2.69653 0
M  V30 12519 C 1142.19 2.05715 3.71324 0
M  V30 12520 C 1140.1 4.39161 3.96096 0
M  V30 12521 H 1139.03 0.442332 0.610622 0
M  V30 12522 H 1141.68 1.55483 0.974547 0
M  V30 12523 H 1140.06 1.65049 3.59965 0
M  V30 12524 H 1141.24 4.09388 2.11513 0
M  V30 12525 H 1139.55 3.62414 2.0505 0
M  V30 12526 H 1142.15 2.63783 4.65105 0
M  V30 12527 H 1142.49 1.04168 4.03057 0
M  V30 12528 H 1143.02 2.47313 3.11579 0
M  V30 12529 H 1139.76 5.4142 3.69519 0
M  V30 12530 H 1139.28 3.92293 4.53725 0
M  V30 12531 H 1140.96 4.50823 4.64077 0
M  V30 12532 N 1141.09 -1.09351 1.1349 0
M  V30 12533 C 1142.34 -1.80915 0.89177 0
M  V30 12534 C 1142.66 -1.86688 -0.5837 0
M  V30 12535 O 1143.86 -2.54568 -0.943788 0
M  V30 12536 C 1142.32 -3.25009 1.54587 0
M  V30 12537 C 1141.93 -3.27501 3.05691 0
M  V30 12538 C 1143.67 -4.01323 1.38346 0
M  V30 12539 C 1141.58 -4.66123 3.63983 0
M  V30 12540 H 1140.51 -0.677961 0.329978 0
M  V30 12541 H 1143.16 -1.22893 1.3627 0
M  V30 12542 H 1141.54 -3.83098 1.0026 0
M  V30 12543 H 1142.71 -2.79174 3.66604 0
M  V30 12544 H 1141.03 -2.64677 3.21457 0
M  V30 12545 H 1143.63 -5.03739 1.79307 0
M  V30 12546 H 1143.97 -4.15003 0.328404 0
M  V30 12547 H 1144.5 -3.49679 1.89656 0
M  V30 12548 H 1141.24 -4.57646 4.69298 0
M  V30 12549 H 1140.76 -5.14772 3.07848 0
M  V30 12550 H 1142.44 -5.35097 3.63703 0
M  V30 12551 N 1142.57 -0.928524 -1.27343 0
M  V30 12552 C 1143.8 -0.585734 -1.98436 0
M  V30 12553 C 1144.21 0.83644 -1.69261 0
M  V30 12554 O 1143.57 1.55603 -0.953626 0
M  V30 12555 C 1143.62 -0.803092 -3.52467 0
M  V30 12556 O 1143.34 -2.16932 -3.80621 0
M  V30 12557 C 1144.84 -0.469127 -4.40811 0
M  V30 12558 H 1142.06 -0.221887 -0.633251 0
M  V30 12559 H 1144.61 -1.24577 -1.62175 0
M  V30 12560 H 1142.76 -0.189846 -3.86935 0
M  V30 12561 H 1143.18 -2.21992 -4.75205 0
M  V30 12562 H 1144.65 -0.671906 -5.47895 0
M  V30 12563 H 1145.13 0.595365 -4.35146 0
M  V30 12564 H 1145.73 -1.06055 -4.11865 0
M  V30 12565 N 1144.05 1.41491 -0.694123 0
M  V30 12566 C 1145.27 2.06099 -0.23197 0
M  V30 12567 C 1145.7 1.51888 1.10958 0
M  V30 12568 O 1145.06 0.645247 1.69429 0
M  V30 12569 C 1145.11 3.60053 -0.198522 0
M  V30 12570 O 1144.21 4.04021 0.827067 0
M  V30 12571 H 1143.55 0.654193 -0.113699 0
M  V30 12572 H 1146.08 1.81282 -0.948575 0
M  V30 12573 H 1146.09 4.0799 -0.0288904 0
M  V30 12574 H 1144.77 3.98879 -1.17764 0
M  V30 12575 H 1143.34 3.67593 0.626908 0
M  V30 12576 N 1145.53 0.438773 1.51369 0
M  V30 12577 C 1146.44 -0.378074 2.31534 0
M  V30 12578 C 1147.45 -1.02632 1.40508 0
M  V30 12579 O 1148.63 -1.02138 1.73579 0
M  V30 12580 C 1145.69 -1.46374 3.14286 0
M  V30 12581 C 1144.76 -0.835473 4.21092 0
M  V30 12582 C 1143.99 -1.86941 4.99889 0
M  V30 12583 O 1144.21 -3.0918 4.79337 0
M  V30 12584 O 1143.15 -1.45914 5.83946 0
M  V30 12585 H 1146.97 0.276401 3.0244 0
M  V30 12586 H 1144.56 0.201281 1.48038 0
M  V30 12587 H 1146.44 -2.09335 3.65728 0
M  V30 12588 H 1145.11 -2.10227 2.46143 0
M  V30 12589 H 1144.02 -0.167775 3.73724 0
M  V30 12590 H 1145.35 -0.240406 4.91613 0
M  V30 12591 N 1147.01 -1.56678 0.170181 0
M  V30 12592 C 1147.95 -2.17909 -0.760556 0
M  V30 12593 C 1148.92 -1.11875 -1.22773 0
M  V30 12594 O 1150.11 -1.40021 -1.2961 0
M  V30 12595 C 1147.25 -2.82305 -1.9849 0
M  V30 12596 C 1146.36 -4.02796 -1.5614 0
M  V30 12597 C 1145.5 -4.55121 -2.73932 0
M  V30 12598 C 1144.53 -5.68025 -2.28067 0
M  V30 12599 N 1143.67 -6.14865 -3.38947 0
M  V30 12600 H 1148.51 -2.97098 -0.231629 0
M  V30 12601 H 1146.05 -1.46742 -0.102602 0
M  V30 12602 H 1148.01 -3.17797 -2.70298 0
M  V30 12603 H 1146.64 -2.05721 -2.48755 0
M  V30 12604 H 1145.69 -3.73131 -0.740097 0
M  V30 12605 H 1147 -4.84526 -1.18472 0
M  V30 12606 H 1146.15 -4.92789 -3.53898 0
M  V30 12607 H 1144.89 -3.72445 -3.14858 0
M  V30 12608 H 1143.9 -5.2991 -1.46546 0
M  V30 12609 H 1145.12 -6.52501 -1.88199 0
M  V30 12610 H 1143.07 -5.35119 -3.79452 0
M  V30 12611 H 1142.99 -6.91582 -3.05369 0
M  V30 12612 H 1144.25 -6.57183 -4.19203 0
M  V30 12613 N 1148.48 0.103547 -1.57259 0
M  V30 12614 C 1149.76 0.839768 -1.76656 0
M  V30 12615 C 1150.14 1.9734 -0.749666 0
M  V30 12616 O 1149.49 2.27405 0.223466 0
M  V30 12617 C 1149.7 1.34218 -3.22159 0
M  V30 12618 C 1151.05 1.78835 -3.85102 0
M  V30 12619 O 1152.07 1.43861 -3.25857 0
M  V30 12620 O 1150.93 2.43474 -4.89267 0
M  V30 12621 H 1148.02 0.399928 -0.723869 0
M  V30 12622 H 1150.57 0.0860857 -1.69482 0
M  V30 12623 H 1149.34 0.52956 -3.877 0
M  V30 12624 H 1148.96 2.15811 -3.33933 0
M  V30 12625 N 1149.96 1.53094 0.37415 0
M  V30 12626 C 1150.91 1.78927 1.45787 0
M  V30 12627 C 1151.88 0.633187 1.53558 0
M  V30 12628 O 1153.06 0.874472 1.69581 0
M  V30 12629 C 1150.2 1.97726 2.8284 0
M  V30 12630 C 1149.32 3.25436 2.84104 0
M  V30 12631 C 1148.45 3.3447 4.12678 0
M  V30 12632 C 1147.49 4.56246 4.08051 0
M  V30 12633 N 1146.63 4.6248 5.28258 0
M  V30 12634 H 1151.47 2.71404 1.2306 0
M  V30 12635 H 1149 1.34453 0.596716 0
M  V30 12636 H 1150.96 2.06611 3.62447 0
M  V30 12637 H 1149.59 1.08593 3.03986 0
M  V30 12638 H 1148.64 3.25548 1.96781 0
M  V30 12639 H 1149.96 4.15112 2.76556 0
M  V30 12640 H 1149.11 3.4262 5.00696 0
M  V30 12641 H 1147.85 2.42795 4.22968 0
M  V30 12642 H 1146.85 4.48206 3.1842 0
M  V30 12643 H 1148.08 5.49254 3.99371 0
M  V30 12644 H 1146.03 3.73703 5.3915 0
M  V30 12645 H 1145.94 5.46049 5.22845 0
M  V30 12646 H 1147.21 4.74903 6.18132 0
M  V30 12647 N 1151.44 -0.633461 1.44309 0
M  V30 12648 C 1152.37 -1.75676 1.53819 0
M  V30 12649 C 1153.35 -1.65537 0.391365 0
M  V30 12650 O 1154.54 -1.84332 0.611181 0
M  V30 12651 C 1151.67 -3.14197 1.47979 0
M  V30 12652 C 1150.62 -3.39122 2.61113 0
M  V30 12653 C 1149.95 -4.77648 2.40325 0
M  V30 12654 C 1151.25 -3.31914 4.03274 0
M  V30 12655 H 1152.94 -1.67974 2.47841 0
M  V30 12656 H 1150.49 -0.8067 1.19283 0
M  V30 12657 H 1152.44 -3.92553 1.53233 0
M  V30 12658 H 1151.16 -3.22677 0.504718 0
M  V30 12659 H 1149.82 -2.63145 2.55245 0
M  V30 12660 H 1149.47 -4.82829 1.41016 0
M  V30 12661 H 1149.17 -4.95284 3.16177 0
M  V30 12662 H 1150.69 -5.58237 2.47394 0
M  V30 12663 H 1152.11 -4.00178 4.10524 0
M  V30 12664 H 1150.5 -3.61085 4.7931 0
M  V30 12665 H 1151.57 -2.29761 4.2701 0
M  V30 12666 N 1152.92 -1.31168 -0.873655 0
M  V30 12667 C 1154.17 -1.20642 -1.6264 0
M  V30 12668 C 1154.49 0.236286 -1.93059 0
M  V30 12669 O 1153.75 1.18401 -1.55819 0
M  V30 12670 C 1154.05 -1.99204 -2.96736 0
M  V30 12671 C 1153.71 -3.48734 -2.85824 0
M  V30 12672 C 1152.38 -3.89507 -2.82555 0
M  V30 12673 C 1154.73 -4.43905 -2.73127 0
M  V30 12674 C 1152.06 -5.23724 -2.64442 0
M  V30 12675 C 1154.41 -5.78242 -2.56551 0
M  V30 12676 C 1153.07 -6.18241 -2.51663 0
M  V30 12677 H 1152.34 -0.44146 -0.595142 0
M  V30 12678 H 1154.99 -1.62394 -1.01492 0
M  V30 12679 H 1153.29 -1.50122 -3.61899 0
M  V30 12680 H 1154.99 -1.88443 -3.53963 0
M  V30 12681 H 1151.58 -3.1634 -2.89184 0
M  V30 12682 H 1155.76 -4.13338 -2.7471 0
M  V30 12683 H 1151.02 -5.53794 -2.59081 0
M  V30 12684 H 1155.19 -6.51616 -2.45702 0
M  V30 12685 H 1152.82 -7.22185 -2.37387 0
M  V30 12686 N 1154.4 1.08748 -1.14068 0
M  V30 12687 C 1155.62 1.85353 -0.930532 0
M  V30 12688 C 1156.05 1.80892 0.515717 0
M  V30 12689 O 1155.4 1.19146 1.36652 0
M  V30 12690 C 1155.45 3.30962 -1.43167 0
M  V30 12691 O 1154.56 4.0769 -0.621468 0
M  V30 12692 H 1153.9 0.574485 -0.332962 0
M  V30 12693 H 1156.43 1.37282 -1.51707 0
M  V30 12694 H 1156.44 3.81807 -1.43832 0
M  V30 12695 H 1155.11 3.33524 -2.48464 0
M  V30 12696 H 1153.69 3.66587 -0.683267 0
M  V30 12697 N 1155.87 0.935264 1.26849 0
M  V30 12698 C 1156.78 0.446122 2.30319 0
M  V30 12699 C 1157.8 -0.476965 1.67335 0
M  V30 12700 O 1158.98 -0.357934 1.98194 0
M  V30 12701 C 1156.04 -0.286297 3.45516 0
M  V30 12702 C 1155.1 0.672626 4.23998 0
M  V30 12703 C 1154.34 -0.0249345 5.33694 0
M  V30 12704 O 1154.56 -1.24296 5.56693 0
M  V30 12705 O 1153.49 0.650752 5.98372 0
M  V30 12706 H 1157.32 1.30546 2.74211 0
M  V30 12707 H 1154.9 0.70091 1.31938 0
M  V30 12708 H 1156.79 -0.699109 4.1556 0
M  V30 12709 H 1155.46 -1.12112 3.03665 0
M  V30 12710 H 1154.37 1.13527 3.56458 0
M  V30 12711 H 1155.7 1.47489 4.69583 0
M  V30 12712 N 1157.35 -1.41121 0.701616 0
M  V30 12713 C 1158.6 -2.01428 0.235495 0
M  V30 12714 C 1158.93 -1.55463 -1.16382 0
M  V30 12715 O 1158.21 -0.768477 -1.78675 0
M  V30 12716 C 1158.49 -3.58849 0.299919 0
M  V30 12717 C 1158.34 -4.14924 1.73661 0
M  V30 12718 C 1159.66 -4.38809 -0.336856 0
M  V30 12719 H 1156.78 -0.731842 0.0870456 0
M  V30 12720 H 1159.42 -1.67787 0.891479 0
M  V30 12721 H 1157.57 -3.87638 -0.258611 0
M  V30 12722 H 1159.24 -3.96987 2.34945 0
M  V30 12723 H 1157.49 -3.69738 2.26884 0
M  V30 12724 H 1158.16 -5.24085 1.73318 0
M  V30 12725 H 1160.63 -4.15868 0.138886 0
M  V30 12726 H 1159.51 -5.48278 -0.261264 0
M  V30 12727 H 1159.77 -4.18728 -1.41843 0
M  V30 12728 N 1158.83 -0.446794 -1.51134 0
M  V30 12729 C 1160.08 0.116666 -2.02464 0
M  V30 12730 C 1160.41 1.41532 -1.32975 0
M  V30 12731 O 1159.68 1.89278 -0.447651 0
M  V30 12732 C 1159.97 0.325659 -3.58624 0
M  V30 12733 C 1159.82 -0.992307 -4.38718 0
M  V30 12734 C 1161.14 1.09121 -4.26357 0
M  V30 12735 H 1158.26 0.0409262 -0.735863 0
M  V30 12736 H 1160.9 -0.587641 -1.80684 0
M  V30 12737 H 1159.05 0.925585 -3.77313 0
M  V30 12738 H 1160.72 -1.62694 -4.31658 0
M  V30 12739 H 1158.97 -1.5947 -4.03425 0
M  V30 12740 H 1159.64 -0.800005 -5.46172 0
M  V30 12741 H 1162.11 0.582944 -4.11996 0
M  V30 12742 H 1160.99 1.20621 -5.35483 0
M  V30 12743 H 1161.25 2.12171 -3.87861 0
M  V30 12744 N 1160.31 1.56586 -0.178487 0
M  V30 12745 C 1161.26 2.1491 0.761432 0
M  V30 12746 C 1162.24 1.08528 1.18788 0
M  V30 12747 O 1163.43 1.34633 1.14904 0
M  V30 12748 C 1160.56 2.79902 1.98771 0
M  V30 12749 C 1159.65 3.93452 1.58293 0
M  V30 12750 N 1160.04 4.97942 0.888124 0
M  V30 12751 C 1158.34 4.04745 1.87343 0
M  V30 12752 C 1159.04 5.7762 0.68772 0
M  V30 12753 N 1158.02 5.2947 1.23136 0
M  V30 12754 H 1161.82 2.93063 0.221693 0
M  V30 12755 H 1159.33 1.62385 0.0219283 0
M  V30 12756 H 1161.33 3.20067 2.67138 0
M  V30 12757 H 1159.99 2.03232 2.53233 0
M  V30 12758 H 1161 5.1502 0.545387 0
M  V30 12759 H 1157.68 3.39186 2.43432 0
M  V30 12760 H 1159.07 6.71759 0.13775 0
M  V30 12761 N 1161.79 -0.095206 1.57312 0
M  V30 12762 C 1162.73 -1.11551 2.02052 0
M  V30 12763 C 1163.7 -1.39808 0.896818 0
M  V30 12764 O 1164.89 -1.51273 1.1628 0
M  V30 12765 C 1162.03 -2.43056 2.44985 0
M  V30 12766 C 1161.14 -2.21531 3.70875 0
M  V30 12767 C 1160.28 -3.46434 4.02687 0
M  V30 12768 C 1159.32 -3.2017 5.21687 0
M  V30 12769 N 1158.45 -4.37339 5.49253 0
M  V30 12770 H 1163.29 -0.727 2.88996 0
M  V30 12771 H 1160.83 -0.347441 1.42938 0
M  V30 12772 H 1162.79 -3.19803 2.67921 0
M  V30 12773 H 1161.42 -2.79754 1.61051 0
M  V30 12774 H 1160.47 -1.35587 3.55416 0
M  V30 12775 H 1161.78 -1.98116 4.57768 0
M  V30 12776 H 1160.94 -4.31589 4.26399 0
M  V30 12777 H 1159.67 -3.72904 3.14315 0
M  V30 12778 H 1158.68 -2.33409 4.97796 0
M  V30 12779 H 1159.9 -2.95047 6.11657 0
M  V30 12780 H 1157.85 -4.63885 4.6384 0
M  V30 12781 H 1157.77 -4.17114 6.30517 0
M  V30 12782 H 1159.04 -5.23559 5.775 0
M  V30 12783 N 1163.26 -1.53291 -0.366026 0
M  V30 12784 C 1164.17 -1.82656 -1.47221 0
M  V30 12785 C 1165.19 -0.71491 -1.58635 0
M  V30 12786 O 1166.37 -1.00492 -1.74538 0
M  V30 12787 C 1163.43 -2.00995 -2.82492 0
M  V30 12788 C 1162.49 -3.24895 -2.8061 0
M  V30 12789 C 1161.73 -3.4235 -4.09429 0
M  V30 12790 O 1161.95 -2.6411 -5.05571 0
M  V30 12791 O 1160.88 -4.35702 -4.15268 0
M  V30 12792 H 1164.71 -2.76634 -1.2533 0
M  V30 12793 H 1162.29 -1.38665 -0.556084 0
M  V30 12794 H 1164.18 -2.14632 -3.62645 0
M  V30 12795 H 1162.85 -1.10207 -3.04362 0
M  V30 12796 H 1161.76 -3.16682 -1.99157 0
M  V30 12797 H 1163.09 -4.15604 -2.63694 0
M  V30 12798 N 1164.74 0.6258 -1.44643 0
M  V30 12799 C 1165.97 1.41726 -1.51422 0
M  V30 12800 C 1166.39 1.87565 -0.14181 0
M  V30 12801 O 1165.75 1.59059 0.870054 0
M  V30 12802 C 1165.8 2.61012 -2.48807 0
M  V30 12803 O 1164.9 3.61029 -1.99328 0
M  V30 12804 H 1164.24 0.423855 -0.511119 0
M  V30 12805 H 1166.77 0.763336 -1.89827 0
M  V30 12806 H 1166.78 3.08489 -2.67018 0
M  V30 12807 H 1165.46 2.26995 -3.48491 0
M  V30 12808 H 1164.04 3.20325 -1.90909 0
M  V30 12809 N 1166.22 1.31629 0.866686 0
M  V30 12810 C 1167.64 1.10358 1.15296 0
M  V30 12811 C 1167.84 -0.123807 2.01119 0
M  V30 12812 O 1166.89 -0.81219 2.39081 0
M  V30 12813 C 1168.21 2.37684 1.84193 0
M  V30 12814 C 1169.75 2.43326 1.9688 0
M  V30 12815 C 1170.23 3.70541 2.69191 0
M  V30 12816 N 1171.72 3.71454 2.76724 0
M  V30 12817 C 1172.45 4.66585 3.33295 0
M  V30 12818 N 1171.95 5.72075 3.90771 0
M  V30 12819 N 1173.74 4.541 3.31284 0
M  V30 12820 H 1165.89 2.10343 0.29487 0
M  V30 12821 H 1168.16 0.928096 0.193239 0
M  V30 12822 H 1167.86 3.27352 1.28582 0
M  V30 12823 H 1167.74 2.47731 2.84445 0
M  V30 12824 H 1170.12 1.54124 2.51654 0
M  V30 12825 H 1170.21 2.3724 0.956596 0
M  V30 12826 H 1169.85 4.60111 2.15083 0
M  V30 12827 H 1169.78 3.73894 3.70825 0
M  V30 12828 H 1172.27 2.952 2.35936 0
M  V30 12829 H 1172.58 6.40738 4.32058 0
M  V30 12830 H 1170.93 5.75844 3.89138 0
M  V30 12831 H 1174.12 3.70861 2.85622 0
M  V30 12832 H 1174.29 5.28416 3.75074 0
M  V30 12833 N 1167.7 -1.08142 1.14644 0
M  V30 12834 C 1168.95 -1.80849 0.917685 0
M  V30 12835 C 1169.28 -1.86123 -0.554249 0
M  V30 12836 O 1168.55 -1.33907 -1.41065 0
M  V30 12837 C 1168.84 -3.26325 1.52264 0
M  V30 12838 C 1168.69 -3.29244 3.06461 0
M  V30 12839 C 1170.01 -4.23375 1.20175 0
M  V30 12840 H 1167.13 -0.656559 0.334812 0
M  V30 12841 H 1169.77 -1.26595 1.41682 0
M  V30 12842 H 1167.92 -3.72656 1.09817 0
M  V30 12843 H 1169.59 -2.91216 3.57758 0
M  V30 12844 H 1167.83 -2.68438 3.40769 0
M  V30 12845 H 1168.51 -4.31785 3.43897 0
M  V30 12846 H 1170.98 -3.85394 1.56877 0
M  V30 12847 H 1169.86 -5.23472 1.65132 0
M  V30 12848 H 1170.12 -4.41944 0.117474 0
M  V30 12849 N 1169.18 -0.941978 -1.26351 0
M  V30 12850 C 1170.11 -0.409504 -2.25512 0
M  V30 12851 C 1171.12 0.467665 -1.55938 0
M  V30 12852 O 1172.31 0.277982 -1.76322 0
M  V30 12853 C 1169.41 0.430487 -3.36155 0
M  V30 12854 C 1168.58 -0.430714 -4.35274 0
M  V30 12855 C 1167.64 0.348976 -5.25042 0
M  V30 12856 O 1166.67 -0.24827 -5.68658 0
M  V30 12857 N 1167.87 1.64531 -5.56695 0
M  V30 12858 H 1170.64 -1.26196 -2.71836 0
M  V30 12859 H 1168.2 -0.810947 -1.40126 0
M  V30 12860 H 1170.19 0.959501 -3.93161 0
M  V30 12861 H 1168.76 1.18375 -2.8932 0
M  V30 12862 H 1167.98 -1.14093 -3.77328 0
M  V30 12863 H 1169.27 -1.01896 -4.98492 0
M  V30 12864 H 1168.67 2.15266 -5.23142 0
M  V30 12865 H 1167.22 2.12055 -6.16341 0
M  V30 12866 N 1170.66 1.40747 -0.709091 0
M  V30 12867 C 1171.9 2.00606 -0.245324 0
M  V30 12868 C 1172.22 1.56489 1.16346 0
M  V30 12869 O 1171.49 0.801456 1.78755 0
M  V30 12870 H 1170.07 0.741833 -0.0877098 0
M  V30 12871 H 1172.74 1.72178 -0.913271 0
M  V30 12872 H 1171.83 3.10901 -0.273322 0
M  V30 12873 N 1172.13 0.454803 1.50895 0
M  V30 12874 C 1173.06 -0.337982 2.31041 0
M  V30 12875 C 1174.04 -1.00523 1.37219 0
M  V30 12876 O 1175.23 -1.00553 1.66141 0
M  V30 12877 C 1172.36 -1.42964 3.1651 0
M  V30 12878 C 1171.31 -0.884907 4.18752 0
M  V30 12879 C 1170.64 -2.07363 4.92854 0
M  V30 12880 C 1171.94 0.0926716 5.22218 0
M  V30 12881 H 1173.63 0.33089 2.97566 0
M  V30 12882 H 1171.18 0.160577 1.43102 0
M  V30 12883 H 1173.13 -1.9916 3.71367 0
M  V30 12884 H 1171.86 -2.12705 2.47839 0
M  V30 12885 H 1170.52 -0.345031 3.64973 0
M  V30 12886 H 1170.16 -2.75764 4.2067 0
M  V30 12887 H 1169.86 -1.71545 5.62002 0
M  V30 12888 H 1171.39 -2.6408 5.5054 0
M  V30 12889 H 1172.8 -0.379568 5.72042 0
M  V30 12890 H 1171.2 0.3643 5.98993 0
M  V30 12891 H 1172.27 1.02383 4.73968 0
M  V30 12892 N 1173.61 -1.56489 0.186789 0
M  V30 12893 C 1174.54 -2.21705 -0.732739 0
M  V30 12894 C 1175.52 -1.17751 -1.22755 0
M  V30 12895 O 1176.71 -1.46231 -1.27789 0
M  V30 12896 C 1173.84 -2.86992 -1.95584 0
M  V30 12897 C 1172.79 -3.97118 -1.59628 0
M  V30 12898 C 1172.12 -4.49529 -2.89531 0
M  V30 12899 C 1173.42 -5.15941 -0.812518 0
M  V30 12900 H 1175.11 -2.98802 -0.189094 0
M  V30 12901 H 1172.66 -1.43722 -0.0895099 0
M  V30 12902 H 1174.61 -3.31295 -2.60426 0
M  V30 12903 H 1173.33 -2.07287 -2.52388 0
M  V30 12904 H 1171.99 -3.53494 -0.971475 0
M  V30 12905 H 1171.64 -3.66596 -3.44407 0
M  V30 12906 H 1171.34 -5.23832 -2.66221 0
M  V30 12907 H 1172.87 -4.96528 -3.55376 0
M  V30 12908 H 1174.28 -5.56841 -1.36386 0
M  V30 12909 H 1172.68 -5.96259 -0.677862 0
M  V30 12910 H 1173.75 -4.84535 0.188095 0
M  V30 12911 N 1175.09 0.086862 -1.5736 0
M  V30 12912 C 1176 1.12297 -2.05977 0
M  V30 12913 C 1177.02 1.43347 -0.986284 0
M  V30 12914 O 1178.19 1.53825 -1.3 0
M  V30 12915 C 1175.26 2.42131 -2.4814 0
M  V30 12916 C 1174.32 2.18189 -3.69719 0
M  V30 12917 C 1173.55 3.41833 -4.09861 0
M  V30 12918 O 1173.77 4.50383 -3.50016 0
M  V30 12919 O 1172.71 3.30934 -5.02759 0
M  V30 12920 H 1176.53 0.740012 -2.94546 0
M  V30 12921 H 1174.12 0.29995 -1.46358 0
M  V30 12922 H 1176 3.18568 -2.75848 0
M  V30 12923 H 1174.68 2.79837 -1.62705 0
M  V30 12924 H 1173.58 1.39506 -3.47115 0
M  V30 12925 H 1174.92 1.85372 -4.55959 0
M  V30 12926 N 1176.57 1.53483 0.357892 0
M  V30 12927 C 1177.48 1.83434 1.4625 0
M  V30 12928 C 1178.49 0.723313 1.58254 0
M  V30 12929 O 1179.67 1.01416 1.74002 0
M  V30 12930 C 1176.73 2.0249 2.81423 0
M  V30 12931 C 1175.8 3.26378 2.78883 0
M  V30 12932 C 1175.03 3.44516 4.07608 0
M  V30 12933 O 1175.25 2.66787 5.04163 0
M  V30 12934 O 1174.19 4.37898 4.12952 0
M  V30 12935 H 1178.01 2.77294 1.23861 0
M  V30 12936 H 1175.6 1.38958 0.548722 0
M  V30 12937 H 1177.48 2.16552 3.61501 0
M  V30 12938 H 1176.15 1.11819 3.03773 0
M  V30 12939 H 1175.06 3.17733 1.97475 0
M  V30 12940 H 1176.39 4.16996 2.61486 0
M  V30 12941 N 1178.05 -0.61812 1.44973 0
M  V30 12942 C 1179.29 -1.37343 1.47715 0
M  V30 12943 C 1179.61 -1.95239 0.118784 0
M  V30 12944 O 1180.81 -2.7149 0.0237981 0
M  V30 12945 C 1179.27 -2.48732 2.60116 0
M  V30 12946 C 1178.88 -1.97294 4.02218 0
M  V30 12947 C 1180.62 -3.25831 2.72093 0
M  V30 12948 C 1178.53 -3.06102 5.06019 0
M  V30 12949 H 1177.46 -0.516175 0.549617 0
M  V30 12950 H 1180.11 -0.663617 1.7108 0
M  V30 12951 H 1178.49 -3.2235 2.30014 0
M  V30 12952 H 1179.67 -1.30455 4.41948 0
M  V30 12953 H 1177.98 -1.32972 3.94598 0
M  V30 12954 H 1180.58 -4.06968 3.46815 0
M  V30 12955 H 1180.92 -3.76156 1.7836 0
M  V30 12956 H 1181.45 -2.59309 3.01668 0
M  V30 12957 H 1178.19 -2.60706 6.01426 0
M  V30 12958 H 1177.71 -3.71541 4.70869 0
M  V30 12959 H 1179.39 -3.70662 5.30301 0
M  V30 12960 N 1179.52 -1.32087 -0.859693 0
M  V30 12961 C 1180.77 -1.22119 -1.61033 0
M  V30 12962 C 1181.09 0.218289 -1.93774 0
M  V30 12963 O 1180.36 1.14172 -1.5919 0
M  V30 12964 H 1178.94 -0.448989 -0.597008 0
M  V30 12965 H 1181.6 -1.65545 -1.02863 0
M  V30 12966 H 1180.7 -1.80023 -2.54947 0
M  V30 12967 N 1181 1.07532 -1.15215 0
M  V30 12968 C 1181.95 2.14687 -0.847243 0
M  V30 12969 C 1182.92 1.64903 0.199043 0
M  V30 12970 O 1184.1 1.90682 0.0669986 0
M  V30 12971 C 1181.24 3.43414 -0.340673 0
M  V30 12972 C 1180.36 4.06999 -1.44831 0
M  V30 12973 C 1179.49 5.23554 -0.898059 0
M  V30 12974 C 1178.53 5.79097 -1.98276 0
M  V30 12975 N 1177.67 6.86985 -1.44902 0
M  V30 12976 H 1182.51 2.4011 -1.76498 0
M  V30 12977 H 1180.04 1.17823 -0.880689 0
M  V30 12978 H 1182 4.1719 -0.0286956 0
M  V30 12979 H 1180.63 3.18249 0.540144 0
M  V30 12980 H 1179.68 3.30895 -1.87651 0
M  V30 12981 H 1181 4.44289 -2.26735 0
M  V30 12982 H 1180.15 6.04305 -0.538514 0
M  V30 12983 H 1178.89 4.87676 -0.0481752 0
M  V30 12984 H 1177.89 4.96992 -2.35115 0
M  V30 12985 H 1179.12 6.1703 -2.83639 0
M  V30 12986 H 1177.07 6.5305 -0.621468 0
M  V30 12987 H 1176.98 7.23149 -2.20434 0
M  V30 12988 H 1178.25 7.71446 -1.11767 0
M  V30 12989 N 1182.48 0.948665 1.2585 0
M  V30 12990 C 1183.71 0.617229 1.97479 0
M  V30 12991 C 1184.12 -0.809406 1.7057 0
M  V30 12992 O 1183.48 -1.54066 0.97826 0
M  V30 12993 C 1183.53 0.859065 3.51144 0
M  V30 12994 O 1183.25 2.2296 3.77121 0
M  V30 12995 C 1184.75 0.539197 4.40009 0
M  V30 12996 H 1181.97 0.231933 0.629641 0
M  V30 12997 H 1184.52 1.27141 1.60173 0
M  V30 12998 H 1182.67 0.25138 3.86584 0
M  V30 12999 H 1183.09 2.29524 4.71613 0
M  V30 13000 H 1184.56 0.758986 5.46757 0
M  V30 13001 H 1185.04 -0.526062 4.36038 0
M  V30 13002 H 1185.64 1.12594 4.10125 0
M  V30 13003 N 1183.96 -1.40369 0.716545 0
M  V30 13004 C 1184.91 -2.3071 0.0645944 0
M  V30 13005 C 1185.88 -1.48239 -0.749294 0
M  V30 13006 O 1187.06 -1.76975 -0.713045 0
M  V30 13007 C 1184.2 -3.34456 -0.850478 0
M  V30 13008 C 1183.31 -4.31992 -0.0259594 0
M  V30 13009 C 1182.45 -5.22806 -0.940599 0
M  V30 13010 C 1181.49 -6.12001 -0.110228 0
M  V30 13011 N 1180.62 -6.9523 -0.979796 0
M  V30 13012 H 1185.46 -2.85896 0.840682 0
M  V30 13013 H 1183 -1.40789 0.426258 0
M  V30 13014 H 1184.96 -3.93177 -1.39528 0
M  V30 13015 H 1183.59 -2.8077 -1.59274 0
M  V30 13016 H 1182.64 -3.75045 0.636036 0
M  V30 13017 H 1183.95 -4.94971 0.616883 0
M  V30 13018 H 1183.11 -5.86463 -1.5539 0
M  V30 13019 H 1181.85 -4.60104 -1.61726 0
M  V30 13020 H 1180.85 -5.47373 0.516001 0
M  V30 13021 H 1182.08 -6.76763 0.562944 0
M  V30 13022 H 1180.02 -6.35115 -1.64209 0
M  V30 13023 H 1179.94 -7.54978 -0.393012 0
M  V30 13024 H 1181.21 -7.63335 -1.57924 0
M  V30 13025 N 1185.44 -0.462799 -1.50652 0
M  V30 13026 C 1186.71 0.156221 -1.94975 0
M  V30 13027 C 1187.09 1.5775 -1.40279 0
M  V30 13028 O 1186.44 2.20473 -0.600323 0
M  V30 13029 C 1186.65 0.108008 -3.48833 0
M  V30 13030 C 1188 0.301013 -4.23532 0
M  V30 13031 O 1189.02 0.184973 -3.55719 0
M  V30 13032 O 1187.88 0.534457 -5.4388 0
M  V30 13033 H 1184.98 0.116182 -0.818798 0
M  V30 13034 H 1187.52 -0.522607 -1.61453 0
M  V30 13035 H 1186.29 -0.884634 -3.81169 0
M  V30 13036 H 1185.92 0.828653 -3.88869 0
M  V30 13037 N 1186.91 1.56388 -0.195085 0
M  V30 13038 C 1188.19 1.89329 0.491303 0
M  V30 13039 C 1188.57 1.10861 1.79647 0
M  V30 13040 O 1187.92 0.209696 2.27536 0
M  V30 13041 C 1188.13 3.417 0.710096 0
M  V30 13042 C 1189.48 4.11931 1.02947 0
M  V30 13043 O 1190.5 3.4715 0.797817 0
M  V30 13044 O 1189.36 5.26423 1.46767 0
M  V30 13045 H 1186.45 0.786335 0.256137 0
M  V30 13046 H 1189 1.68061 -0.235298 0
M  V30 13047 H 1187.77 3.90727 -0.211604 0
M  V30 13048 H 1187.4 3.6866 1.48916 0
M  V30 13049 N 1188.39 -0.0785156 1.57404 0
M  V30 13050 C 1189.32 -1.09446 2.06262 0
M  V30 13051 C 1190.3 -1.40777 0.954772 0
M  V30 13052 O 1191.49 -1.5052 1.22708 0
M  V30 13053 C 1188.62 -2.40979 2.50093 0
M  V30 13054 C 1187.57 -2.24017 3.64692 0
M  V30 13055 C 1186.9 -3.60873 3.94556 0
M  V30 13056 C 1188.2 -1.66696 4.94985 0
M  V30 13057 H 1189.89 -0.687928 2.9139 0
M  V30 13058 H 1187.44 -0.329466 1.4018 0
M  V30 13059 H 1189.39 -3.12337 2.82884 0
M  V30 13060 H 1188.12 -2.83599 1.61985 0
M  V30 13061 H 1186.77 -1.55101 3.32174 0
M  V30 13062 H 1186.42 -4.01051 3.0359 0
M  V30 13063 H 1186.12 -3.50365 4.71718 0
M  V30 13064 H 1187.65 -4.33673 4.29837 0
M  V30 13065 H 1189.06 -2.27913 5.2605 0
M  V30 13066 H 1187.46 -1.66902 5.76423 0
M  V30 13067 H 1188.53 -0.627827 4.80818 0
M  V30 13068 N 1189.87 -1.5367 -0.349747 0
M  V30 13069 C 1190.83 -1.80533 -1.41211 0
M  V30 13070 C 1191.83 -0.676188 -1.45892 0
M  V30 13071 O 1193.02 -0.944453 -1.46375 0
M  V30 13072 C 1190.16 -1.94175 -2.80195 0
M  V30 13073 H 1191.35 -2.75428 -1.18658 0
M  V30 13074 H 1188.9 -1.44988 -0.583787 0
M  V30 13075 H 1189.64 -1.01402 -3.08039 0
M  V30 13076 H 1189.42 -2.76316 -2.78194 0
M  V30 13077 H 1190.91 -2.16496 -3.57098 0
M  V30 13078 N 1191.35 0.610423 -1.45298 0
M  V30 13079 C 1192.58 1.39621 -1.52688 0
M  V30 13080 C 1192.99 1.88133 -0.158535 0
M  V30 13081 O 1192.35 1.62051 0.839396 0
M  V30 13082 C 1192.4 2.60261 -2.50891 0
M  V30 13083 O 1192.12 2.13766 -3.82408 0
M  V30 13084 C 1193.62 3.53154 -2.6795 0
M  V30 13085 H 1190.84 0.427493 -0.517195 0
M  V30 13086 H 1193.39 0.744701 -1.90459 0
M  V30 13087 H 1191.54 3.2146 -2.162 0
M  V30 13088 H 1191.95 2.92128 -4.35616 0
M  V30 13089 H 1193.43 4.34355 -3.40647 0
M  V30 13090 H 1193.91 4.03311 -1.73888 0
M  V30 13091 H 1194.51 2.9781 -3.03627 0
M  V30 13092 N 1192.83 1.32541 0.852676 0
M  V30 13093 C 1194.05 1.2622 1.6394 0
M  V30 13094 C 1194.47 -0.169455 1.88038 0
M  V30 13095 O 1193.83 -1.10719 1.45078 0
M  V30 13096 C 1193.88 2.02062 2.99755 0
M  V30 13097 O 1193.6 3.39641 2.76723 0
M  V30 13098 C 1195.1 2.02787 3.94198 0
M  V30 13099 H 1192.32 0.435405 0.510552 0
M  V30 13100 H 1194.86 1.74696 1.06309 0
M  V30 13101 H 1193.02 1.57303 3.54026 0
M  V30 13102 H 1193.43 3.78484 3.63111 0
M  V30 13103 H 1194.91 2.60333 4.86755 0
M  V30 13104 H 1195.38 1.01464 4.27319 0
M  V30 13105 H 1195.99 2.47504 3.45864 0
M  V30 13106 N 1194.3 -1.0692 1.15784 0
M  V30 13107 C 1195.24 -2.14168 0.816375 0
M  V30 13108 C 1196.25 -1.61872 -0.17357 0
M  V30 13109 O 1197.44 -1.78429 0.0502973 0
M  V30 13110 C 1194.54 -3.38346 0.193682 0
M  V30 13111 C 1193.71 -4.19979 1.22215 0
M  V30 13112 C 1192.77 -5.2253 0.620424 0
M  V30 13113 O 1191.8 -5.54446 1.28757 0
M  V30 13114 N 1193 -5.77434 -0.595811 0
M  V30 13115 H 1195.76 -2.44062 1.73937 0
M  V30 13116 H 1193.32 -1.22865 1.05431 0
M  V30 13117 H 1195.32 -4.04092 -0.22174 0
M  V30 13118 H 1193.89 -3.06129 -0.632735 0
M  V30 13119 H 1193.11 -3.49984 1.81397 0
M  V30 13120 H 1194.39 -4.71329 1.91641 0
M  V30 13121 H 1193.79 -5.5376 -1.15611 0
M  V30 13122 H 1192.35 -6.44788 -0.953529 0
M  V30 13123 N 1195.78 -0.955326 -1.25345 0
M  V30 13124 C 1197.01 -0.627233 -1.97688 0
M  V30 13125 C 1197.43 0.793973 -1.70522 0
M  V30 13126 O 1196.79 1.537 -0.961556 0
M  V30 13127 C 1196.84 -0.892969 -3.49369 0
M  V30 13128 O 1195.94 0.0278871 -4.12391 0
M  V30 13129 H 1195.28 -0.238402 -0.619726 0
M  V30 13130 H 1197.81 -1.28211 -1.59446 0
M  V30 13131 H 1197.82 -0.819517 -3.99685 0
M  V30 13132 H 1196.5 -1.92879 -3.6847 0
M  V30 13133 H 1195.08 -0.0978295 -3.72772 0
M  V30 13134 N 1197.26 1.39987 -0.723979 0
M  V30 13135 C 1198.21 2.32507 -0.0658033 0
M  V30 13136 C 1199.2 1.52484 0.737908 0
M  V30 13137 O 1200.41 1.68225 0.640332 0
M  V30 13138 H 1196.78 0.751996 -0.00247717 0
M  V30 13139 H 1198.76 2.85657 -0.862696 0
M  V30 13140 C 1197.5 3.37509 0.835628 0
M  V30 13141 H 1196.83 3.99157 0.226589 0
M  V30 13142 H 1198.27 4.04722 1.26396 0
M  V30 13143 C 1196.73 2.73665 1.96492 0
M  V30 13144 O 1197.26 2.60649 3.05655 0
M  V30 13145 N 1195.46 2.3192 1.75104 0
M  V30 13146 H 1195.01 2.42707 0.863204 0
M  V30 13147 H 1194.97 1.89542 2.50841 0
M  V30 13148 N 1198.74 0.470782 1.50404 0
M  V30 13149 C 1199.97 -0.0818945 2.06438 0
M  V30 13150 C 1200.38 -1.34085 1.33483 0
M  V30 13151 O 1199.72 -1.79346 0.397565 0
M  V30 13152 C 1199.78 -0.436252 3.56843 0
M  V30 13153 C 1199.45 0.720641 4.51282 0
M  V30 13154 C 1200.44 1.60258 4.94584 0
M  V30 13155 C 1198.13 0.910879 4.93972 0
M  V30 13156 C 1200.12 2.65916 5.79282 0
M  V30 13157 C 1197.81 1.97069 5.78452 0
M  V30 13158 C 1198.81 2.84319 6.21008 0
M  V30 13159 O 1198.5 3.88476 7.03805 0
M  V30 13160 H 1198.23 0.00361688 0.67599 0
M  V30 13161 H 1200.78 0.658488 1.94559 0
M  V30 13162 H 1199.01 -1.22982 3.66623 0
M  V30 13163 H 1200.7 -0.923976 3.95244 0
M  V30 13164 H 1201.47 1.46729 4.62272 0
M  V30 13165 H 1197.35 0.241225 4.60368 0
M  V30 13166 H 1200.89 3.3405 6.12419 0
M  V30 13167 H 1196.79 2.10605 6.10177 0
M  V30 13168 H 1197.55 3.8546 7.22054 0
M  V30 13169 N 1200.22 -1.56282 0.203376 0
M  V30 13170 C 1201.16 -2.19473 -0.714164 0
M  V30 13171 C 1202.13 -1.14454 -1.20372 0
M  V30 13172 O 1203.32 -1.42739 -1.26611 0
M  V30 13173 C 1200.46 -2.86451 -1.92457 0
M  V30 13174 C 1199.57 -4.06017 -1.47561 0
M  V30 13175 C 1198.71 -4.60829 -2.64216 0
M  V30 13176 C 1197.75 -5.72734 -2.15967 0
M  V30 13177 N 1196.88 -6.21916 -3.25829 0
M  V30 13178 H 1201.72 -2.97523 -0.168558 0
M  V30 13179 H 1199.26 -1.46926 -0.0714525 0
M  V30 13180 H 1201.22 -3.23459 -2.63496 0
M  V30 13181 H 1199.85 -2.10951 -2.44335 0
M  V30 13182 H 1198.9 -3.74617 -0.660784 0
M  V30 13183 H 1200.21 -4.8693 -1.08168 0
M  V30 13184 H 1199.37 -5.00185 -3.43366 0
M  V30 13185 H 1198.11 -3.7904 -3.06887 0
M  V30 13186 H 1197.11 -5.32899 -1.35273 0
M  V30 13187 H 1198.34 -6.56346 -1.74316 0
M  V30 13188 H 1196.28 -5.43047 -3.68016 0
M  V30 13189 H 1196.2 -6.97904 -2.90631 0
M  V30 13190 H 1197.47 -6.65927 -4.05168 0
M  V30 13191 N 1201.7 0.070167 -1.57444 0
M  V30 13192 C 1202.92 0.785703 -1.91941 0
M  V30 13193 C 1203.35 1.70243 -0.799932 0
M  V30 13194 O 1202.7 1.79608 0.247139 0
M  V30 13195 C 1202.75 1.55398 -3.25398 0
M  V30 13196 O 1201.86 2.66475 -3.14746 0
M  V30 13197 H 1201.2 0.214245 -0.628486 0
M  V30 13198 H 1203.73 0.0379243 -2.04565 0
M  V30 13199 H 1203.74 1.93287 -3.5931 0
M  V30 13200 H 1202.41 0.881366 -4.06454 0
M  V30 13201 H 1200.99 2.3143 -2.92394 0
M  V30 13202 N 1203.17 1.53854 0.341593 0
M  V30 13203 C 1204.4 1.75134 1.10162 0
M  V30 13204 C 1204.82 0.491415 1.82292 0
M  V30 13205 O 1204.17 -0.53703 1.7442 0
M  V30 13206 C 1204.22 2.93273 2.1136 0
M  V30 13207 O 1203.95 4.14393 1.42162 0
M  V30 13208 C 1205.45 3.26621 2.99723 0
M  V30 13209 H 1202.67 0.585126 0.328434 0
M  V30 13210 H 1205.21 2.00684 0.393204 0
M  V30 13211 H 1203.37 2.70048 2.77764 0
M  V30 13212 H 1203.78 4.8072 2.09783 0
M  V30 13213 H 1205.25 4.12629 3.66662 0
M  V30 13214 H 1205.73 2.43008 3.65847 0
M  V30 13215 H 1206.34 3.51858 2.38906 0
M  V30 13216 N 1204.65 -0.602709 1.4562 0
M  V30 13217 C 1205.93 -1.36224 1.40366 0
M  V30 13218 C 1206.31 -2.1096 0.0767645 0
M  V30 13219 O 1205.66 -2.08207 -0.941378 0
M  V30 13220 C 1205.87 -2.30499 2.62052 0
M  V30 13221 C 1207.21 -2.92954 3.07348 0
M  V30 13222 O 1208.24 -2.40818 2.62459 0
M  V30 13223 O 1207.1 -3.87601 3.85263 0
M  V30 13224 H 1204.19 -0.611064 0.557253 0
M  V30 13225 H 1206.74 -0.625391 1.57756 0
M  V30 13226 H 1205.51 -1.74566 3.50203 0
M  V30 13227 H 1205.13 -3.11556 2.4702 0
M  V30 13228 N 1206.13 -1.32992 -0.845635 0
M  V30 13229 C 1207.06 -1.18513 -1.96182 0
M  V30 13230 C 1208.07 -0.11781 -1.62373 0
M  V30 13231 O 1209.26 -0.36761 -1.74674 0
M  V30 13232 C 1206.36 -0.793812 -3.29472 0
M  V30 13233 C 1205.54 -1.95134 -3.91461 0
M  V30 13234 C 1204.6 -1.54209 -5.03096 0
M  V30 13235 O 1203.62 -2.25545 -5.22607 0
M  V30 13236 N 1204.82 -0.443235 -5.78805 0
M  V30 13237 H 1207.59 -2.14663 -2.09141 0
M  V30 13238 H 1205.15 -1.25648 -1.02099 0
M  V30 13239 H 1207.14 -0.502263 -4.01571 0
M  V30 13240 H 1205.71 0.0768031 -3.12506 0
M  V30 13241 H 1204.93 -2.40889 -3.12035 0
M  V30 13242 H 1206.22 -2.72604 -4.2961 0
M  V30 13243 H 1205.62 0.150298 -5.655 0
M  V30 13244 H 1204.17 -0.211331 -6.51457 0
M  V30 13245 N 1207.61 1.06304 -1.1635 0
M  V30 13246 C 1208.52 2.17296 -0.884289 0
M  V30 13247 C 1209.53 1.73408 0.143414 0
M  V30 13248 O 1210.71 2.01373 -0.0331987 0
M  V30 13249 C 1207.77 3.44509 -0.389163 0
M  V30 13250 C 1206.84 4.02906 -1.48208 0
M  V30 13251 C 1206.07 5.24047 -1.01048 0
M  V30 13252 O 1206.29 5.70229 0.139821 0
M  V30 13253 O 1205.23 5.74394 -1.79876 0
M  V30 13254 H 1209.05 2.4369 -1.81243 0
M  V30 13255 H 1206.64 1.15841 -0.943459 0
M  V30 13256 H 1208.52 4.21229 -0.120018 0
M  V30 13257 H 1207.19 3.19642 0.510968 0
M  V30 13258 H 1206.1 3.27677 -1.80496 0
M  V30 13259 H 1207.43 4.32068 -2.35751 0
M  V30 13260 N 1209.09 0.96196 1.24836 0
M  V30 13261 C 1210.33 0.620715 1.92752 0
M  V30 13262 C 1210.66 -0.843308 1.75267 0
M  V30 13263 O 1209.92 -1.62141 1.09584 0
M  V30 13264 C 1210.21 0.934481 3.44967 0
M  V30 13265 C 1209.88 2.38572 3.82615 0
M  V30 13266 C 1208.54 2.78238 3.92603 0
M  V30 13267 C 1210.89 3.32784 4.01129 0
M  V30 13268 C 1208.22 4.11169 4.18518 0
M  V30 13269 C 1210.57 4.65336 4.28539 0
M  V30 13270 C 1209.24 5.04788 4.36745 0
M  V30 13271 H 1208.51 0.227136 0.70533 0
M  V30 13272 H 1211.16 1.21237 1.48236 0
M  V30 13273 H 1209.46 0.260516 3.90933 0
M  V30 13274 H 1211.16 0.648923 3.95715 0
M  V30 13275 H 1207.75 2.06812 3.75402 0
M  V30 13276 H 1211.93 3.03325 3.9282 0
M  V30 13277 H 1207.19 4.41368 4.23089 0
M  V30 13278 H 1211.36 5.3831 4.41809 0
M  V30 13279 H 1208.99 6.07816 4.56579 0
M  V30 13280 N 1210.56 -1.39601 0.731392 0
M  V30 13281 C 1211.5 -2.29147 0.0494974 0
M  V30 13282 C 1212.51 -1.46635 -0.707248 0
M  V30 13283 O 1213.7 -1.6975 -0.552008 0
M  V30 13284 C 1210.8 -3.25191 -0.954152 0
M  V30 13285 C 1209.97 -4.36629 -0.259674 0
M  V30 13286 C 1209.03 -5.13007 -1.17092 0
M  V30 13287 O 1208.06 -5.65479 -0.64976 0
M  V30 13288 N 1209.26 -5.23865 -2.50092 0
M  V30 13289 H 1212.02 -2.88308 0.818433 0
M  V30 13290 H 1209.58 -1.51142 0.580316 0
M  V30 13291 H 1211.58 -3.73161 -1.56629 0
M  V30 13292 H 1210.15 -2.67085 -1.62432 0
M  V30 13293 H 1209.37 -3.90582 0.532888 0
M  V30 13294 H 1210.65 -5.08317 0.221753 0
M  V30 13295 H 1210.05 -4.82745 -2.94913 0
M  V30 13296 H 1208.61 -5.75288 -3.0641 0
M  V30 13297 N 1212.04 -0.478751 -1.50152 0
M  V30 13298 C 1212.99 0.325375 -2.30313 0
M  V30 13299 C 1213.98 0.983372 -1.37935 0
M  V30 13300 O 1215.19 0.913601 -1.55091 0
M  V30 13301 H 1211.57 0.123775 -0.741744 0
M  V30 13302 H 1213.54 -0.371004 -2.96085 0
M  V30 13303 C 1212.29 1.39026 -3.18696 0
M  V30 13304 H 1211.61 0.893329 -3.89692 0
M  V30 13305 H 1213.05 1.92533 -3.77766 0
M  V30 13306 C 1211.51 2.39637 -2.36803 0
M  V30 13307 O 1212.04 3.45067 -2.05649 0
M  V30 13308 N 1210.24 2.11546 -1.9924 0
M  V30 13309 H 1209.79 1.25832 -2.24775 0
M  V30 13310 H 1209.75 2.79096 -1.44751 0
M  V30 13311 N 1213.52 1.56172 -0.211661 0
M  V30 13312 C 1214.77 1.98039 0.422706 0
M  V30 13313 C 1215.1 1.09904 1.60472 0
M  V30 13314 O 1214.35 0.141771 1.95186 0
M  V30 13315 C 1214.65 3.45636 0.909442 0
M  V30 13316 C 1214.32 4.50613 -0.160982 0
M  V30 13317 C 1212.98 4.79043 -0.455064 0
M  V30 13318 C 1215.33 5.13624 -0.885426 0
M  V30 13319 C 1212.66 5.67771 -1.47828 0
M  V30 13320 C 1215.01 6.03459 -1.8979 0
M  V30 13321 C 1213.67 6.30238 -2.19901 0
M  V30 13322 H 1212.94 0.724676 0.154679 0
M  V30 13323 H 1215.59 1.8894 -0.312106 0
M  V30 13324 H 1213.9 3.51889 1.72283 0
M  V30 13325 H 1215.59 3.75395 1.40995 0
M  V30 13326 H 1212.18 4.28528 0.0783864 0
M  V30 13327 H 1216.37 4.91737 -0.671463 0
M  V30 13328 H 1211.62 5.86787 -1.7173 0
M  V30 13329 H 1215.8 6.51338 -2.46438 0
M  V30 13330 H 1213.42 6.98788 -2.9933 0
M  V30 13331 N 1215 -0.0618163 1.57479 0
M  V30 13332 C 1215.95 -1.0724 2.04373 0
M  V30 13333 C 1216.92 -1.37875 0.926271 0
M  V30 13334 O 1218.1 -1.48772 1.19463 0
M  V30 13335 C 1215.24 -2.37805 2.50085 0
M  V30 13336 C 1214.35 -2.13614 3.7549 0
M  V30 13337 C 1213.49 -3.37814 4.09945 0
M  V30 13338 C 1212.53 -3.09032 5.28361 0
M  V30 13339 N 1211.66 -4.25591 5.58406 0
M  V30 13340 H 1216.5 -0.665536 2.90473 0
M  V30 13341 H 1214.04 -0.317043 1.43643 0
M  V30 13342 H 1216 -3.14048 2.74644 0
M  V30 13343 H 1214.63 -2.76275 1.66948 0
M  V30 13344 H 1213.68 -1.28017 3.58212 0
M  V30 13345 H 1214.99 -1.88361 4.61867 0
M  V30 13346 H 1214.15 -4.22447 4.35458 0
M  V30 13347 H 1212.89 -3.66153 3.22154 0
M  V30 13348 H 1211.89 -2.22797 5.02635 0
M  V30 13349 H 1213.12 -2.82006 6.17778 0
M  V30 13350 H 1211.06 -4.53941 4.73575 0
M  V30 13351 H 1210.98 -4.03646 6.39223 0
M  V30 13352 H 1212.25 -5.11191 5.88476 0
M  V30 13353 N 1216.48 -1.54033 -0.333429 0
M  V30 13354 C 1217.7 -1.75716 -1.09232 0
M  V30 13355 C 1218.12 -0.501076 -1.82029 0
M  V30 13356 O 1217.48 0.527772 -1.74702 0
M  V30 13357 C 1217.53 -2.9439 -2.09802 0
M  V30 13358 O 1217.25 -4.15141 -1.39963 0
M  V30 13359 C 1218.75 -3.28206 -2.97987 0
M  V30 13360 H 1215.97 -0.586859 -0.325326 0
M  V30 13361 H 1218.51 -2.0089 -0.382555 0
M  V30 13362 H 1216.67 -2.71518 -2.76327 0
M  V30 13363 H 1217.08 -4.81826 -2.0723 0
M  V30 13364 H 1218.56 -4.14568 -3.64469 0
M  V30 13365 H 1219.03 -2.44944 -3.64553 0
M  V30 13366 H 1219.64 -3.5312 -2.37036 0
M  V30 13367 N 1217.95 0.594978 -1.45938 0
M  V30 13368 C 1218.88 1.71536 -1.58422 0
M  V30 13369 C 1219.87 1.64441 -0.435116 0
M  V30 13370 O 1221.05 1.82647 -0.659839 0
M  V30 13371 C 1218.18 3.10163 -1.56257 0
M  V30 13372 C 1217.13 3.3208 -2.70013 0
M  V30 13373 C 1216.46 4.71108 -2.52905 0
M  V30 13374 C 1217.76 3.21105 -4.11933 0
M  V30 13375 H 1219.45 1.61344 -2.52207 0
M  V30 13376 H 1217 0.774791 -1.2138 0
M  V30 13377 H 1218.95 3.88352 -1.63587 0
M  V30 13378 H 1217.68 3.21225 -0.590093 0
M  V30 13379 H 1216.34 2.56286 -2.62132 0
M  V30 13380 H 1215.98 4.7892 -1.53768 0
M  V30 13381 H 1215.68 4.86727 -3.29197 0
M  V30 13382 H 1217.21 5.51482 -2.62107 0
M  V30 13383 H 1218.62 3.89153 -4.2099 0
M  V30 13384 H 1217.02 3.4825 -4.88715 0
M  V30 13385 H 1218.09 2.18359 -4.32952 0
M  V30 13386 N 1219.43 1.33438 0.838571 0
M  V30 13387 C 1220.38 1.20285 1.93689 0
M  V30 13388 C 1221.37 0.105686 1.60553 0
M  V30 13389 O 1222.56 0.333814 1.73824 0
M  V30 13390 C 1219.69 0.944544 3.3005 0
M  V30 13391 C 1218.77 2.08416 3.69356 0
M  V30 13392 N 1219.16 3.33415 3.80353 0
M  V30 13393 C 1217.46 1.99092 3.99097 0
M  V30 13394 C 1218.16 4.08159 4.14465 0
M  V30 13395 N 1217.14 3.36601 4.2685 0
M  V30 13396 H 1220.94 2.1503 2.00348 0
M  V30 13397 H 1218.46 1.2545 1.03131 0
M  V30 13398 H 1220.45 0.831242 4.08529 0
M  V30 13399 H 1219.11 0.00562273 3.247 0
M  V30 13400 H 1220.12 3.68159 3.64252 0
M  V30 13401 H 1216.8 1.12861 4.01956 0
M  V30 13402 H 1218.19 5.16027 4.30308 0
M  V30 13403 N 1220.91 -1.05686 1.16912 0
M  V30 13404 C 1221.84 -2.12775 0.824755 0
M  V30 13405 C 1222.82 -1.61286 -0.206289 0
M  V30 13406 O 1224.01 -1.8829 -0.0889616 0
M  V30 13407 C 1221.13 -3.37922 0.229422 0
M  V30 13408 C 1220.18 -4.08226 1.23506 0
M  V30 13409 S 1221.01 -4.57424 2.78431 0
M  V30 13410 C 1222.17 -5.85825 2.20364 0
M  V30 13411 H 1222.4 -2.41657 1.73174 0
M  V30 13412 H 1219.93 -1.18212 0.99324 0
M  V30 13413 H 1221.89 -4.10359 -0.107588 0
M  V30 13414 H 1220.55 -3.07186 -0.655424 0
M  V30 13415 H 1219.75 -4.98129 0.767059 0
M  V30 13416 H 1219.35 -3.41832 1.51747 0
M  V30 13417 H 1221.64 -6.58912 1.57611 0
M  V30 13418 H 1222.58 -6.37364 3.08501 0
M  V30 13419 H 1222.99 -5.4015 1.64008 0
M  V30 13420 N 1222.39 -0.968567 -1.24324 0
M  V30 13421 C 1223.67 -0.547774 -1.87773 0
M  V30 13422 C 1224.05 0.975107 -1.87229 0
M  V30 13423 O 1223.39 1.84683 -1.34553 0
M  V30 13424 C 1223.6 -1.1403 -3.29846 0
M  V30 13425 C 1224.95 -1.22572 -4.06523 0
M  V30 13426 O 1225.98 -1.09287 -3.3902 0
M  V30 13427 O 1224.83 -1.43579 -5.27302 0
M  V30 13428 H 1221.93 -0.182771 -0.806551 0
M  V30 13429 H 1224.47 -1.06289 -1.3229 0
M  V30 13430 H 1223.25 -2.18303 -3.24745 0
M  V30 13431 H 1222.87 -0.609275 -3.92904 0
M  V30 13432 N 1223.87 1.39211 -0.738786 0
M  V30 13433 C 1225.11 2.00436 -0.28839 0
M  V30 13434 C 1225.44 1.58626 1.12552 0
M  V30 13435 O 1224.7 0.808154 1.78234 0
M  V30 13436 C 1225 3.55758 -0.342224 0
M  V30 13437 C 1224.66 4.1723 -1.70968 0
M  V30 13438 C 1223.32 4.33734 -2.08395 0
M  V30 13439 C 1225.68 4.51294 -2.60736 0
M  V30 13440 C 1223 4.81592 -3.35091 0
M  V30 13441 C 1225.36 5.00562 -3.86808 0
M  V30 13442 C 1224.02 5.15274 -4.24322 0
M  V30 13443 H 1223.29 0.733447 -0.105529 0
M  V30 13444 H 1225.94 1.66481 -0.94637 0
M  V30 13445 H 1224.24 3.8976 0.399331 0
M  V30 13446 H 1225.94 4.00993 0.0244582 0
M  V30 13447 H 1222.53 4.04788 -1.4087 0
M  V30 13448 H 1226.71 4.38158 -2.3309 0
M  V30 13449 H 1221.97 4.91167 -3.64095 0
M  V30 13450 H 1226.14 5.25892 -4.5652 0
M  V30 13451 H 1223.77 5.52119 -5.2256 0
M  V30 13452 N 1225.34 0.486708 1.49896 0
M  V30 13453 C 1226.25 -0.304222 2.32619 0
M  V30 13454 C 1227.27 -0.981103 1.43702 0
M  V30 13455 O 1228.45 -0.965639 1.76741 0
M  V30 13456 C 1225.51 -1.36301 3.18783 0
M  V30 13457 C 1224.57 -0.701082 4.23537 0
M  V30 13458 C 1223.81 -1.70943 5.05583 0
M  V30 13459 O 1224.03 -2.93773 4.88931 0
M  V30 13460 O 1222.96 -1.27263 5.88292 0
M  V30 13461 H 1226.79 0.37248 3.01407 0
M  V30 13462 H 1224.37 0.248277 1.47323 0
M  V30 13463 H 1226.26 -1.97594 3.72202 0
M  V30 13464 H 1224.93 -2.0229 2.52706 0
M  V30 13465 H 1223.84 -0.0487926 3.74068 0
M  V30 13466 H 1225.17 -0.0838817 4.92129 0
M  V30 13467 N 1226.82 -1.56058 0.219941 0
M  V30 13468 C 1227.76 -2.17494 -0.723133 0
M  V30 13469 C 1228.77 -1.14356 -1.15873 0
M  V30 13470 O 1229.96 -1.41343 -1.09016 0
M  V30 13471 C 1227.06 -2.74242 -1.99109 0
M  V30 13472 C 1226.23 -4.02533 -1.71132 0
M  V30 13473 C 1225.29 -4.43862 -2.82618 0
M  V30 13474 O 1224.32 -5.10792 -2.51157 0
M  V30 13475 N 1225.52 -4.09412 -4.11537 0
M  V30 13476 H 1228.28 -2.99048 -0.197619 0
M  V30 13477 H 1225.84 -1.61853 0.0388738 0
M  V30 13478 H 1227.84 -2.98862 -2.7288 0
M  V30 13479 H 1226.41 -1.97 -2.42713 0
M  V30 13480 H 1225.63 -3.85786 -0.810128 0
M  V30 13481 H 1226.91 -4.86227 -1.49868 0
M  V30 13482 H 1226.31 -3.55624 -4.39941 0
M  V30 13483 H 1224.87 -4.38928 -4.81857 0
M  V30 13484 N 1228.3 0.053464 -1.57509 0
M  V30 13485 C 1229.25 1.06155 -2.04939 0
M  V30 13486 C 1230.22 1.37382 -0.93357 0
M  V30 13487 O 1231.4 1.48137 -1.2025 0
M  V30 13488 C 1228.54 2.36476 -2.51343 0
M  V30 13489 C 1227.66 2.1162 -3.76618 0
M  V30 13490 C 1226.79 3.35636 -4.11731 0
M  V30 13491 C 1225.83 3.06226 -5.29993 0
M  V30 13492 N 1224.97 4.22623 -5.60655 0
M  V30 13493 H 1229.81 0.650122 -2.90822 0
M  V30 13494 H 1227.34 0.309421 -1.43809 0
M  V30 13495 H 1229.3 3.12588 -2.76306 0
M  V30 13496 H 1227.93 2.75386 -1.68411 0
M  V30 13497 H 1226.98 1.26116 -3.58886 0
M  V30 13498 H 1228.3 1.85909 -4.6286 0
M  V30 13499 H 1227.45 4.20132 -4.37692 0
M  V30 13500 H 1226.19 3.64439 -3.24092 0
M  V30 13501 H 1225.19 2.20128 -5.03809 0
M  V30 13502 H 1226.42 2.78726 -6.19265 0
M  V30 13503 H 1224.37 4.51424 -4.75976 0
M  V30 13504 H 1224.28 4.0025 -6.41355 0
M  V30 13505 H 1225.55 5.08063 -5.91178 0
M  V30 13506 N 1229.78 1.54207 0.325255 0
M  V30 13507 C 1231.01 1.76037 1.08141 0
M  V30 13508 C 1231.42 0.50816 1.82248 0
M  V30 13509 O 1230.76 -0.530709 1.75867 0
M  V30 13510 C 1230.82 2.89876 2.12632 0
M  V30 13511 C 1230.49 4.28841 1.57937 0
M  V30 13512 C 1231.48 5.09755 1.02205 0
M  V30 13513 C 1229.17 4.7538 1.62232 0
M  V30 13514 C 1231.16 6.35317 0.514929 0
M  V30 13515 C 1228.85 6.0091 1.11132 0
M  V30 13516 C 1229.85 6.80712 0.558575 0
M  V30 13517 O 1229.54 8.03881 0.05526 0
M  V30 13518 H 1229.27 0.591332 0.327571 0
M  V30 13519 H 1231.82 2.019 0.377572 0
M  V30 13520 H 1230.05 2.59581 2.86627 0
M  V30 13521 H 1231.74 2.99505 2.73955 0
M  V30 13522 H 1232.51 4.74955 0.981954 0
M  V30 13523 H 1228.39 4.1331 2.04195 0
M  V30 13524 H 1231.93 6.97551 0.0828314 0
M  V30 13525 H 1227.83 6.35201 1.14848 0
M  V30 13526 H 1228.59 8.18322 0.170842 0
M  V30 13527 N 1231.26 -0.58723 1.46251 0
M  V30 13528 C 1232.2 -1.69662 1.56472 0
M  V30 13529 C 1233.17 -1.60978 0.409294 0
M  V30 13530 O 1234.36 -1.80257 0.625451 0
M  V30 13531 C 1231.5 -3.07996 1.55669 0
M  V30 13532 C 1230.61 -3.27337 2.81913 0
M  V30 13533 C 1229.75 -4.55894 2.72644 0
M  V30 13534 C 1228.79 -4.68562 3.93847 0
M  V30 13535 N 1227.92 -5.8844 3.82991 0
M  V30 13536 H 1232.76 -1.60262 2.51237 0
M  V30 13537 H 1230.3 -0.781148 1.24645 0
M  V30 13538 H 1232.26 -3.88058 1.53189 0
M  V30 13539 H 1230.89 -3.16303 0.6444 0
M  V30 13540 H 1229.94 -2.4091 2.94392 0
M  V30 13541 H 1231.25 -3.32567 3.71754 0
M  V30 13542 H 1230.41 -5.44178 2.68244 0
M  V30 13543 H 1229.15 -4.53094 1.80435 0
M  V30 13544 H 1228.15 -3.78696 3.98584 0
M  V30 13545 H 1229.38 -4.73144 4.87146 0
M  V30 13546 H 1227.32 -5.86647 2.93566 0
M  V30 13547 H 1227.24 -5.94919 4.66484 0
M  V30 13548 H 1228.51 -6.79168 3.82559 0
M  V30 13549 N 1232.74 -1.33881 -0.831482 0
M  V30 13550 C 1233.67 -1.19089 -1.94661 0
M  V30 13551 C 1234.65 -0.0845706 -1.6238 0
M  V30 13552 O 1235.83 -0.248163 -1.86859 0
M  V30 13553 C 1232.96 -0.828223 -3.28418 0
M  V30 13554 C 1232 -1.94309 -3.79666 0
M  V30 13555 S 1232.84 -3.55524 -4.00454 0
M  V30 13556 C 1233.99 -3.21279 -5.3715 0
M  V30 13557 H 1234.23 -2.13484 -2.0691 0
M  V30 13558 H 1231.76 -1.18809 -0.986098 0
M  V30 13559 H 1233.72 -0.625759 -4.05702 0
M  V30 13560 H 1232.38 0.0972457 -3.13949 0
M  V30 13561 H 1231.57 -1.64288 -4.76472 0
M  V30 13562 H 1231.17 -2.1026 -3.093 0
M  V30 13563 H 1233.46 -2.72563 -6.20255 0
M  V30 13564 H 1234.41 -4.17193 -5.7215 0
M  V30 13565 H 1234.82 -2.57683 -5.02255 0
M  V30 13566 N 1234.21 1.05064 -1.1747 0
M  V30 13567 C 1235.46 1.78352 -0.965311 0
M  V30 13568 C 1235.79 1.87527 0.504707 0
M  V30 13569 O 1235.07 1.376 1.37465 0
M  V30 13570 C 1235.35 3.22173 -1.60862 0
M  V30 13571 C 1235.2 3.21003 -3.15083 0
M  V30 13572 C 1236.52 4.2004 -1.31358 0
M  V30 13573 H 1233.64 0.647452 -0.352101 0
M  V30 13574 H 1236.28 1.22794 -1.44988 0
M  V30 13575 H 1234.43 3.69613 -1.19658 0
M  V30 13576 H 1236.11 2.81629 -3.65353 0
M  V30 13577 H 1234.35 2.59309 -3.47766 0
M  V30 13578 H 1235.02 4.22516 -3.55224 0
M  V30 13579 H 1237.5 3.81099 -1.6704 0
M  V30 13580 H 1236.37 5.1891 -1.78953 0
M  V30 13581 H 1236.63 4.41477 -0.234606 0
M  V30 13582 N 1235.69 0.975146 1.23809 0
M  V30 13583 C 1236.62 0.530389 2.27396 0
M  V30 13584 C 1237.6 -0.433763 1.64476 0
M  V30 13585 O 1238.79 -0.32827 1.91405 0
M  V30 13586 C 1235.92 -0.173066 3.46869 0
M  V30 13587 C 1234.87 0.707844 4.22106 0
M  V30 13588 C 1234.2 -0.127527 5.34548 0
M  V30 13589 C 1235.5 1.99609 4.82652 0
M  V30 13590 H 1237.19 1.39622 2.64851 0
M  V30 13591 H 1234.74 0.672802 1.27316 0
M  V30 13592 H 1236.69 -0.495481 4.18477 0
M  V30 13593 H 1235.41 -1.0733 3.0846 0
M  V30 13594 H 1234.07 1.01364 3.52308 0
M  V30 13595 H 1233.72 -1.02814 4.9238 0
M  V30 13596 H 1233.42 0.458728 5.85807 0
M  V30 13597 H 1234.95 -0.444443 6.0898 0
M  V30 13598 H 1236.36 1.73878 5.46296 0
M  V30 13599 H 1234.76 2.52969 5.44175 0
M  V30 13600 H 1235.83 2.68629 4.03691 0
M  V30 13601 N 1237.17 -1.38817 0.746158 0
M  V30 13602 C 1238.08 -2.34316 0.115386 0
M  V30 13603 C 1239.1 -1.58892 -0.709179 0
M  V30 13604 O 1240.27 -1.91126 -0.635059 0
M  V30 13605 C 1237.34 -3.37977 -0.772821 0
M  V30 13606 C 1236.4 -4.2925 0.0652679 0
M  V30 13607 C 1235.63 -5.2796 -0.78064 0
M  V30 13608 O 1235.85 -5.33474 -2.01896 0
M  V30 13609 O 1234.79 -6.01556 -0.20338 0
M  V30 13610 H 1238.61 -2.89937 0.903887 0
M  V30 13611 H 1236.2 -1.40536 0.506958 0
M  V30 13612 H 1238.08 -4.01468 -1.28068 0
M  V30 13613 H 1236.76 -2.84723 -1.53994 0
M  V30 13614 H 1235.66 -3.68945 0.61891 0
M  V30 13615 H 1237 -4.85739 0.794871 0
M  V30 13616 N 1238.65 -0.49465 -1.49636 0
M  V30 13617 C 1239.56 0.291881 -2.32777 0
M  V30 13618 C 1240.57 0.973468 -1.44221 0
M  V30 13619 O 1241.75 0.956252 -1.77251 0
M  V30 13620 C 1238.81 1.34609 -3.19502 0
M  V30 13621 C 1237.88 0.678611 -4.23903 0
M  V30 13622 C 1237.11 1.68259 -5.06483 0
M  V30 13623 O 1237.33 2.91176 -4.90482 0
M  V30 13624 O 1236.27 1.24141 -5.88959 0
M  V30 13625 H 1240.09 -0.388459 -3.01205 0
M  V30 13626 H 1237.68 -0.256086 -1.47189 0
M  V30 13627 H 1239.56 1.95617 -3.73245 0
M  V30 13628 H 1238.23 2.00947 -2.53775 0
M  V30 13629 H 1237.14 0.0289541 -3.74089 0
M  V30 13630 H 1238.47 0.0577817 -4.92166 0
M  V30 13631 N 1240.13 1.55939 -0.228214 0
M  V30 13632 C 1241.07 2.21957 0.69556 0
M  V30 13633 C 1242.07 1.20109 1.19458 0
M  V30 13634 O 1243.27 1.38171 1.15364 0
M  V30 13635 H 1239.65 0.711744 0.242744 0
M  V30 13636 H 1241.62 2.98177 0.115403 0
M  V30 13637 C 1240.37 2.91847 1.88999 0
M  V30 13638 H 1239.69 3.69978 1.51512 0
M  V30 13639 H 1241.13 3.4143 2.51399 0
M  V30 13640 C 1239.59 1.94683 2.74954 0
M  V30 13641 O 1240.12 1.468 3.73915 0
M  V30 13642 N 1238.33 1.62188 2.41129 0
M  V30 13643 H 1237.87 2.01322 1.60709 0
M  V30 13644 H 1237.83 0.9744 2.98919 0
M  V30 13645 N 1241.6 -0.0451101 1.57535 0
M  V30 13646 C 1242.51 -1.06796 2.08882 0
M  V30 13647 C 1243.53 -1.40682 1.02394 0
M  V30 13648 O 1244.71 -1.50324 1.34033 0
M  V30 13649 C 1241.77 -2.35467 2.54472 0
M  V30 13650 C 1240.83 -2.0831 3.75374 0
M  V30 13651 C 1240.07 -3.30846 4.1878 0
M  V30 13652 O 1240.29 -4.40945 3.61834 0
M  V30 13653 O 1239.22 -3.17488 5.11356 0
M  V30 13654 H 1243.05 -0.661658 2.96405 0
M  V30 13655 H 1240.63 -0.26104 1.47102 0
M  V30 13656 H 1242.52 -3.11143 2.84198 0
M  V30 13657 H 1241.19 -2.75425 1.70068 0
M  V30 13658 H 1240.1 -1.30254 3.50692 0
M  V30 13659 H 1241.43 -1.73218 4.60713 0
M  V30 13660 N 1243.08 -1.54377 -0.317073 0
M  V30 13661 C 1244.5 -1.45232 -0.6618 0
M  V30 13662 C 1244.7 -0.630457 -1.91383 0
M  V30 13663 O 1243.75 -0.13181 -2.52156 0
M  V30 13664 C 1245.07 -2.89025 -0.829761 0
M  V30 13665 C 1246.62 -2.98967 -0.926685 0
M  V30 13666 C 1247.09 -4.43923 -1.12677 0
M  V30 13667 N 1248.58 -4.47564 -1.19335 0
M  V30 13668 C 1249.32 -5.56887 -1.36617 0
M  V30 13669 N 1248.81 -6.76167 -1.50899 0
M  V30 13670 N 1250.61 -5.44546 -1.39377 0
M  V30 13671 H 1242.76 -2.0629 0.505766 0
M  V30 13672 H 1245.02 -0.933615 0.164522 0
M  V30 13673 H 1244.73 -3.51695 0.0190945 0
M  V30 13674 H 1244.6 -3.35515 -1.72364 0
M  V30 13675 H 1246.99 -2.36421 -1.76604 0
M  V30 13676 H 1247.07 -2.55798 -0.00913402 0
M  V30 13677 H 1246.71 -5.07059 -0.29224 0
M  V30 13678 H 1246.64 -4.84708 -2.05829 0
M  V30 13679 H 1249.13 -3.61623 -1.09715 0
M  V30 13680 H 1249.45 -7.55242 -1.63796 0
M  V30 13681 H 1247.79 -6.79062 -1.47985 0
M  V30 13682 H 1250.98 -4.50311 -1.27819 0
M  V30 13683 H 1251.15 -6.29799 -1.52502 0
M  V30 13684 N 1244.56 0.579466 -1.4656 0
M  V30 13685 C 1245.49 1.7031 -1.51887 0
M  V30 13686 C 1246.47 1.58271 -0.372721 0
M  V30 13687 O 1247.66 1.79441 -0.577336 0
M  V30 13688 C 1244.78 3.0839 -1.40048 0
M  V30 13689 C 1243.83 3.3894 -2.58886 0
M  V30 13690 S 1244.66 3.30652 -4.21224 0
M  V30 13691 C 1245.82 4.71264 -4.119 0
M  V30 13692 H 1246.05 1.65533 -2.46954 0
M  V30 13693 H 1243.58 0.758477 -1.34486 0
M  V30 13694 H 1245.54 3.88046 -1.33905 0
M  V30 13695 H 1244.2 3.10653 -0.464048 0
M  V30 13696 H 1243.4 4.39547 -2.46605 0
M  V30 13697 H 1243 2.66858 -2.62036 0
M  V30 13698 H 1245.29 5.61722 -3.7878 0
M  V30 13699 H 1246.23 4.88602 -5.12517 0
M  V30 13700 H 1246.64 4.48266 -3.43101 0
M  V30 13701 N 1246.04 1.3432 0.824371 0
M  V30 13702 C 1246.99 1.2578 1.95658 0
M  V30 13703 C 1247.98 0.156199 1.68678 0
M  V30 13704 O 1249.19 0.321081 1.77113 0
M  V30 13705 H 1245.56 0.390711 0.642533 0
M  V30 13706 H 1247.53 2.21471 1.99983 0
M  V30 13707 C 1246.28 1.02865 3.32136 0
M  V30 13708 H 1245.6 1.86863 3.53443 0
M  V30 13709 H 1247.04 1.00925 4.11813 0
M  V30 13710 C 1245.5 -0.268097 3.35832 0
M  V30 13711 O 1246.03 -1.26995 3.81097 0
M  V30 13712 N 1244.24 -0.300702 2.8904 0
M  V30 13713 H 1243.79 0.51515 2.52396 0
M  V30 13714 H 1243.74 -1.16811 2.91895 0
M  V30 13715 N 1247.52 -1.0444 1.18026 0
M  V30 13716 C 1248.45 -2.12388 0.86162 0
M  V30 13717 C 1249.46 -1.62204 -0.139196 0
M  V30 13718 O 1250.65 -1.78282 0.0881334 0
M  V30 13719 C 1247.75 -3.37859 0.265407 0
M  V30 13720 C 1246.92 -4.17292 1.31096 0
M  V30 13721 C 1245.98 -5.21096 0.731121 0
M  V30 13722 O 1245.01 -5.5159 1.40488 0
M  V30 13723 N 1246.21 -5.78568 -0.473194 0
M  V30 13724 H 1248.98 -2.40317 1.79074 0
M  V30 13725 H 1246.54 -1.20601 1.08014 0
M  V30 13726 H 1248.53 -4.04472 -0.135976 0
M  V30 13727 H 1247.1 -3.07403 -0.567658 0
M  V30 13728 H 1246.32 -3.46057 1.8878 0
M  V30 13729 H 1247.61 -4.67158 2.01596 0
M  V30 13730 H 1247 -5.56088 -1.03839 0
M  V30 13731 H 1245.56 -6.46665 -0.816545 0
M  V30 13732 N 1248.99 -0.981699 -1.2329 0
M  V30 13733 C 1249.9 -0.531296 -2.28505 0
M  V30 13734 C 1250.92 0.414531 -1.6899 0
M  V30 13735 O 1252.1 0.284129 -1.99386 0
M  V30 13736 C 1249.16 0.157864 -3.4634 0
M  V30 13737 C 1248.22 -0.829527 -4.21209 0
M  V30 13738 C 1247.46 -0.17316 -5.33419 0
M  V30 13739 O 1247.68 1.03549 -5.60922 0
M  V30 13740 O 1246.61 -0.872385 -5.95544 0
M  V30 13741 H 1250.44 -1.40633 -2.69177 0
M  V30 13742 H 1248.02 -0.749395 -1.29246 0
M  V30 13743 H 1249.91 0.544394 -4.17869 0
M  V30 13744 H 1248.58 1.00764 -3.07617 0
M  V30 13745 H 1247.49 -1.26678 -3.51999 0
M  V30 13746 H 1248.82 -1.64815 -4.63785 0
M  V30 13747 N 1250.47 1.3842 -0.753509 0
M  V30 13748 C 1251.72 1.99359 -0.306416 0
M  V30 13749 C 1252.03 1.60492 1.11811 0
M  V30 13750 O 1253.24 2.14401 1.66567 0
M  V30 13751 C 1251.7 3.56453 -0.496895 0
M  V30 13752 C 1251.3 4.04272 -1.9305 0
M  V30 13753 C 1253.05 4.24351 -0.11251 0
M  V30 13754 C 1250.96 5.54007 -2.06955 0
M  V30 13755 H 1249.89 0.745812 -0.110818 0
M  V30 13756 H 1252.54 1.58185 -0.930039 0
M  V30 13757 H 1250.92 3.95515 0.195912 0
M  V30 13758 H 1252.09 3.765 -2.65677 0
M  V30 13759 H 1250.41 3.49098 -2.26979 0
M  V30 13760 H 1253 5.34344 -0.195161 0
M  V30 13761 H 1253.35 4.05668 0.934849 0
M  V30 13762 H 1253.88 3.90528 -0.757168 0
M  V30 13763 H 1250.62 5.77594 -3.09944 0
M  V30 13764 H 1250.14 5.83522 -1.38788 0
M  V30 13765 H 1251.82 6.19704 -1.85945 0
M  V30 13766 N 1251.95 0.502579 1.49372 0
M  V30 13767 C 1253.2 -0.0414423 2.02758 0
M  V30 13768 C 1253.53 -1.36499 1.38136 0
M  V30 13769 O 1252.8 -1.87487 0.517593 0
M  V30 13770 C 1253.09 -0.192333 3.59586 0
M  V30 13771 C 1252.94 1.15445 4.34733 0
M  V30 13772 C 1254.26 -0.932218 4.30114 0
M  V30 13773 H 1251.38 -0.0135869 0.736875 0
M  V30 13774 H 1254.02 0.654296 1.78379 0
M  V30 13775 H 1252.17 -0.78491 3.80488 0
M  V30 13776 H 1253.84 1.78603 4.25322 0
M  V30 13777 H 1252.09 1.74333 3.97228 0
M  V30 13778 H 1252.76 1.00216 5.42827 0
M  V30 13779 H 1255.23 -0.429632 4.13876 0
M  V30 13780 H 1254.11 -1.00664 5.39591 0
M  V30 13781 H 1254.37 -1.9763 3.95468 0
M  V30 13782 N 1253.43 -1.55816 0.23648 0
M  V30 13783 C 1254.38 -2.22322 -0.68378 0
M  V30 13784 C 1255.37 -1.2074 -1.1882 0
M  V30 13785 O 1256.58 -1.38781 -1.14629 0
M  V30 13786 H 1252.95 -0.713021 -0.238966 0
M  V30 13787 H 1254.92 -2.98234 -0.0995879 0
M  V30 13788 C 1253.67 -2.92845 -1.87449 0
M  V30 13789 H 1252.99 -3.70777 -1.49548 0
M  V30 13790 H 1254.43 -3.42758 -2.49585 0
M  V30 13791 C 1252.89 -1.96139 -2.73918 0
M  V30 13792 O 1253.42 -1.48781 -3.73132 0
M  V30 13793 N 1251.63 -1.63465 -2.40266 0
M  V30 13794 H 1251.18 -2.02171 -1.59639 0
M  V30 13795 H 1251.13 -0.990239 -2.98398 0
M  V30 13796 N 1254.91 0.036755 -1.57557 0
M  V30 13797 C 1255.84 1.03939 -2.09091 0
M  V30 13798 C 1256.82 1.38196 -0.991761 0
M  V30 13799 O 1258 1.47214 -1.26656 0
M  V30 13800 C 1255.13 2.34263 -2.56394 0
M  V30 13801 C 1254.09 2.14269 -3.70504 0
M  V30 13802 C 1253.41 3.50286 -4.03985 0
M  V30 13803 C 1254.71 1.53514 -4.9923 0
M  V30 13804 H 1256.41 0.610429 -2.93111 0
M  V30 13805 H 1253.95 0.292183 -1.41005 0
M  V30 13806 H 1255.91 3.04727 -2.91066 0
M  V30 13807 H 1254.63 2.79205 -1.69447 0
M  V30 13808 H 1253.29 1.46239 -3.36169 0
M  V30 13809 H 1252.94 3.92861 -3.14116 0
M  V30 13810 H 1252.64 3.37735 -4.80842 0
M  V30 13811 H 1254.16 4.22124 -4.41184 0
M  V30 13812 H 1255.57 2.13885 -5.31908 0
M  V30 13813 H 1253.97 1.51561 -5.80646 0
M  V30 13814 H 1255.04 0.500126 -4.82314 0
M  V30 13815 N 1256.39 1.54543 0.308881 0
M  V30 13816 C 1257.61 1.77753 1.06857 0
M  V30 13817 C 1258.04 0.531616 1.80431 0
M  V30 13818 O 1257.39 -0.517513 1.73757 0
M  V30 13819 C 1257.44 2.97968 2.03094 0
M  V30 13820 O 1256.55 2.70541 3.11257 0
M  V30 13821 H 1255.89 0.588576 0.307368 0
M  V30 13822 H 1258.42 2.01607 0.348703 0
M  V30 13823 H 1258.43 3.25722 2.45702 0
M  V30 13824 H 1257.1 3.88314 1.48948 0
M  V30 13825 H 1255.68 2.53781 2.7322 0
M  V30 13826 N 1257.86 -0.571685 1.46866 0
M  V30 13827 C 1258.81 -1.67992 1.58263 0
M  V30 13828 C 1259.78 -1.60535 0.426345 0
M  V30 13829 O 1260.97 -1.79584 0.644534 0
M  V30 13830 C 1258.11 -3.06327 1.58927 0
M  V30 13831 C 1257.22 -3.24328 2.85369 0
M  V30 13832 C 1256.35 -4.52976 2.77464 0
M  V30 13833 C 1255.39 -4.64359 3.98795 0
M  V30 13834 N 1254.53 -5.84345 3.89211 0
M  V30 13835 H 1259.37 -1.57589 2.52922 0
M  V30 13836 H 1256.91 -0.767883 1.25467 0
M  V30 13837 H 1258.86 -3.86411 1.57296 0
M  V30 13838 H 1257.49 -3.15601 0.677912 0
M  V30 13839 H 1256.55 -2.37774 2.96931 0
M  V30 13840 H 1257.86 -3.28605 3.7526 0
M  V30 13841 H 1257.01 -5.41303 2.74001 0
M  V30 13842 H 1255.75 -4.51155 1.85231 0
M  V30 13843 H 1254.76 -3.74448 4.02578 0
M  V30 13844 H 1255.98 -4.6795 4.92137 0
M  V30 13845 H 1253.93 -5.835 2.99772 0
M  V30 13846 H 1253.84 -5.89938 4.72768 0
M  V30 13847 H 1255.11 -6.75072 3.89741 0
M  V30 13848 N 1259.34 -1.34755 -0.817236 0
M  V30 13849 C 1260.25 -1.28888 -1.96023 0
M  V30 13850 C 1261.27 -0.195582 -1.72897 0
M  V30 13851 O 1262.44 -0.423071 -1.96906 0
M  V30 13852 C 1259.51 -1.04985 -3.30423 0
M  V30 13853 C 1258.57 -2.23526 -3.66517 0
M  V30 13854 C 1257.8 -2.00753 -4.94504 0
M  V30 13855 O 1258.03 -0.968622 -5.62116 0
M  V30 13856 O 1256.96 -2.87848 -5.28608 0
M  V30 13857 H 1260.79 -2.25059 -2.03917 0
M  V30 13858 H 1258.37 -1.15019 -0.953467 0
M  V30 13859 H 1260.25 -0.934589 -4.10906 0
M  V30 13860 H 1258.93 -0.118582 -3.23483 0
M  V30 13861 H 1257.83 -2.40613 -2.86455 0
M  V30 13862 H 1259.17 -3.15062 -3.78149 0
M  V30 13863 N 1260.82 1.03812 -1.18578 0
M  V30 13864 C 1261.78 2.10049 -0.91718 0
M  V30 13865 C 1262.78 1.60498 0.0985122 0
M  V30 13866 O 1263.97 1.73674 -0.135213 0
M  V30 13867 C 1261.1 3.38813 -0.376599 0
M  V30 13868 H 1262.3 2.3531 -1.85927 0
M  V30 13869 H 1259.85 1.20277 -0.998156 0
M  V30 13870 H 1260.59 3.19216 0.571983 0
M  V30 13871 H 1260.37 3.76096 -1.10881 0
M  V30 13872 H 1261.86 4.17084 -0.207453 0
M  V30 13873 N 1262.3 0.988223 1.22768 0
M  V30 13874 C 1263.23 0.492919 2.23837 0
M  V30 13875 C 1264.24 -0.409467 1.57567 0
M  V30 13876 O 1265.43 -0.21235 1.77232 0
M  V30 13877 C 1262.53 -0.305428 3.37521 0
M  V30 13878 C 1261.7 0.591966 4.33376 0
M  V30 13879 C 1260.76 -0.15387 5.25975 0
M  V30 13880 O 1259.79 0.459153 5.67345 0
M  V30 13881 N 1260.99 -1.43756 5.62418 0
M  V30 13882 H 1263.76 1.36199 2.66965 0
M  V30 13883 H 1261.32 0.862395 1.3702 0
M  V30 13884 H 1263.31 -0.812921 3.96451 0
M  V30 13885 H 1261.88 -1.07556 2.93514 0
M  V30 13886 H 1261.1 1.28019 3.72833 0
M  V30 13887 H 1262.39 1.20327 4.94367 0
M  V30 13888 H 1261.79 -1.95701 5.30771 0
M  V30 13889 H 1260.34 -1.89034 6.23786 0
M  V30 13890 N 1263.78 -1.38018 0.760839 0
M  V30 13891 C 1264.72 -2.30387 0.13796 0
M  V30 13892 C 1265.69 -1.50548 -0.701754 0
M  V30 13893 O 1266.88 -1.79154 -0.656381 0
M  V30 13894 C 1264.02 -3.36993 -0.743642 0
M  V30 13895 C 1263.13 -4.31856 0.111489 0
M  V30 13896 C 1262.27 -5.25534 -0.773796 0
M  V30 13897 C 1261.3 -6.12042 0.0845311 0
M  V30 13898 N 1260.44 -6.97995 -0.758118 0
M  V30 13899 H 1265.28 -2.83077 0.931212 0
M  V30 13900 H 1262.82 -1.39361 0.470833 0
M  V30 13901 H 1264.78 -3.97417 -1.26948 0
M  V30 13902 H 1263.41 -2.85695 -1.50261 0
M  V30 13903 H 1262.46 -3.72832 0.755031 0
M  V30 13904 H 1263.77 -4.92758 0.774042 0
M  V30 13905 H 1262.92 -5.9111 -1.36653 0
M  V30 13906 H 1261.66 -4.65017 -1.47006 0
M  V30 13907 H 1260.67 -5.45455 0.689883 0
M  V30 13908 H 1261.89 -6.74629 0.777966 0
M  V30 13909 H 1259.84 -6.40018 -1.4392 0
M  V30 13910 H 1259.76 -7.55846 -0.152623 0
M  V30 13911 H 1261.02 -7.67973 -1.33559 0
M  V30 13912 N 1265.25 -0.510493 -1.49103 0
M  V30 13913 C 1266.5 0.0306436 -2.02477 0
M  V30 13914 C 1266.83 1.36113 -1.38937 0
M  V30 13915 O 1266.08 1.88731 -0.517584 0
M  V30 13916 C 1266.38 0.221921 -3.5671 0
M  V30 13917 C 1266.05 -1.03176 -4.38937 0
M  V30 13918 C 1264.71 -1.37539 -4.61125 0
M  V30 13919 C 1267.06 -1.86464 -4.86704 0
M  V30 13920 C 1264.39 -2.55124 -5.28326 0
M  V30 13921 C 1266.74 -3.03211 -5.55199 0
M  V30 13922 C 1265.41 -3.37943 -5.75631 0
M  V30 13923 H 1264.68 0.0112133 -0.740915 0
M  V30 13924 H 1267.32 -0.672574 -1.79301 0
M  V30 13925 H 1265.63 1.00775 -3.78618 0
M  V30 13926 H 1267.33 0.655223 -3.95611 0
M  V30 13927 H 1263.92 -0.754105 -4.21914 0
M  V30 13928 H 1268.1 -1.61229 -4.69381 0
M  V30 13929 H 1263.36 -2.8226 -5.42346 0
M  V30 13930 H 1267.53 -3.68068 -5.91185 0
M  V30 13931 H 1265.16 -4.29158 -6.27477 0
M  V30 13932 N 1266.73 1.55688 -0.24474 0
M  V30 13933 C 1268.01 1.90796 0.430821 0
M  V30 13934 C 1268.39 1.1652 1.76029 0
M  V30 13935 O 1267.74 0.281978 2.26753 0
M  V30 13936 C 1267.95 3.43786 0.601027 0
M  V30 13937 C 1269.29 4.14998 0.897894 0
M  V30 13938 O 1270.32 3.49513 0.68697 0
M  V30 13939 O 1269.18 5.30826 1.29945 0
M  V30 13940 H 1266.27 0.794086 0.230991 0
M  V30 13941 H 1268.82 1.67227 -0.288646 0
M  V30 13942 H 1267.59 3.89856 -0.335804 0
M  V30 13943 H 1267.21 3.73211 1.37112 0
M  V30 13944 N 1268.21 -0.0283989 1.57574 0
M  V30 13945 C 1269.43 -0.734537 1.93957 0
M  V30 13946 C 1269.86 -1.68062 0.844787 0
M  V30 13947 O 1269.22 -1.802 -0.199432 0
M  V30 13948 C 1269.27 -1.46716 3.29404 0
M  V30 13949 O 1268.37 -2.58036 3.217 0
M  V30 13950 H 1267.71 -0.197507 0.633946 0
M  V30 13951 H 1270.24 0.0163258 2.04593 0
M  V30 13952 H 1270.25 -1.83693 3.64309 0
M  V30 13953 H 1268.93 -0.773292 4.08648 0
M  V30 13954 H 1267.5 -2.23597 2.98427 0
M  V30 13955 N 1269.69 -1.54705 -0.300681 0
M  V30 13956 C 1270.91 -1.78318 -1.05913 0
M  V30 13957 C 1271.34 -0.541177 -1.80147 0
M  V30 13958 O 1270.7 0.508291 -1.74029 0
M  V30 13959 C 1270.74 -2.99041 -2.01511 0
M  V30 13960 O 1269.85 -2.72188 -3.09818 0
M  V30 13961 H 1269.19 -0.590197 -0.304242 0
M  V30 13962 H 1271.72 -2.01789 -0.338006 0
M  V30 13963 H 1271.73 -3.2702 -2.43971 0
M  V30 13964 H 1270.4 -3.89098 -1.46886 0
M  V30 13965 H 1268.98 -2.55227 -2.71871 0
M  V30 13966 N 1271.17 0.563888 -1.47167 0
M  V30 13967 C 1272.1 1.68137 -1.62025 0
M  V30 13968 C 1273.08 1.63481 -0.469899 0
M  V30 13969 O 1274.26 1.81206 -0.698432 0
M  V30 13970 C 1271.39 3.06779 -1.62801 0
M  V30 13971 C 1270.35 3.26278 -2.76996 0
M  V30 13972 C 1269.67 4.65638 -2.62841 0
M  V30 13973 C 1270.97 3.12295 -4.18651 0
M  V30 13974 H 1272.67 1.55958 -2.55573 0
M  V30 13975 H 1270.21 0.74887 -1.22996 0
M  V30 13976 H 1272.17 3.84795 -1.71787 0
M  V30 13977 H 1270.89 3.19901 -0.658097 0
M  V30 13978 H 1269.55 2.50668 -2.67509 0
M  V30 13979 H 1269.2 4.75551 -1.63892 0
M  V30 13980 H 1268.9 4.79635 -3.39447 0
M  V30 13981 H 1270.42 5.45798 -2.73746 0
M  V30 13982 H 1271.83 3.80136 -4.2915 0
M  V30 13983 H 1270.23 3.37805 -4.95992 0
M  V30 13984 H 1271.3 2.09126 -4.37486 0
M  V30 13985 N 1272.64 1.35187 0.810078 0
M  V30 13986 C 1273.89 1.28011 1.56389 0
M  V30 13987 C 1274.21 -0.14622 1.94451 0
M  V30 13988 O 1273.48 -1.08185 1.63318 0
M  V30 13989 H 1272.06 0.470837 0.579932 0
M  V30 13990 H 1274.73 1.69249 0.966476 0
M  V30 13991 H 1273.82 1.89362 2.4809 0
M  V30 13992 N 1274.12 -1.03182 1.19127 0
M  V30 13993 C 1275.09 -2.09559 0.928307 0
M  V30 13994 C 1276.09 -1.60548 -0.0899992 0
M  V30 13995 O 1277.28 -1.736 0.144422 0
M  V30 13996 C 1274.41 -3.38609 0.394561 0
M  V30 13997 H 1275.6 -2.34321 1.87173 0
M  V30 13998 H 1273.15 -1.19746 1.00452 0
M  V30 13999 H 1273.89 -3.19515 -0.555046 0
M  V30 14000 H 1273.67 -3.75502 1.12873 0
M  V30 14001 H 1275.16 -4.16969 0.229569 0
M  V30 14002 N 1275.6 -0.99472 -1.22242 0
M  V30 14003 C 1276.53 -0.566499 -2.26524 0
M  V30 14004 C 1277.51 0.407541 -1.65146 0
M  V30 14005 O 1278.7 0.297777 -1.91903 0
M  V30 14006 C 1275.83 0.11786 -3.471 0
M  V30 14007 C 1274.78 -0.774908 -4.20927 0
M  V30 14008 C 1274.11 0.0424687 -5.34683 0
M  V30 14009 C 1275.41 -2.07263 -4.79416 0
M  V30 14010 H 1277.1 -1.43818 -2.62596 0
M  V30 14011 H 1274.65 -0.692971 -1.2623 0
M  V30 14012 H 1276.6 0.428842 -4.19212 0
M  V30 14013 H 1275.32 1.0241 -3.10129 0
M  V30 14014 H 1273.98 -1.06956 -3.50651 0
M  V30 14015 H 1273.63 0.949677 -4.93954 0
M  V30 14016 H 1273.33 -0.551867 -5.85003 0
M  V30 14017 H 1274.85 0.347504 -6.0961 0
M  V30 14018 H 1276.27 -1.82548 -5.4346 0
M  V30 14019 H 1274.67 -2.61594 -5.40082 0
M  V30 14020 H 1275.74 -2.75017 -3.99366 0
M  V30 14021 N 1277.08 1.37613 -0.768148 0
M  V30 14022 C 1278.03 2.30311 -0.150176 0
M  V30 14023 C 1279 1.50918 0.69376 0
M  V30 14024 O 1280.18 1.795 0.64687 0
M  V30 14025 C 1277.32 3.37382 0.72576 0
M  V30 14026 C 1276.43 4.31791 -0.13439 0
M  V30 14027 C 1275.57 5.25937 0.745915 0
M  V30 14028 C 1274.61 6.11988 -0.116988 0
M  V30 14029 N 1273.74 6.98387 0.721091 0
M  V30 14030 H 1278.58 2.82579 -0.946212 0
M  V30 14031 H 1276.12 1.3911 -0.478217 0
M  V30 14032 H 1278.08 3.98084 1.24839 0
M  V30 14033 H 1276.71 2.86488 1.48743 0
M  V30 14034 H 1275.76 3.72426 -0.774793 0
M  V30 14035 H 1277.07 4.9234 -0.800163 0
M  V30 14036 H 1276.23 5.91826 1.33516 0
M  V30 14037 H 1274.97 4.6579 1.44538 0
M  V30 14038 H 1273.97 5.45081 -0.7188 0
M  V30 14039 H 1275.2 6.74207 -0.813732 0
M  V30 14040 H 1273.14 6.40772 1.40524 0
M  V30 14041 H 1273.06 7.55916 0.112536 0
M  V30 14042 H 1274.33 7.6867 1.29485 0
M  V30 14043 N 1278.56 0.518393 1.4883 0
M  V30 14044 C 1279.78 -0.0162 2.06894 0
M  V30 14045 C 1280.2 -1.29222 1.37649 0
M  V30 14046 O 1279.56 -1.766 0.460288 0
M  V30 14047 C 1279.61 -0.255836 3.60594 0
M  V30 14048 O 1279.33 0.969612 4.27235 0
M  V30 14049 C 1280.83 -0.832117 4.3542 0
M  V30 14050 H 1278.05 0.0282877 0.670403 0
M  V30 14051 H 1280.59 0.720726 1.91379 0
M  V30 14052 H 1278.75 -0.942782 3.75753 0
M  V30 14053 H 1279.16 0.743172 5.19208 0
M  V30 14054 H 1280.64 -0.949279 5.43776 0
M  V30 14055 H 1281.11 -1.83421 3.99066 0
M  V30 14056 H 1281.72 -0.1821 4.2491 0
M  V30 14057 N 1280.03 -1.55556 0.252993 0
M  V30 14058 C 1280.94 -2.25283 -0.654581 0
M  V30 14059 C 1281.96 -1.27103 -1.18831 0
M  V30 14060 O 1283.14 -1.59993 -1.22329 0
M  V30 14061 C 1280.2 -2.94336 -1.83214 0
M  V30 14062 C 1279.26 -4.0794 -1.33728 0
M  V30 14063 C 1278.5 -4.73691 -2.45871 0
M  V30 14064 O 1278.72 -4.38545 -3.64738 0
M  V30 14065 O 1277.65 -5.62083 -2.15283 0
M  V30 14066 H 1281.48 -3.03565 -0.0904091 0
M  V30 14067 H 1279.06 -1.49385 0.0212535 0
M  V30 14068 H 1280.95 -3.37808 -2.5192 0
M  V30 14069 H 1279.62 -2.18989 -2.38381 0
M  V30 14070 H 1278.53 -3.68971 -0.617323 0
M  V30 14071 H 1279.86 -4.85124 -0.831617 0
M  V30 14072 N 1281.51 0.0200419 -1.57587 0
M  V30 14073 C 1282.44 1.01715 -2.10181 0
M  V30 14074 C 1283.42 1.37136 -1.00636 0
M  V30 14075 O 1284.61 1.45862 -1.2821 0
M  V30 14076 C 1281.74 2.31531 -2.58865 0
M  V30 14077 C 1280.69 2.10327 -3.72755 0
M  V30 14078 C 1280.02 3.45981 -4.07678 0
M  V30 14079 C 1281.32 1.4821 -5.0083 0
M  V30 14080 H 1283.01 0.579307 -2.93742 0
M  V30 14081 H 1280.56 0.277211 -1.41307 0
M  V30 14082 H 1282.51 3.01623 -2.94281 0
M  V30 14083 H 1281.24 2.77392 -1.72399 0
M  V30 14084 H 1279.89 1.42665 -3.37701 0
M  V30 14085 H 1279.54 3.89508 -3.18265 0
M  V30 14086 H 1279.24 3.32616 -4.84397 0
M  V30 14087 H 1280.77 4.17421 -4.45637 0
M  V30 14088 H 1282.18 2.08232 -5.34146 0
M  V30 14089 H 1280.58 1.45393 -5.82221 0
M  V30 14090 H 1281.65 0.448942 -4.82817 0
M  V30 14091 N 1282.99 1.54862 0.292472 0
M  V30 14092 C 1284.22 1.78877 1.04966 0
M  V30 14093 C 1284.64 0.550724 1.79857 0
M  V30 14094 O 1284 -0.499054 1.74296 0
M  V30 14095 C 1284.05 3.00106 1.99922 0
M  V30 14096 O 1283.15 2.73827 3.0837 0
M  V30 14097 H 1282.49 0.591802 0.301108 0
M  V30 14098 H 1285.02 2.01965 0.3273 0
M  V30 14099 H 1285.03 3.28309 2.42233 0
M  V30 14100 H 1283.71 3.89872 1.44821 0
M  V30 14101 H 1282.28 2.56665 2.70513 0
M  V30 14102 N 1284.47 -0.556076 1.47464 0
M  V30 14103 C 1285.7 -1.33664 1.57536 0
M  V30 14104 C 1286.11 -1.87858 0.224977 0
M  V30 14105 O 1285.45 -1.65746 -0.792091 0
M  V30 14106 C 1285.51 -2.54257 2.54152 0
M  V30 14107 C 1285.18 -2.21342 3.99821 0
M  V30 14108 C 1286.17 -1.78568 4.88272 0
M  V30 14109 C 1283.86 -2.32666 4.45165 0
M  V30 14110 C 1285.85 -1.47549 6.20087 0
M  V30 14111 C 1283.54 -2.0126 5.77008 0
M  V30 14112 C 1284.54 -1.58769 6.6429 0
M  V30 14113 O 1284.22 -1.27762 7.93683 0
M  V30 14114 H 1283.96 -0.413721 0.534613 0
M  V30 14115 H 1286.51 -0.680342 1.93805 0
M  V30 14116 H 1284.74 -3.22782 2.12952 0
M  V30 14117 H 1286.43 -3.16332 2.5434 0
M  V30 14118 H 1287.2 -1.69311 4.54487 0
M  V30 14119 H 1283.07 -2.64698 3.77433 0
M  V30 14120 H 1286.62 -1.1431 6.88171 0
M  V30 14121 H 1282.52 -2.10149 6.10334 0
M  V30 14122 H 1283.28 -1.41383 8.06197 0
M  V30 14123 N 1285.95 -1.35615 -0.802897 0
M  V30 14124 C 1286.89 -1.28839 -1.91492 0
M  V30 14125 C 1287.86 -0.159621 -1.65331 0
M  V30 14126 O 1289.05 -0.343931 -1.87675 0
M  V30 14127 C 1286.19 -1.06999 -3.28093 0
M  V30 14128 C 1285.3 -2.28831 -3.66416 0
M  V30 14129 C 1284.44 -2.00111 -4.92066 0
M  V30 14130 C 1283.48 -3.17977 -5.23027 0
M  V30 14131 N 1282.61 -2.89009 -6.39858 0
M  V30 14132 H 1287.45 -2.2393 -1.96619 0
M  V30 14133 H 1284.99 -1.1131 -0.961687 0
M  V30 14134 H 1286.95 -0.923673 -4.06847 0
M  V30 14135 H 1285.58 -0.155684 -3.22424 0
M  V30 14136 H 1284.63 -2.54314 -2.82893 0
M  V30 14137 H 1285.94 -3.1683 -3.85253 0
M  V30 14138 H 1285.1 -1.82331 -5.78654 0
M  V30 14139 H 1283.84 -1.09402 -4.75271 0
M  V30 14140 H 1282.84 -3.3633 -4.34928 0
M  V30 14141 H 1284.07 -4.09493 -5.41749 0
M  V30 14142 H 1282.01 -2.00898 -6.24481 0
M  V30 14143 H 1281.93 -3.70544 -6.58964 0
M  V30 14144 H 1283.2 -2.74779 -7.29463 0
M  V30 14145 N 1287.43 1.02549 -1.19673 0
M  V30 14146 C 1288.65 1.79623 -1.0268 0
M  V30 14147 C 1289.07 1.83969 0.424345 0
M  V30 14148 O 1288.43 1.28621 1.29472 0
M  V30 14149 C 1288.48 3.24514 -1.59289 0
M  V30 14150 O 1288.2 3.20462 -2.98723 0
M  V30 14151 C 1289.7 4.18173 -1.47126 0
M  V30 14152 H 1286.92 0.565167 -0.3617 0
M  V30 14153 H 1289.46 1.29143 -1.58564 0
M  V30 14154 H 1287.62 3.72173 -1.07546 0
M  V30 14155 H 1288.03 4.11341 -3.25421 0
M  V30 14156 H 1289.51 5.17714 -1.9151 0
M  V30 14157 H 1289.98 4.37165 -0.422315 0
M  V30 14158 H 1290.59 3.7639 -1.98017 0
M  V30 14159 N 1288.9 1.00119 1.21713 0
M  V30 14160 C 1289.84 0.516633 2.23301 0
M  V30 14161 C 1290.85 -0.392732 1.57992 0
M  V30 14162 O 1292.04 -0.19354 1.77448 0
M  V30 14163 C 1289.14 -0.269612 3.37826 0
M  V30 14164 C 1288.31 0.637898 4.32723 0
M  V30 14165 C 1287.37 -0.0980745 5.26109 0
M  V30 14166 O 1286.4 0.519302 5.66826 0
M  V30 14167 N 1287.6 -1.37783 5.63911 0
M  V30 14168 H 1290.36 1.39022 2.65505 0
M  V30 14169 H 1287.92 0.87688 1.36097 0
M  V30 14170 H 1289.92 -0.770826 3.97291 0
M  V30 14171 H 1288.49 -1.04436 2.94638 0
M  V30 14172 H 1287.71 1.31966 3.71455 0
M  V30 14173 H 1288.99 1.25564 4.93063 0
M  V30 14174 H 1288.39 -1.90061 5.32817 0
M  V30 14175 H 1286.95 -1.82407 6.25756 0
M  V30 14176 N 1290.38 -1.37203 0.775435 0
M  V30 14177 C 1291.29 -2.34019 0.165062 0
M  V30 14178 C 1292.31 -1.6036 -0.675316 0
M  V30 14179 O 1293.48 -1.9243 -0.594375 0
M  V30 14180 C 1290.55 -3.3954 -0.700957 0
M  V30 14181 C 1289.61 -4.29015 0.156304 0
M  V30 14182 C 1288.84 -5.29497 -0.668476 0
M  V30 14183 O 1289.07 -5.37636 -1.90535 0
M  V30 14184 O 1288 -6.01852 -0.0757351 0
M  V30 14185 H 1291.83 -2.87955 0.965184 0
M  V30 14186 H 1289.41 -1.39429 0.536654 0
M  V30 14187 H 1291.29 -4.04094 -1.19524 0
M  V30 14188 H 1289.97 -2.87926 -1.4792 0
M  V30 14189 H 1288.87 -3.67549 0.69703 0
M  V30 14190 H 1290.21 -4.83944 0.897725 0
M  V30 14191 N 1291.86 -0.526279 -1.48553 0
M  V30 14192 C 1292.79 0.227364 -2.3239 0
M  V30 14193 C 1293.77 0.93862 -1.41859 0
M  V30 14194 O 1294.96 0.925119 -1.70749 0
M  V30 14195 C 1292.09 1.277 -3.22971 0
M  V30 14196 C 1291.04 0.684107 -4.22497 0
M  V30 14197 C 1290.37 1.83612 -5.02186 0
M  V30 14198 C 1291.67 -0.341723 -5.21181 0
M  V30 14199 H 1293.36 -0.472486 -2.95648 0
M  V30 14200 H 1290.91 -0.228669 -1.42173 0
M  V30 14201 H 1292.86 1.81215 -3.80446 0
M  V30 14202 H 1291.58 2.00638 -2.57705 0
M  V30 14203 H 1290.24 0.170505 -3.66203 0
M  V30 14204 H 1289.89 2.55379 -4.33348 0
M  V30 14205 H 1289.59 1.44536 -5.69547 0
M  V30 14206 H 1291.11 2.37513 -5.62512 0
M  V30 14207 H 1292.53 0.106207 -5.73202 0
M  V30 14208 H 1290.92 -0.649673 -5.96573 0
M  V30 14209 H 1291.99 -1.2488 -4.68543 0
M  V30 14210 N 1293.34 1.5542 -0.261239 0
M  V30 14211 C 1294.27 2.19334 0.665214 0
M  V30 14212 C 1295.28 1.17388 1.128 0
M  V30 14213 O 1296.47 1.44183 1.0523 0
M  V30 14214 C 1293.57 2.79425 1.91768 0
M  V30 14215 C 1292.74 4.06929 1.60399 0
M  V30 14216 C 1291.8 4.51199 2.70751 0
M  V30 14217 O 1290.83 5.17272 2.37526 0
M  V30 14218 N 1292.03 4.20179 4.00537 0
M  V30 14219 H 1294.8 2.99467 0.118262 0
M  V30 14220 H 1292.36 1.61693 -0.0817727 0
M  V30 14221 H 1294.35 3.05992 2.64861 0
M  V30 14222 H 1292.92 2.03366 2.37405 0
M  V30 14223 H 1292.14 3.87798 0.707559 0
M  V30 14224 H 1293.43 4.9003 1.36924 0
M  V30 14225 H 1292.83 3.67164 4.30357 0
M  V30 14226 H 1291.38 4.51549 4.7005 0
M  V30 14227 N 1294.82 -0.0116844 1.57596 0
M  V30 14228 C 1295.73 -1.02342 2.111 0
M  V30 14229 C 1296.74 -1.38478 1.05355 0
M  V30 14230 O 1297.92 -1.47447 1.37191 0
M  V30 14231 C 1294.98 -2.30016 2.5941 0
M  V30 14232 C 1294.04 -2.003 3.79708 0
M  V30 14233 C 1293.28 -3.21888 4.25704 0
M  V30 14234 O 1293.5 -4.33171 3.71106 0
M  V30 14235 O 1292.43 -3.0657 5.17975 0
M  V30 14236 H 1296.26 -0.598637 2.97742 0
M  V30 14237 H 1293.84 -0.229779 1.47622 0
M  V30 14238 H 1295.73 -3.05044 2.90733 0
M  V30 14239 H 1294.4 -2.71755 1.75871 0
M  V30 14240 H 1293.31 -1.22785 3.53376 0
M  V30 14241 H 1294.64 -1.63406 4.64284 0
M  V30 14242 N 1296.29 -1.55015 -0.284256 0
M  V30 14243 C 1297.24 -1.87122 -1.35107 0
M  V30 14244 C 1298.21 -0.721638 -1.49605 0
M  V30 14245 O 1299.4 -0.971855 -1.64194 0
M  V30 14246 C 1296.54 -2.1388 -2.70831 0
M  V30 14247 C 1295.65 -3.41447 -2.64647 0
M  V30 14248 C 1294.78 -3.57961 -3.92476 0
M  V30 14249 C 1293.82 -4.79261 -3.80757 0
M  V30 14250 N 1292.96 -4.92492 -5.00395 0
M  V30 14251 H 1297.8 -2.78117 -1.07027 0
M  V30 14252 H 1295.34 -1.37704 -0.517311 0
M  V30 14253 H 1297.29 -2.27391 -3.49784 0
M  V30 14254 H 1295.92 -1.26132 -2.97137 0
M  V30 14255 H 1294.98 -3.36467 -1.77466 0
M  V30 14256 H 1296.29 -4.3053 -2.51884 0
M  V30 14257 H 1295.44 -3.71229 -4.79868 0
M  V30 14258 H 1294.18 -2.67042 -4.08093 0
M  V30 14259 H 1293.19 -4.66008 -2.91747 0
M  V30 14260 H 1294.41 -5.71604 -3.66669 0
M  V30 14261 H 1292.36 -4.04501 -5.16445 0
M  V30 14262 H 1292.27 -5.75603 -4.9012 0
M  V30 14263 H 1293.54 -5.10134 -5.89392 0
M  V30 14264 N 1297.77 0.548248 -1.47757 0
M  V30 14265 C 1299 1.3302 -1.58472 0
M  V30 14266 C 1299.41 1.87292 -0.238186 0
M  V30 14267 O 1298.77 1.65465 0.76991 0
M  V30 14268 C 1298.82 2.49386 -2.61704 0
M  V30 14269 O 1298.54 1.97355 -3.9113 0
M  V30 14270 C 1300.04 3.41471 -2.82688 0
M  V30 14271 H 1297.26 0.405172 -0.534861 0
M  V30 14272 H 1299.81 0.663251 -1.93446 0
M  V30 14273 H 1297.96 3.12001 -2.29639 0
M  V30 14274 H 1298.38 2.7339 -4.47614 0
M  V30 14275 H 1299.85 4.19516 -3.58762 0
M  V30 14276 H 1300.33 3.95573 -1.90837 0
M  V30 14277 H 1300.93 2.84664 -3.15985 0
M  V30 14278 N 1299.25 1.36039 0.795694 0
M  V30 14279 C 1300.67 1.16315 1.09284 0
M  V30 14280 C 1300.87 -0.017024 2.01493 0
M  V30 14281 O 1299.92 -0.684316 2.4305 0
M  V30 14282 C 1301.23 2.47113 1.71335 0
M  V30 14283 C 1302.78 2.5342 1.83705 0
M  V30 14284 C 1303.26 3.84289 2.49171 0
M  V30 14285 N 1304.75 3.856 2.56645 0
M  V30 14286 C 1305.48 4.83597 3.08094 0
M  V30 14287 N 1304.98 5.91985 3.59897 0
M  V30 14288 N 1306.77 4.71023 3.06748 0
M  V30 14289 H 1298.92 2.11611 0.182957 0
M  V30 14290 H 1301.19 0.937035 0.143771 0
M  V30 14291 H 1300.89 3.33708 1.11049 0
M  V30 14292 H 1300.77 2.62461 2.70914 0
M  V30 14293 H 1303.15 1.67247 2.43131 0
M  V30 14294 H 1303.23 2.41977 0.829495 0
M  V30 14295 H 1302.88 4.70865 1.90391 0
M  V30 14296 H 1302.81 3.93025 3.50484 0
M  V30 14297 H 1305.3 3.07291 2.19956 0
M  V30 14298 H 1305.61 6.6274 3.97487 0
M  V30 14299 H 1303.96 5.95662 3.58066 0
M  V30 14300 H 1307.15 3.8548 2.65561 0
M  V30 14301 H 1307.32 5.47555 3.46536 0
M  V30 14302 N 1300.73 -1.01913 1.20215 0
M  V30 14303 C 1301.64 -2.13864 0.964328 0
M  V30 14304 C 1302.65 -1.73821 -0.0789556 0
M  V30 14305 O 1303.83 -2.01111 0.107914 0
M  V30 14306 C 1300.9 -3.42827 0.516757 0
M  V30 14307 C 1299.96 -3.97127 1.63059 0
M  V30 14308 C 1299.19 -5.19935 1.20428 0
M  V30 14309 O 1299.41 -5.70355 0.0719119 0
M  V30 14310 O 1298.35 -5.67322 2.01071 0
M  V30 14311 H 1302.17 -2.36795 1.90162 0
M  V30 14312 H 1299.76 -1.1226 0.985803 0
M  V30 14313 H 1301.64 -4.20493 0.276272 0
M  V30 14314 H 1300.31 -3.21318 -0.391983 0
M  V30 14315 H 1299.22 -3.20752 1.92533 0
M  V30 14316 H 1300.55 -4.2302 2.51624 0
M  V30 14317 N 1302.21 -1.00763 -1.2118 0
M  V30 14318 C 1303.45 -0.692851 -1.90598 0
M  V30 14319 C 1303.79 0.774698 -1.78079 0
M  V30 14320 O 1303.06 1.56186 -1.15914 0
M  V30 14321 C 1303.34 -1.11792 -3.42308 0
M  V30 14322 C 1303.2 -2.64511 -3.63805 0
M  V30 14323 C 1304.52 -0.682314 -4.34779 0
M  V30 14324 H 1301.63 -0.253175 -0.69215 0
M  V30 14325 H 1304.28 -1.25378 -1.4276 0
M  V30 14326 H 1302.43 -0.640665 -3.83181 0
M  V30 14327 H 1304.1 -3.20021 -3.32242 0
M  V30 14328 H 1302.34 -3.05903 -3.0758 0
M  V30 14329 H 1303.01 -2.89306 -4.70113 0
M  V30 14330 H 1305.49 -1.09247 -4.01503 0
M  V30 14331 H 1304.36 -1.00787 -5.39568 0
M  V30 14332 H 1304.63 0.416441 -4.40134 0
M  V30 14333 N 1303.68 1.3679 -0.7827 0
M  V30 14334 C 1304.62 2.28805 -0.13451 0
M  V30 14335 C 1305.63 1.49159 0.652338 0
M  V30 14336 O 1306.82 1.71682 0.488626 0
M  V30 14337 C 1303.92 3.28508 0.832802 0
M  V30 14338 C 1303.09 4.37291 0.0974435 0
M  V30 14339 C 1302.15 5.16999 0.979715 0
M  V30 14340 O 1301.18 5.67501 0.439439 0
M  V30 14341 N 1302.38 5.32786 2.30477 0
M  V30 14342 H 1305.14 2.85072 -0.924873 0
M  V30 14343 H 1302.7 1.48884 -0.636012 0
M  V30 14344 H 1304.7 3.78718 1.42671 0
M  V30 14345 H 1303.27 2.7293 1.52408 0
M  V30 14346 H 1302.49 3.88335 -0.677483 0
M  V30 14347 H 1303.77 5.07143 -0.410259 0
M  V30 14348 H 1303.17 4.93358 2.76793 0
M  V30 14349 H 1301.73 5.86264 2.84848 0
M  V30 14350 N 1305.16 0.53415 1.48272 0
M  V30 14351 C 1306.07 -0.230062 2.33469 0
M  V30 14352 C 1307.09 -0.934889 1.46751 0
M  V30 14353 O 1308.26 -0.908921 1.79724 0
M  V30 14354 C 1305.33 -1.2609 3.22958 0
M  V30 14355 C 1304.39 -0.565983 4.25553 0
M  V30 14356 C 1303.62 -1.54771 5.10766 0
M  V30 14357 O 1303.85 -2.7807 4.9803 0
M  V30 14358 O 1302.78 -1.08482 5.92043 0
M  V30 14359 H 1306.61 0.468182 3.0007 0
M  V30 14360 H 1304.19 0.29502 1.46458 0
M  V30 14361 H 1306.07 -1.85652 3.783 0
M  V30 14362 H 1304.75 -1.94148 2.59014 0
M  V30 14363 H 1303.66 0.0702391 3.74034 0
M  V30 14364 H 1304.99 0.0727277 4.92146 0
M  V30 14365 N 1306.64 -1.55279 0.269478 0
M  V30 14366 C 1308.06 -1.59374 -0.0848147 0
M  V30 14367 C 1308.26 -1.2867 -1.55068 0
M  V30 14368 O 1307.31 -1.04486 -2.29867 0
M  V30 14369 C 1308.63 -2.99349 0.284735 0
M  V30 14370 C 1310.17 -3.12147 0.230887 0
M  V30 14371 C 1310.65 -4.54379 0.574795 0
M  V30 14372 N 1312.14 -4.60202 0.526136 0
M  V30 14373 C 1312.87 -5.68273 0.765109 0
M  V30 14374 N 1312.37 -6.84512 1.0684 0
M  V30 14375 N 1314.16 -5.57796 0.694287 0
M  V30 14376 H 1306.31 -1.73503 1.22517 0
M  V30 14377 H 1308.58 -0.808771 0.494564 0
M  V30 14378 H 1308.28 -3.26633 1.30398 0
M  V30 14379 H 1308.16 -3.75309 -0.377199 0
M  V30 14380 H 1310.54 -2.84631 -0.779064 0
M  V30 14381 H 1310.63 -2.38412 0.926998 0
M  V30 14382 H 1310.27 -4.8262 1.58241 0
M  V30 14383 H 1310.2 -5.26406 -0.143044 0
M  V30 14384 H 1312.69 -3.76696 0.301368 0
M  V30 14385 H 1313 -7.62826 1.23757 0
M  V30 14386 H 1311.35 -6.86141 1.10612 0
M  V30 14387 H 1314.54 -4.65862 0.457226 0
M  V30 14388 H 1314.71 -6.41943 0.883913 0
M  V30 14389 N 1308.12 0.00332656 -1.576 0
M  V30 14390 C 1309.05 0.994803 -2.11248 0
M  V30 14391 C 1310.03 1.36061 -1.02085 0
M  V30 14392 O 1311.21 1.44494 -1.2975 0
M  V30 14393 C 1308.34 2.28772 -2.61306 0
M  V30 14394 C 1307.3 2.06362 -3.74965 0
M  V30 14395 C 1306.62 3.41638 -4.11324 0
M  V30 14396 C 1307.92 1.4289 -5.02374 0
M  V30 14397 H 1309.62 0.548119 -2.9434 0
M  V30 14398 H 1307.16 0.262208 -1.41593 0
M  V30 14399 H 1309.12 2.98485 -2.97464 0
M  V30 14400 H 1307.84 2.75547 -1.75332 0
M  V30 14401 H 1306.5 1.39076 -3.39195 0
M  V30 14402 H 1306.15 3.8611 -3.22379 0
M  V30 14403 H 1305.85 3.2746 -4.87897 0
M  V30 14404 H 1307.37 4.12671 -4.50039 0
M  V30 14405 H 1308.79 2.02555 -5.36325 0
M  V30 14406 H 1307.18 1.3921 -5.8373 0
M  V30 14407 H 1308.25 0.397708 -4.83266 0
M  V30 14408 N 1309.6 1.55164 0.276031 0
M  V30 14409 C 1310.54 1.88623 1.36104 0
M  V30 14410 C 1311.54 0.762265 1.51281 0
M  V30 14411 O 1312.74 0.946573 1.53101 0
M  V30 14412 H 1309.12 0.59863 0.455133 0
M  V30 14413 H 1311.09 2.79266 1.05134 0
M  V30 14414 C 1309.84 2.17207 2.71508 0
M  V30 14415 H 1309.16 3.03179 2.6062 0
M  V30 14416 H 1310.6 2.44541 3.46375 0
M  V30 14417 C 1309.06 0.978671 3.22372 0
M  V30 14418 O 1309.59 0.211766 4.01141 0
M  V30 14419 N 1307.8 0.777199 2.80014 0
M  V30 14420 H 1307.34 1.40252 2.16072 0
M  V30 14421 H 1307.3 -0.0196754 3.14394 0
M  V30 14422 N 1311.07 -0.540404 1.48045 0
M  V30 14423 C 1311.98 -1.67308 1.64455 0
M  V30 14424 C 1313 -1.65823 0.527152 0
M  V30 14425 O 1314.18 -1.84964 0.796881 0
M  V30 14426 C 1311.24 -3.03792 1.67068 0
M  V30 14427 C 1310.3 -3.16213 2.90358 0
M  V30 14428 C 1309.54 -4.46187 2.92837 0
M  V30 14429 O 1309.76 -5.32662 2.04029 0
M  V30 14430 O 1308.69 -4.62754 3.84892 0
M  V30 14431 H 1312.52 -1.56403 2.6033 0
M  V30 14432 H 1310.1 -0.712323 1.31325 0
M  V30 14433 H 1311.99 -3.84982 1.71368 0
M  V30 14434 H 1310.66 -3.15043 0.74363 0
M  V30 14435 H 1309.57 -2.34357 2.91595 0
M  V30 14436 H 1310.9 -3.09874 3.82412 0
M  V30 14437 N 1312.55 -1.36459 -0.788468 0
M  V30 14438 C 1313.49 -1.25222 -1.90774 0
M  V30 14439 C 1314.46 -0.136188 -1.62029 0
M  V30 14440 O 1315.65 -0.307486 -1.85975 0
M  V30 14441 C 1312.77 -0.932287 -3.25616 0
M  V30 14442 C 1311.82 -2.0629 -3.73292 0
M  V30 14443 S 1312.65 -3.68084 -3.8894 0
M  V30 14444 C 1313.81 -3.38206 -5.26657 0
M  V30 14445 H 1314.04 -2.19959 -2.00013 0
M  V30 14446 H 1311.58 -1.21886 -0.947801 0
M  V30 14447 H 1313.53 -0.754514 -4.03506 0
M  V30 14448 H 1312.19 -0.00268413 -3.141 0
M  V30 14449 H 1311.39 -1.79363 -4.71004 0
M  V30 14450 H 1310.99 -2.19994 -3.02454 0
M  V30 14451 H 1313.28 -2.92158 -6.11269 0
M  V30 14452 H 1314.22 -4.35185 -5.58587 0
M  V30 14453 H 1314.63 -2.73531 -4.93802 0
M  V30 14454 N 1314.03 1.01274 -1.20754 0
M  V30 14455 C 1314.94 2.1335 -0.975656 0
M  V30 14456 C 1315.96 1.7386 0.0697364 0
M  V30 14457 O 1317.13 2.01051 -0.118578 0
M  V30 14458 C 1314.2 3.42548 -0.534931 0
M  V30 14459 C 1313.26 3.96257 -1.65163 0
M  V30 14460 C 1312.49 5.19289 -1.23184 0
M  V30 14461 O 1312.71 5.70309 -0.102158 0
M  V30 14462 O 1311.65 5.66248 -2.04076 0
M  V30 14463 H 1315.47 2.35783 -1.91415 0
M  V30 14464 H 1313.06 1.11736 -0.991743 0
M  V30 14465 H 1314.94 4.20341 -0.298568 0
M  V30 14466 H 1313.62 3.21521 0.374937 0
M  V30 14467 H 1312.52 3.19726 -1.94232 0
M  V30 14468 H 1313.86 4.2168 -2.53864 0
M  V30 14469 N 1315.51 1.01404 1.20644 0
M  V30 14470 C 1316.44 0.540288 2.22741 0
M  V30 14471 C 1317.45 -0.375953 1.584 0
M  V30 14472 O 1318.64 -0.174708 1.77643 0
M  V30 14473 C 1315.74 -0.233766 3.38093 0
M  V30 14474 C 1314.92 0.683759 4.32023 0
M  V30 14475 C 1313.98 -0.0422681 5.26183 0
M  V30 14476 O 1313 0.579392 5.66243 0
M  V30 14477 N 1314.2 -1.31794 5.65341 0
M  V30 14478 H 1316.97 1.41831 2.64015 0
M  V30 14479 H 1314.53 0.891265 1.35159 0
M  V30 14480 H 1316.52 -0.728645 3.98087 0
M  V30 14481 H 1315.09 -1.01306 2.9573 0
M  V30 14482 H 1314.31 1.35899 3.70034 0
M  V30 14483 H 1315.6 1.30786 4.91704 0
M  V30 14484 H 1315 -1.84399 5.34802 0
M  V30 14485 H 1313.55 -1.7576 6.27656 0
M  V30 14486 N 1316.99 -1.36373 0.789944 0
M  V30 14487 C 1317.92 -2.32616 0.202944 0
M  V30 14488 C 1318.9 -1.56674 -0.662364 0
M  V30 14489 O 1320.08 -1.84826 -0.596078 0
M  V30 14490 C 1317.21 -3.4092 -0.662646 0
M  V30 14491 C 1316.17 -4.27877 0.102811 0
M  V30 14492 C 1315.49 -5.27352 -0.883407 0
M  V30 14493 C 1316.79 -5.0606 1.29231 0
M  V30 14494 H 1318.49 -2.81958 1.00699 0
M  V30 14495 H 1316.03 -1.35562 0.48568 0
M  V30 14496 H 1317.99 -4.07239 -1.08324 0
M  V30 14497 H 1316.71 -2.90147 -1.4994 0
M  V30 14498 H 1315.37 -3.63114 0.504389 0
M  V30 14499 H 1315.02 -4.72853 -1.71521 0
M  V30 14500 H 1314.72 -5.86398 -0.375669 0
M  V30 14501 H 1316.24 -5.96545 -1.30256 0
M  V30 14502 H 1317.66 -5.65417 0.947446 0
M  V30 14503 H 1316.05 -5.74521 1.73338 0
M  V30 14504 H 1317.12 -4.37671 2.08739 0
M  V30 14505 N 1318.47 -0.542005 -1.47987 0
M  V30 14506 C 1319.41 0.214151 -2.29804 0
M  V30 14507 C 1320.38 0.922625 -1.38119 0
M  V30 14508 O 1321.57 0.921301 -1.67083 0
M  V30 14509 C 1318.71 1.24768 -3.21756 0
M  V30 14510 C 1317.82 0.546824 -4.28525 0
M  V30 14511 C 1316.96 1.56432 -5.07644 0
M  V30 14512 C 1315.99 0.847598 -6.06203 0
M  V30 14513 N 1315.13 1.81121 -6.78336 0
M  V30 14514 H 1319.97 -0.489707 -2.93949 0
M  V30 14515 H 1317.51 -0.253331 -1.44902 0
M  V30 14516 H 1319.47 1.85933 -3.73477 0
M  V30 14517 H 1318.1 1.91976 -2.59509 0
M  V30 14518 H 1317.15 -0.179026 -3.79978 0
M  V30 14519 H 1318.46 -0.0153623 -4.98798 0
M  V30 14520 H 1317.61 2.24992 -5.63439 0
M  V30 14521 H 1316.35 2.16041 -4.37238 0
M  V30 14522 H 1315.36 0.147989 -5.49601 0
M  V30 14523 H 1316.58 0.257454 -6.78612 0
M  V30 14524 H 1314.53 2.39615 -6.10672 0
M  V30 14525 H 1314.45 1.30077 -7.44725 0
M  V30 14526 H 1315.71 2.48842 -7.38714 0
M  V30 14527 N 1319.94 1.55134 -0.277709 0
M  V30 14528 C 1320.85 2.26296 0.618658 0
M  V30 14529 C 1321.87 1.28978 1.16794 0
M  V30 14530 O 1323.05 1.61918 1.19768 0
M  V30 14531 C 1320.11 2.97214 1.78508 0
M  V30 14532 C 1319.17 4.10016 1.27221 0
M  V30 14533 C 1318.4 4.77543 2.38304 0
M  V30 14534 O 1318.63 4.44293 3.57715 0
M  V30 14535 O 1317.56 5.65437 2.06313 0
M  V30 14536 H 1321.39 3.03671 0.0421031 0
M  V30 14537 H 1318.97 1.49332 -0.0450166 0
M  V30 14538 H 1320.85 3.41773 2.46513 0
M  V30 14539 H 1319.53 2.22753 2.34867 0
M  V30 14540 H 1318.44 3.69907 0.558544 0
M  V30 14541 H 1319.77 4.86385 0.754333 0
M  V30 14542 N 1321.42 0.00503138 1.57599 0
M  V30 14543 C 1322.35 -1.01302 2.05598 0
M  V30 14544 C 1323.37 -1.30388 0.974829 0
M  V30 14545 O 1324.56 -1.27275 1.25153 0
M  V30 14546 C 1321.66 -2.34654 2.44522 0
M  V30 14547 C 1320.83 -2.24436 3.7543 0
M  V30 14548 C 1319.89 -3.40517 4.01166 0
M  V30 14549 O 1318.91 -3.18479 4.71762 0
M  V30 14550 N 1320.12 -4.63532 3.49454 0
M  V30 14551 H 1322.88 -0.603656 2.93558 0
M  V30 14552 H 1320.44 -0.182248 1.60871 0
M  V30 14553 H 1322.43 -3.11093 2.5885 0
M  V30 14554 H 1321 -2.67315 1.62055 0
M  V30 14555 H 1320.22 -1.32875 3.71131 0
M  V30 14556 H 1321.51 -2.14786 4.61242 0
M  V30 14557 H 1320.91 -4.84334 2.92296 0
M  V30 14558 H 1319.47 -5.37221 3.69103 0
M  V30 14559 N 1322.9 -1.55308 -0.267798 0
M  V30 14560 C 1323.83 -1.91555 -1.33525 0
M  V30 14561 C 1324.81 -0.778001 -1.51265 0
M  V30 14562 O 1326 -1.03657 -1.64222 0
M  V30 14563 C 1323.13 -2.19201 -2.69385 0
M  V30 14564 C 1322.08 -3.3501 -2.66369 0
M  V30 14565 C 1321.41 -3.48148 -4.05829 0
M  V30 14566 C 1322.71 -4.71265 -2.25182 0
M  V30 14567 H 1324.4 -2.80965 -1.03437 0
M  V30 14568 H 1321.95 -1.35183 -0.496141 0
M  V30 14569 H 1323.9 -2.43146 -3.44177 0
M  V30 14570 H 1322.62 -1.26596 -3.01067 0
M  V30 14571 H 1321.28 -3.11041 -1.94034 0
M  V30 14572 H 1320.93 -2.53 -4.34741 0
M  V30 14573 H 1320.63 -4.26014 -4.04704 0
M  V30 14574 H 1322.15 -3.74391 -4.82352 0
M  V30 14575 H 1323.57 -4.94719 -2.89699 0
M  V30 14576 H 1321.96 -5.52084 -2.3521 0
M  V30 14577 H 1323.03 -4.69735 -1.20319 0
M  V30 14578 N 1324.38 0.532545 -1.4833 0
M  V30 14579 C 1325.29 1.66433 -1.65339 0
M  V30 14580 C 1326.3 1.65541 -0.535939 0
M  V30 14581 O 1327.48 1.84539 -0.806679 0
M  V30 14582 C 1324.54 3.02901 -1.68676 0
M  V30 14583 C 1323.61 3.14669 -2.92031 0
M  V30 14584 C 1322.84 4.44627 -2.95199 0
M  V30 14585 O 1323.06 5.31572 -2.06851 0
M  V30 14586 O 1322 4.60707 -3.87341 0
M  V30 14587 H 1325.82 1.5502 -2.61156 0
M  V30 14588 H 1323.41 0.705348 -1.31701 0
M  V30 14589 H 1325.29 3.84068 -1.73407 0
M  V30 14590 H 1323.96 3.14644 -0.760327 0
M  V30 14591 H 1322.87 2.32807 -2.92834 0
M  V30 14592 H 1324.2 3.07841 -3.8405 0
M  V30 14593 N 1325.86 1.36875 0.78122 0
M  V30 14594 C 1326.8 1.31941 1.91557 0
M  V30 14595 C 1327.8 0.209783 1.68096 0
M  V30 14596 O 1329 0.377266 1.76002 0
M  V30 14597 H 1325.38 0.410955 0.629778 0
M  V30 14598 H 1327.35 2.27721 1.92836 0
M  V30 14599 C 1326.1 1.13379 3.28695 0
M  V30 14600 H 1325.42 1.98013 3.47319 0
M  V30 14601 H 1326.86 1.13976 4.08394 0
M  V30 14602 C 1325.32 -0.161119 3.36515 0
M  V30 14603 O 1325.85 -1.14806 3.84945 0
M  V30 14604 N 1324.06 -0.208594 2.8985 0
M  V30 14605 H 1323.6 0.595187 2.5063 0
M  V30 14606 H 1323.56 -1.07465 2.95463 0
M  V30 14607 N 1327.33 -1.00632 1.21289 0
M  V30 14608 C 1328.75 -1.26744 0.969956 0
M  V30 14609 C 1328.95 -1.98534 -0.344449 0
M  V30 14610 O 1328.01 -2.28687 -1.07044 0
M  V30 14611 C 1329.32 -2.09238 2.15963 0
M  V30 14612 C 1330.87 -2.22469 2.20174 0
M  V30 14613 C 1331.34 -3.08344 3.38656 0
M  V30 14614 N 1332.83 -3.15932 3.38734 0
M  V30 14615 C 1333.57 -3.82632 4.2706 0
M  V30 14616 N 1333.06 -4.51371 5.25582 0
M  V30 14617 N 1334.86 -3.79259 4.14872 0
M  V30 14618 H 1327.01 -0.524626 2.05819 0
M  V30 14619 H 1329.27 -0.294231 0.901184 0
M  V30 14620 H 1328.98 -1.63835 3.11209 0
M  V30 14621 H 1328.85 -3.09987 2.14914 0
M  V30 14622 H 1331.24 -2.67091 1.25485 0
M  V30 14623 H 1331.32 -1.21194 2.25268 0
M  V30 14624 H 1330.96 -2.64425 4.33638 0
M  V30 14625 H 1330.89 -4.0973 3.30801 0
M  V30 14626 H 1333.38 -2.66998 2.67434 0
M  V30 14627 H 1333.7 -4.99966 5.89283 0
M  V30 14628 H 1332.04 -4.50162 5.29508 0
M  V30 14629 H 1335.23 -3.2471 3.37166 0
M  V30 14630 H 1335.41 -4.30963 4.83916 0
M  V30 14631 N 1328.81 -1.02043 -1.20104 0
M  V30 14632 C 1330.09 -0.626922 -1.85281 0
M  V30 14633 C 1330.47 0.894819 -1.91197 0
M  V30 14634 O 1329.82 1.7881 -1.42265 0
M  V30 14635 C 1330.03 -1.27917 -3.24713 0
M  V30 14636 C 1331.37 -1.39704 -4.00959 0
M  V30 14637 O 1332.4 -1.23568 -3.3408 0
M  V30 14638 O 1331.26 -1.65814 -5.20738 0
M  V30 14639 H 1328.35 -0.216815 -0.798073 0
M  V30 14640 H 1330.9 -1.11804 -1.27663 0
M  V30 14641 H 1329.67 -2.3188 -3.15194 0
M  V30 14642 H 1329.29 -0.775371 -3.89966 0
M  V30 14643 N 1330.29 1.35952 -0.797165 0
M  V30 14644 C 1331.52 2.0381 -0.38421 0
M  V30 14645 C 1331.94 1.597 0.993854 0
M  V30 14646 O 1331.3 0.769148 1.64176 0
M  V30 14647 C 1331.35 3.57589 -0.465054 0
M  V30 14648 O 1330.45 4.09043 0.525095 0
M  V30 14649 H 1329.79 0.643957 -0.161912 0
M  V30 14650 H 1332.32 1.73746 -1.08043 0
M  V30 14651 H 1332.33 4.06651 -0.331448 0
M  V30 14652 H 1331.01 3.89045 -1.47027 0
M  V30 14653 H 1329.58 3.7123 0.352509 0
M  V30 14654 N 1331.77 0.549846 1.47697 0
M  V30 14655 C 1333 0.0276889 2.06881 0
M  V30 14656 C 1333.41 -1.26273 1.40359 0
M  V30 14657 O 1332.77 -1.75584 0.497644 0
M  V30 14658 C 1332.82 -0.179291 3.61055 0
M  V30 14659 O 1332.54 1.06002 4.25083 0
M  V30 14660 C 1334.04 -0.739571 4.37087 0
M  V30 14661 H 1331.26 0.0425016 0.669653 0
M  V30 14662 H 1333.81 0.761158 1.89807 0
M  V30 14663 H 1331.96 -0.862867 3.77668 0
M  V30 14664 H 1332.37 0.853137 5.17515 0
M  V30 14665 H 1333.85 -0.833722 5.45668 0
M  V30 14666 H 1334.33 -1.74915 4.02867 0
M  V30 14667 H 1334.93 -0.0919294 4.25201 0
M  V30 14668 N 1333.25 -1.54984 0.285932 0
M  V30 14669 C 1334.18 -2.25916 -0.590259 0
M  V30 14670 C 1335.16 -1.25319 -1.15018 0
M  V30 14671 O 1336.34 -1.54062 -1.18231 0
M  V30 14672 C 1333.47 -2.98849 -1.76936 0
M  V30 14673 C 1332.43 -4.06466 -1.3405 0
M  V30 14674 C 1331.75 -4.67032 -2.60356 0
M  V30 14675 C 1333.05 -5.20064 -0.482754 0
M  V30 14676 H 1334.75 -2.994 0.00131571 0
M  V30 14677 H 1332.29 -1.44 0.00207281 0
M  V30 14678 H 1334.25 -3.47186 -2.3883 0
M  V30 14679 H 1332.97 -2.22918 -2.38694 0
M  V30 14680 H 1331.63 -3.58957 -0.7447 0
M  V30 14681 H 1331.28 -3.87757 -3.20396 0
M  V30 14682 H 1330.98 -5.39703 -2.32368 0
M  V30 14683 H 1332.5 -5.18124 -3.23079 0
M  V30 14684 H 1333.91 -5.64387 -1.00697 0
M  V30 14685 H 1332.31 -5.99363 -0.297291 0
M  V30 14686 H 1333.38 -4.82358 0.495861 0
M  V30 14687 N 1334.72 -0.0133892 -1.57594 0
M  V30 14688 C 1335.66 1.00211 -2.06132 0
M  V30 14689 C 1336.67 1.29869 -0.98173 0
M  V30 14690 O 1337.86 1.2661 -1.25826 0
M  V30 14691 C 1334.96 2.33354 -2.45763 0
M  V30 14692 C 1334.13 2.22441 -3.76615 0
M  V30 14693 C 1333.19 3.38385 -4.02967 0
M  V30 14694 O 1332.22 3.15973 -4.73445 0
M  V30 14695 N 1333.42 4.61672 -3.51908 0
M  V30 14696 H 1336.18 0.588079 -2.93874 0
M  V30 14697 H 1333.74 0.173714 -1.60965 0
M  V30 14698 H 1335.74 3.09716 -2.60496 0
M  V30 14699 H 1334.31 2.66451 -1.6347 0
M  V30 14700 H 1333.53 1.30905 -3.7183 0
M  V30 14701 H 1334.81 2.12337 -4.62375 0
M  V30 14702 H 1334.21 4.82777 -2.9486 0
M  V30 14703 H 1332.77 5.35256 -3.71947 0
M  V30 14704 N 1336.2 1.55448 0.259558 0
M  V30 14705 C 1337.43 1.80727 1.00723 0
M  V30 14706 C 1337.85 0.587354 1.79431 0
M  V30 14707 O 1337.2 -0.443819 1.77021 0
M  V30 14708 C 1337.25 3.04064 1.95517 0
M  V30 14709 O 1336.97 4.21346 1.19996 0
M  V30 14710 C 1338.48 3.42049 2.81988 0
M  V30 14711 H 1335.7 0.601713 0.296956 0
M  V30 14712 H 1338.24 2.02486 0.286273 0
M  V30 14713 H 1336.39 2.84392 2.63058 0
M  V30 14714 H 1336.81 4.91164 1.84006 0
M  V30 14715 H 1338.28 4.31485 3.44274 0
M  V30 14716 H 1338.76 2.62059 3.52451 0
M  V30 14717 H 1339.37 3.64027 2.19918 0
M  V30 14718 N 1337.68 -0.524672 1.4861 0
M  V30 14719 C 1338.93 -1.28211 1.5713 0
M  V30 14720 C 1339.26 -1.92626 0.246751 0
M  V30 14721 O 1338.53 -1.79553 -0.747725 0
M  V30 14722 C 1338.82 -2.36737 2.71344 0
M  V30 14723 C 1338.67 -1.76978 4.1352 0
M  V30 14724 C 1339.99 -3.3847 2.81294 0
M  V30 14725 H 1337.11 -0.46479 0.571961 0
M  V30 14726 H 1339.75 -0.583937 1.80804 0
M  V30 14727 H 1337.9 -2.96287 2.51289 0
M  V30 14728 H 1339.57 -1.21438 4.45029 0
M  V30 14729 H 1337.82 -1.07488 4.20272 0
M  V30 14730 H 1338.49 -2.55583 4.89266 0
M  V30 14731 H 1340.96 -2.88882 2.99477 0
M  V30 14732 H 1339.84 -4.11795 3.62928 0
M  V30 14733 H 1340.1 -3.99347 1.89669 0
M  V30 14734 N 1339.16 -1.37287 -0.77395 0
M  V30 14735 C 1340.07 -1.35059 -1.91823 0
M  V30 14736 C 1341.08 -0.250489 -1.72188 0
M  V30 14737 O 1342.26 -0.485501 -1.95461 0
M  V30 14738 C 1339.33 -1.15444 -3.26915 0
M  V30 14739 C 1338.39 -2.35073 -3.5922 0
M  V30 14740 C 1337.62 -2.16384 -4.87867 0
M  V30 14741 O 1337.84 -1.14696 -5.58749 0
M  V30 14742 O 1336.78 -3.0452 -5.19183 0
M  V30 14743 H 1340.6 -2.31432 -1.96654 0
M  V30 14744 H 1338.19 -1.17994 -0.916392 0
M  V30 14745 H 1340.07 -1.06484 -4.07724 0
M  V30 14746 H 1338.74 -0.221435 -3.22942 0
M  V30 14747 H 1337.65 -2.49604 -2.78655 0
M  V30 14748 H 1338.98 -3.26933 -3.67934 0
M  V30 14749 N 1340.64 0.999871 -1.21821 0
M  V30 14750 C 1342.05 1.26228 -0.976664 0
M  V30 14751 C 1342.25 1.98714 0.333915 0
M  V30 14752 O 1341.31 2.29252 1.05829 0
M  V30 14753 C 1342.62 2.08089 -2.1707 0
M  V30 14754 C 1344.17 2.21298 -2.21351 0
M  V30 14755 C 1344.64 3.06544 -3.40287 0
M  V30 14756 N 1346.14 3.14131 -3.40405 0
M  V30 14757 C 1346.87 3.80362 -4.29083 0
M  V30 14758 N 1346.37 4.48577 -5.27968 0
M  V30 14759 N 1348.16 3.77053 -4.16878 0
M  V30 14760 H 1340.31 0.513704 -2.06094 0
M  V30 14761 H 1342.57 0.289447 -0.902732 0
M  V30 14762 H 1342.28 1.62183 -3.12073 0
M  V30 14763 H 1342.15 3.08843 -2.16554 0
M  V30 14764 H 1344.54 2.66422 -1.269 0
M  V30 14765 H 1344.62 1.19997 -2.25908 0
M  V30 14766 H 1344.27 2.62122 -4.35034 0
M  V30 14767 H 1344.2 4.0797 -3.32969 0
M  V30 14768 H 1346.69 2.65576 -2.68846 0
M  V30 14769 H 1347 4.96833 -5.91926 0
M  V30 14770 H 1345.34 4.47348 -5.31888 0
M  V30 14771 H 1348.54 3.22918 -3.38883 0
M  V30 14772 H 1348.71 4.2839 -4.86195 0
M  V30 14773 N 1342.11 1.02678 1.19562 0
M  V30 14774 C 1343.02 0.615738 2.26375 0
M  V30 14775 C 1344.04 -0.351525 1.70412 0
M  V30 14776 O 1345.22 -0.209932 2.00303 0
M  V30 14777 C 1342.28 -0.0292135 3.46688 0
M  V30 14778 C 1341.34 0.985284 4.1784 0
M  V30 14779 C 1340.58 0.371016 5.32409 0
M  V30 14780 O 1340.8 -0.826591 5.64379 0
M  V30 14781 O 1339.73 1.09282 5.91896 0
M  V30 14782 H 1343.56 1.50526 2.63772 0
M  V30 14783 H 1341.14 0.796847 1.26375 0
M  V30 14784 H 1343.03 -0.38893 4.19601 0
M  V30 14785 H 1341.7 -0.892778 3.11145 0
M  V30 14786 H 1340.61 1.39655 3.47055 0
M  V30 14787 H 1341.94 1.81915 4.57349 0
M  V30 14788 N 1343.59 -1.35528 0.804364 0
M  V30 14789 C 1344.54 -2.29832 0.211186 0
M  V30 14790 C 1345.51 -1.52704 -0.653503 0
M  V30 14791 O 1346.69 -1.81152 -0.599052 0
M  V30 14792 C 1343.83 -3.39188 -0.636054 0
M  V30 14793 C 1342.95 -4.31283 0.248824 0
M  V30 14794 C 1342.08 -5.2773 -0.60621 0
M  V30 14795 C 1341.12 -6.11463 0.279205 0
M  V30 14796 N 1340.26 -7.00054 -0.535672 0
M  V30 14797 H 1345.1 -2.79971 1.0208 0
M  V30 14798 H 1342.64 -1.37793 0.514931 0
M  V30 14799 H 1344.59 -4.01254 -1.14241 0
M  V30 14800 H 1343.22 -2.90331 -1.41095 0
M  V30 14801 H 1342.28 -3.70241 0.873263 0
M  V30 14802 H 1343.59 -4.90046 0.930417 0
M  V30 14803 H 1342.74 -5.95158 -1.17778 0
M  V30 14804 H 1341.48 -4.69458 -1.32138 0
M  V30 14805 H 1340.49 -5.42984 0.863066 0
M  V30 14806 H 1341.71 -6.71813 0.9922 0
M  V30 14807 H 1339.66 -6.44273 -1.23486 0
M  V30 14808 H 1339.57 -7.55949 0.0879213 0
M  V30 14809 H 1340.84 -7.71833 -1.09059 0
M  V30 14810 N 1345.07 -0.557671 -1.47404 0
M  V30 14811 C 1346.3 -0.0386599 -2.06864 0
M  V30 14812 C 1346.71 1.25527 -1.41027 0
M  V30 14813 O 1346.07 1.75318 -0.506949 0
M  V30 14814 C 1346.12 0.160141 -3.61145 0
M  V30 14815 O 1345.84 -1.08255 -4.24515 0
M  V30 14816 C 1347.34 0.716381 -4.37473 0
M  V30 14817 H 1344.56 -0.0460523 -0.669418 0
M  V30 14818 H 1347.11 -0.771214 -1.894 0
M  V30 14819 H 1345.26 0.842826 -3.78121 0
M  V30 14820 H 1345.68 -0.88057 -5.17055 0
M  V30 14821 H 1347.15 0.804773 -5.46102 0
M  V30 14822 H 1347.63 1.72776 -4.03788 0
M  V30 14823 H 1348.23 0.0693787 -4.25243 0
M  V30 14824 N 1346.55 1.54831 -0.294147 0
M  V30 14825 C 1347.48 2.26226 0.57827 0
M  V30 14826 C 1348.46 1.25928 1.14351 0
M  V30 14827 O 1349.65 1.54687 1.17412 0
M  V30 14828 C 1346.78 2.99783 1.75349 0
M  V30 14829 C 1345.73 4.07171 1.31892 0
M  V30 14830 C 1345.06 4.68406 2.57876 0
M  V30 14831 C 1346.36 5.20313 0.455167 0
M  V30 14832 H 1348.05 2.99395 -0.0171936 0
M  V30 14833 H 1345.6 1.43997 -0.00970944 0
M  V30 14834 H 1347.55 3.48448 2.36986 0
M  V30 14835 H 1346.27 2.24181 2.37509 0
M  V30 14836 H 1344.93 3.59346 0.725653 0
M  V30 14837 H 1344.58 3.89451 3.18335 0
M  V30 14838 H 1344.28 5.40927 2.29502 0
M  V30 14839 H 1345.8 5.1983 3.20327 0
M  V30 14840 H 1347.22 5.64913 0.977026 0
M  V30 14841 H 1345.61 5.99512 0.265501 0
M  V30 14842 H 1346.68 4.82088 -0.521434 0
M  V30 14843 N 1348.03 0.0217466 1.57585 0
M  V30 14844 C 1349.28 -0.657793 1.90672 0
M  V30 14845 C 1349.59 -1.73713 0.899066 0
M  V30 14846 O 1350.8 -2.4728 1.12092 0
M  V30 14847 C 1349.25 -1.22124 3.38547 0
M  V30 14848 C 1348.86 -0.175575 4.47656 0
M  V30 14849 C 1350.6 -1.87771 3.80713 0
M  V30 14850 C 1348.51 -0.750239 5.86622 0
M  V30 14851 H 1347.44 -0.249459 0.711538 0
M  V30 14852 H 1350.09 0.0858449 1.83299 0
M  V30 14853 H 1348.47 -2.01625 3.40828 0
M  V30 14854 H 1349.65 0.596436 4.56924 0
M  V30 14855 H 1347.96 0.381715 4.14647 0
M  V30 14856 H 1350.56 -2.3171 4.81887 0
M  V30 14857 H 1350.9 -2.71737 3.1538 0
M  V30 14858 H 1351.44 -1.14971 3.80823 0
M  V30 14859 H 1348.17 0.0511222 6.5548 0
M  V30 14860 H 1347.69 -1.49091 5.80975 0
M  V30 14861 H 1349.37 -1.24225 6.34962 0
M  V30 14862 N 1349.51 -1.55583 -0.251311 0
M  V30 14863 C 1350.73 -1.81259 -0.997636 0
M  V30 14864 C 1351.15 -0.596861 -1.79117 0
M  V30 14865 O 1350.51 0.434425 -1.77254 0
M  V30 14866 C 1350.56 -3.05097 -1.93902 0
M  V30 14867 O 1350.28 -4.21976 -1.1776 0
M  V30 14868 C 1351.78 -3.4354 -2.8017 0
M  V30 14869 H 1349 -0.603279 -0.29376 0
M  V30 14870 H 1351.54 -2.02635 -0.27553 0
M  V30 14871 H 1349.7 -2.85784 -2.61546 0
M  V30 14872 H 1350.11 -4.92133 -1.81398 0
M  V30 14873 H 1351.59 -4.33305 -3.41981 0
M  V30 14874 H 1352.06 -2.63924 -3.51057 0
M  V30 14875 H 1352.67 -3.65189 -2.17985 0
M  V30 14876 N 1350.98 0.516783 -1.48886 0
M  V30 14877 C 1351.89 1.6467 -1.67095 0
M  V30 14878 C 1352.91 1.64963 -0.553466 0
M  V30 14879 O 1354.09 1.83673 -0.826206 0
M  V30 14880 C 1351.15 3.01095 -1.71879 0
M  V30 14881 C 1350.21 3.11554 -2.95352 0
M  V30 14882 C 1349.44 4.41471 -2.99898 0
M  V30 14883 O 1349.67 5.29348 -2.12477 0
M  V30 14884 O 1348.6 4.56573 -3.92205 0
M  V30 14885 H 1352.43 1.52242 -2.62785 0
M  V30 14886 H 1350.01 0.69134 -1.32442 0
M  V30 14887 H 1351.89 3.82207 -1.77471 0
M  V30 14888 H 1350.57 3.1382 -0.793656 0
M  V30 14889 H 1349.48 2.29689 -2.95286 0
M  V30 14890 H 1350.81 3.03751 -3.87294 0
M  V30 14891 N 1352.46 1.37696 0.766659 0
M  V30 14892 C 1353.41 1.33871 1.88009 0
M  V30 14893 C 1354.38 0.2034 1.6485 0
M  V30 14894 O 1355.56 0.393569 1.86697 0
M  V30 14895 C 1352.7 1.1566 3.25141 0
M  V30 14896 C 1351.82 2.38465 3.6022 0
M  V30 14897 C 1350.95 2.13087 4.86587 0
M  V30 14898 C 1349.99 3.31732 5.14413 0
M  V30 14899 N 1349.13 3.05872 6.3197 0
M  V30 14900 H 1353.97 2.29065 1.90613 0
M  V30 14901 H 1351.5 1.13821 0.931837 0
M  V30 14902 H 1353.46 1.03122 4.04255 0
M  V30 14903 H 1352.09 0.241115 3.21898 0
M  V30 14904 H 1351.14 2.61725 2.76051 0
M  V30 14905 H 1352.46 3.26933 3.76718 0
M  V30 14906 H 1351.61 1.97609 5.73616 0
M  V30 14907 H 1350.35 1.21965 4.72203 0
M  V30 14908 H 1349.35 3.47743 4.25858 0
M  V30 14909 H 1350.58 4.23712 5.30702 0
M  V30 14910 H 1348.53 2.17384 6.18935 0
M  V30 14911 H 1348.44 3.87885 6.48908 0
M  V30 14912 H 1349.71 2.94023 7.21922 0
M  V30 14913 N 1353.94 -0.993397 1.22349 0
M  V30 14914 C 1354.87 -2.10171 1.01737 0
M  V30 14915 C 1355.85 -1.69989 -0.0615276 0
M  V30 14916 O 1357.04 -1.93939 0.100591 0
M  V30 14917 C 1354.17 -3.42186 0.593801 0
M  V30 14918 C 1353.12 -3.96215 1.61858 0
M  V30 14919 C 1352.45 -5.24272 1.05086 0
M  V30 14920 C 1353.75 -4.26956 3.00842 0
M  V30 14921 H 1355.44 -2.27673 1.94436 0
M  V30 14922 H 1352.99 -1.09408 0.936258 0
M  V30 14923 H 1354.94 -4.19131 0.436715 0
M  V30 14924 H 1353.66 -3.2451 -0.368855 0
M  V30 14925 H 1352.32 -3.21401 1.76343 0
M  V30 14926 H 1351.97 -5.02937 0.0795747 0
M  V30 14927 H 1351.67 -5.61387 1.73547 0
M  V30 14928 H 1353.19 -6.03851 0.905349 0
M  V30 14929 H 1354.61 -4.94699 2.89734 0
M  V30 14930 H 1353 -4.75242 3.66422 0
M  V30 14931 H 1354.07 -3.34752 3.50812 0
M  V30 14932 N 1355.42 -1.03311 -1.19015 0
M  V30 14933 C 1356.35 -0.575655 -2.21853 0
M  V30 14934 C 1357.36 0.350705 -1.58978 0
M  V30 14935 O 1358.55 0.146425 -1.77898 0
M  V30 14936 C 1355.65 0.179949 -3.38422 0
M  V30 14937 C 1354.82 -0.752403 -4.3088 0
M  V30 14938 C 1353.88 -0.0414484 -5.26184 0
M  V30 14939 O 1352.91 -0.669403 -5.6525 0
M  V30 14940 N 1354.11 1.22783 -5.67366 0
M  V30 14941 H 1356.88 -1.46013 -2.61726 0
M  V30 14942 H 1354.44 -0.912655 -1.33724 0
M  V30 14943 H 1356.43 0.66522 -3.99195 0
M  V30 14944 H 1355 0.965879 -2.97304 0
M  V30 14945 H 1354.22 -1.41768 -3.67825 0
M  V30 14946 H 1355.51 -1.38592 -4.89561 0
M  V30 14947 H 1354.91 1.75867 -5.37668 0
M  V30 14948 H 1353.46 1.65752 -6.30372 0
M  V30 14949 N 1356.9 1.35099 -0.81154 0
M  V30 14950 C 1357.83 2.28468 -0.183012 0
M  V30 14951 C 1358.84 1.50509 0.620553 0
M  V30 14952 O 1360.03 1.7268 0.4521 0
M  V30 14953 C 1357.13 3.30201 0.762933 0
M  V30 14954 C 1356.3 4.374 0.00466561 0
M  V30 14955 C 1355.36 5.18961 0.869832 0
M  V30 14956 O 1354.39 5.68306 0.318964 0
M  V30 14957 N 1355.59 5.37555 2.19123 0
M  V30 14958 H 1358.35 2.83046 -0.985132 0
M  V30 14959 H 1355.92 1.47502 -0.667449 0
M  V30 14960 H 1357.91 3.81659 1.34606 0
M  V30 14961 H 1356.48 2.76101 1.46584 0
M  V30 14962 H 1355.7 3.8681 -0.759702 0
M  V30 14963 H 1356.99 5.06159 -0.517739 0
M  V30 14964 H 1356.38 4.99118 2.66266 0
M  V30 14965 H 1354.94 5.92174 2.72348 0
M  V30 14966 N 1358.37 0.56548 1.47106 0
M  V30 14967 C 1359.6 0.0496298 2.0684 0
M  V30 14968 C 1360.02 -1.24777 1.4169 0
M  V30 14969 O 1359.37 -1.75046 0.516239 0
M  V30 14970 C 1359.42 -0.140987 3.61225 0
M  V30 14971 O 1359.15 1.10504 4.23934 0
M  V30 14972 C 1360.65 -0.693171 4.37847 0
M  V30 14973 H 1357.87 0.0496018 0.669164 0
M  V30 14974 H 1360.41 0.781247 1.88989 0
M  V30 14975 H 1358.57 -0.822762 3.78562 0
M  V30 14976 H 1358.98 0.907978 5.16581 0
M  V30 14977 H 1360.45 -0.7758 5.46521 0
M  V30 14978 H 1360.93 -1.70632 4.04699 0
M  V30 14979 H 1361.54 -0.046826 4.25274 0
M  V30 14980 N 1359.85 -1.54672 0.302354 0
M  V30 14981 C 1360.78 -2.2653 -0.566265 0
M  V30 14982 C 1361.76 -1.26532 -1.13682 0
M  V30 14983 O 1362.95 -1.55307 -1.1659 0
M  V30 14984 C 1360.08 -3.00709 -1.73757 0
M  V30 14985 C 1359.03 -4.07865 -1.29731 0
M  V30 14986 C 1358.36 -4.69767 -2.55388 0
M  V30 14987 C 1359.66 -5.20547 -0.427567 0
M  V30 14988 H 1361.35 -2.99382 0.033071 0
M  V30 14989 H 1358.9 -1.4399 0.0173458 0
M  V30 14990 H 1360.85 -3.497 -2.35134 0
M  V30 14991 H 1359.58 -2.25437 -2.36317 0
M  V30 14992 H 1358.23 -3.59726 -0.706586 0
M  V30 14993 H 1357.88 -3.91134 -3.16265 0
M  V30 14994 H 1357.58 -5.42137 -2.26631 0
M  V30 14995 H 1359.11 -5.21521 -3.17566 0
M  V30 14996 H 1360.52 -5.65424 -0.947053 0
M  V30 14997 H 1358.92 -5.99645 -0.233704 0
M  V30 14998 H 1359.99 -4.81805 0.546993 0
M  V30 14999 N 1361.33 -0.0301034 -1.57571 0
M  V30 15000 C 1362.24 0.967086 -2.1374 0
M  V30 15001 C 1363.26 1.35636 -1.0899 0
M  V30 15002 O 1364.43 1.43758 -1.41052 0
M  V30 15003 C 1361.5 2.23058 -2.65417 0
M  V30 15004 C 1360.56 1.90163 -3.84885 0
M  V30 15005 C 1359.79 3.10488 -4.34088 0
M  V30 15006 O 1360.01 4.23179 -3.8246 0
M  V30 15007 O 1358.95 2.92729 -5.25921 0
M  V30 15008 H 1362.77 0.519486 -2.99224 0
M  V30 15009 H 1360.36 0.190559 -1.4818 0
M  V30 15010 H 1362.24 2.97229 -2.98719 0
M  V30 15011 H 1360.92 2.66997 -1.83015 0
M  V30 15012 H 1359.82 1.13373 -3.56507 0
M  V30 15013 H 1361.16 1.51039 -4.68453 0
M  V30 15014 N 1362.81 1.55714 0.243056 0
M  V30 15015 C 1363.72 1.93777 1.32241 0
M  V30 15016 C 1364.73 0.838709 1.52452 0
M  V30 15017 O 1365.91 1.14044 1.66 0
M  V30 15018 C 1362.98 2.22808 2.65627 0
M  V30 15019 C 1362.04 3.46166 2.53904 0
M  V30 15020 C 1361.27 3.73802 3.8093 0
M  V30 15021 O 1361.49 3.0345 4.82985 0
M  V30 15022 O 1360.43 4.67323 3.79332 0
M  V30 15023 H 1364.25 2.85718 1.02951 0
M  V30 15024 H 1361.84 1.42646 0.444135 0
M  V30 15025 H 1363.72 2.4277 3.44442 0
M  V30 15026 H 1362.39 1.34045 2.94642 0
M  V30 15027 H 1361.3 3.31506 1.73362 0
M  V30 15028 H 1362.63 4.35244 2.29834 0
M  V30 15029 N 1364.29 -0.50888 1.49158 0
M  V30 15030 C 1365.53 -1.26537 1.58481 0
M  V30 15031 C 1365.87 -1.92353 0.267168 0
M  V30 15032 O 1365.14 -1.80336 -0.728639 0
M  V30 15033 C 1365.42 -2.33846 2.73839 0
M  V30 15034 C 1365.28 -1.72582 4.15374 0
M  V30 15035 C 1366.6 -3.35467 2.84868 0
M  V30 15036 H 1363.71 -0.458697 0.576859 0
M  V30 15037 H 1366.36 -0.564728 1.81413 0
M  V30 15038 H 1364.51 -2.93605 2.54417 0
M  V30 15039 H 1366.18 -1.16711 4.46292 0
M  V30 15040 H 1364.42 -1.03025 4.21389 0
M  V30 15041 H 1365.09 -2.5038 4.91949 0
M  V30 15042 H 1367.57 -2.85689 3.02524 0
M  V30 15043 H 1366.44 -4.07922 3.67275 0
M  V30 15044 H 1366.71 -3.97313 1.93894 0
M  V30 15045 N 1365.76 -1.381 -0.759346 0
M  V30 15046 C 1366.71 -1.34866 -1.87296 0
M  V30 15047 C 1367.68 -0.212139 -1.6474 0
M  V30 15048 O 1368.87 -0.403464 -1.86485 0
M  V30 15049 C 1366.01 -1.17383 -3.24523 0
M  V30 15050 C 1365.12 -2.40372 -3.5895 0
M  V30 15051 C 1364.25 -2.15665 -4.8545 0
M  V30 15052 C 1363.29 -3.34455 -5.12646 0
M  V30 15053 N 1362.43 -3.0922 -6.30339 0
M  V30 15054 H 1367.27 -2.30072 -1.89396 0
M  V30 15055 H 1364.81 -1.14314 -0.925788 0
M  V30 15056 H 1366.77 -1.05264 -4.03702 0
M  V30 15057 H 1365.4 -0.258182 -3.21766 0
M  V30 15058 H 1364.45 -2.63185 -2.74659 0
M  V30 15059 H 1365.76 -3.28926 -3.74978 0
M  V30 15060 H 1364.91 -2.00649 -5.7256 0
M  V30 15061 H 1363.65 -1.24467 -4.7155 0
M  V30 15062 H 1362.66 -3.49997 -4.24007 0
M  V30 15063 H 1363.88 -4.26521 -5.28448 0
M  V30 15064 H 1361.83 -2.20664 -6.17773 0
M  V30 15065 H 1361.75 -3.91321 -6.46841 0
M  V30 15066 H 1363.01 -2.97847 -7.20352 0
M  V30 15067 N 1367.24 0.986894 -1.22875 0
M  V30 15068 C 1368.47 1.76266 -1.08342 0
M  V30 15069 C 1368.89 1.85226 0.365602 0
M  V30 15070 O 1368.24 1.32675 1.25314 0
M  V30 15071 C 1368.29 3.19282 -1.69533 0
M  V30 15072 O 1368.01 3.10796 -3.08768 0
M  V30 15073 C 1369.52 4.13281 -1.60355 0
M  V30 15074 H 1366.74 0.553374 -0.379497 0
M  V30 15075 H 1369.28 1.24033 -1.62592 0
M  V30 15076 H 1367.43 3.68563 -1.19332 0
M  V30 15077 H 1367.85 4.0078 -3.38343 0
M  V30 15078 H 1369.32 5.11359 -2.07884 0
M  V30 15079 H 1369.8 4.356 -0.561182 0
M  V30 15080 H 1370.41 3.699 -2.09891 0
M  V30 15081 N 1368.72 1.0394 1.18466 0
M  V30 15082 C 1369.65 0.650182 2.24265 0
M  V30 15083 C 1370.63 -0.345968 1.66545 0
M  V30 15084 O 1371.82 -0.226348 1.92876 0
M  V30 15085 C 1368.95 0.0110451 3.47298 0
M  V30 15086 C 1367.9 0.930599 4.17761 0
M  V30 15087 C 1367.23 0.156005 5.34472 0
M  V30 15088 C 1368.53 2.24913 4.71393 0
M  V30 15089 H 1370.22 1.53465 2.57078 0
M  V30 15090 H 1367.77 0.739343 1.23571 0
M  V30 15091 H 1369.72 -0.272959 4.20515 0
M  V30 15092 H 1368.44 -0.908288 3.13716 0
M  V30 15093 H 1367.1 1.19897 3.4644 0
M  V30 15094 H 1366.75 -0.765695 4.97138 0
M  V30 15095 H 1366.45 0.768606 5.82551 0
M  V30 15096 H 1367.97 -0.121011 6.1048 0
M  V30 15097 H 1369.39 2.02592 5.36311 0
M  V30 15098 H 1367.79 2.81459 5.30001 0
M  V30 15099 H 1368.86 2.8965 3.88884 0
M  V30 15100 N 1370.2 -1.34667 0.818693 0
M  V30 15101 C 1371.43 -2.02642 0.417608 0
M  V30 15102 C 1371.84 -1.61667 -0.97516 0
M  V30 15103 O 1371.2 -0.820056 -1.63038 0
M  V30 15104 C 1371.25 -3.57951 0.505295 0
M  V30 15105 O 1370.97 -3.97441 1.84317 0
M  V30 15106 C 1372.47 -4.4319 0.0985667 0
M  V30 15107 H 1369.69 -0.6496 0.168111 0
M  V30 15108 H 1372.24 -1.72032 1.10568 0
M  V30 15109 H 1370.39 -3.87166 -0.134646 0
M  V30 15110 H 1370.8 -4.92116 1.81444 0
M  V30 15111 H 1372.28 -5.51597 0.211015 0
M  V30 15112 H 1372.76 -4.28637 -0.95745 0
M  V30 15113 H 1373.36 -4.19295 0.71214 0
M  V30 15114 N 1371.68 -0.573274 -1.46804 0
M  V30 15115 C 1372.61 0.20305 -2.28299 0
M  V30 15116 C 1373.62 0.864367 -1.37958 0
M  V30 15117 O 1374.81 0.735516 -1.62642 0
M  V30 15118 C 1371.91 1.30633 -3.12711 0
M  V30 15119 C 1371.08 0.738741 -4.31116 0
M  V30 15120 C 1370.14 1.72853 -4.96999 0
M  V30 15121 O 1369.17 1.2683 -5.5489 0
M  V30 15122 N 1370.37 3.06239 -4.93151 0
M  V30 15123 H 1373.14 -0.496086 -2.95566 0
M  V30 15124 H 1370.7 -0.410411 -1.56612 0
M  V30 15125 H 1372.69 1.96755 -3.53652 0
M  V30 15126 H 1371.26 1.90846 -2.47581 0
M  V30 15127 H 1370.48 -0.0996941 -3.94074 0
M  V30 15128 H 1371.77 0.339154 -5.07668 0
M  V30 15129 H 1371.16 3.46262 -4.47347 0
M  V30 15130 H 1369.72 3.67876 -5.38062 0
M  V30 15131 N 1373.15 1.5451 -0.310553 0
M  V30 15132 C 1374.06 2.27557 0.570518 0
M  V30 15133 C 1375.08 1.31426 1.14032 0
M  V30 15134 O 1376.26 1.64423 1.16306 0
M  V30 15135 C 1373.32 3.00933 1.72163 0
M  V30 15136 C 1372.38 4.12623 1.18495 0
M  V30 15137 C 1371.62 4.8249 2.28121 0
M  V30 15138 O 1371.84 4.5178 3.48211 0
M  V30 15139 O 1370.77 5.69686 1.94273 0
M  V30 15140 H 1374.6 3.03692 -0.0223195 0
M  V30 15141 H 1372.18 1.49203 -0.0766821 0
M  V30 15142 H 1374.07 3.46925 2.39208 0
M  V30 15143 H 1372.74 2.27685 2.3009 0
M  V30 15144 H 1371.65 3.71008 0.479956 0
M  V30 15145 H 1372.98 4.87876 0.650994 0
M  V30 15146 N 1374.63 0.0384594 1.57553 0
M  V30 15147 C 1375.58 -0.940256 2.10779 0
M  V30 15148 C 1376.55 -1.31705 1.01208 0
M  V30 15149 O 1377.74 -1.40874 1.28683 0
M  V30 15150 C 1374.88 -2.21419 2.64703 0
M  V30 15151 C 1373.99 -1.89302 3.88315 0
M  V30 15152 C 1373.12 -3.1106 4.30599 0
M  V30 15153 C 1372.16 -2.74805 5.46945 0
M  V30 15154 N 1371.3 -3.89217 5.84341 0
M  V30 15155 H 1376.14 -0.479458 2.94118 0
M  V30 15156 H 1373.68 -0.22505 1.45368 0
M  V30 15157 H 1375.63 -2.95946 2.94061 0
M  V30 15158 H 1374.26 -2.65099 1.84181 0
M  V30 15159 H 1373.32 -1.04977 3.65628 0
M  V30 15160 H 1374.63 -1.58607 4.72912 0
M  V30 15161 H 1373.78 -3.93898 4.61442 0
M  V30 15162 H 1372.52 -3.44924 3.44788 0
M  V30 15163 H 1371.53 -1.9038 5.15786 0
M  V30 15164 H 1372.75 -2.42147 6.34462 0
M  V30 15165 H 1370.7 -4.22905 5.01485 0
M  V30 15166 H 1370.61 -3.62177 6.63599 0
M  V30 15167 H 1371.88 -4.72732 6.19794 0
M  V30 15168 N 1376.11 -1.55841 -0.234795 0
M  V30 15169 C 1377.39 -1.69008 -0.984665 0
M  V30 15170 C 1377.77 -0.581882 -2.02922 0
M  V30 15171 O 1377.12 0.412998 -2.24737 0
M  V30 15172 C 1377.33 -3.09796 -1.60708 0
M  V30 15173 C 1378.67 -3.68784 -2.10436 0
M  V30 15174 O 1379.7 -3.12674 -1.70627 0
M  V30 15175 O 1378.56 -4.67175 -2.83567 0
M  V30 15176 H 1375.65 -0.68786 -0.459105 0
M  V30 15177 H 1378.2 -1.68166 -0.227623 0
M  V30 15178 H 1376.97 -3.81908 -0.852169 0
M  V30 15179 H 1376.59 -3.147 -2.43001 0
M  V30 15180 N 1377.59 0.500963 -1.49426 0
M  V30 15181 C 1378.87 1.26231 -1.49416 0
M  V30 15182 C 1379.25 2.0993 -0.221908 0
M  V30 15183 O 1378.59 2.14198 0.795712 0
M  V30 15184 C 1378.8 2.11899 -2.77308 0
M  V30 15185 C 1380.15 2.71086 -3.26799 0
M  V30 15186 O 1381.18 2.22166 -2.78425 0
M  V30 15187 O 1380.04 3.60141 -4.11049 0
M  V30 15188 H 1377.13 0.571224 -0.598024 0
M  V30 15189 H 1379.68 0.51523 -1.61689 0
M  V30 15190 H 1378.45 1.50027 -3.61397 0
M  V30 15191 H 1378.07 2.93799 -2.67896 0
M  V30 15192 N 1379.07 1.38501 0.752011 0
M  V30 15193 C 1380 1.38577 1.87933 0
M  V30 15194 C 1380.98 0.251454 1.68231 0
M  V30 15195 O 1382.16 0.45477 1.888 0
M  V30 15196 C 1379.29 1.21164 3.25479 0
M  V30 15197 C 1378.25 2.31816 3.59785 0
M  V30 15198 C 1377.57 1.99508 4.96085 0
M  V30 15199 C 1378.87 3.74082 3.645 0
M  V30 15200 H 1380.57 2.32913 1.88127 0
M  V30 15201 H 1378.11 1.12113 0.903698 0
M  V30 15202 H 1380.07 1.19842 4.04 0
M  V30 15203 H 1378.79 0.232899 3.25769 0
M  V30 15204 H 1377.45 2.32327 2.83584 0
M  V30 15205 H 1377.1 1.00114 4.92936 0
M  V30 15206 H 1376.8 2.73617 5.20007 0
M  V30 15207 H 1378.32 1.99807 5.76983 0
M  V30 15208 H 1379.74 3.75593 4.33131 0
M  V30 15209 H 1378.13 4.47409 3.99931 0
M  V30 15210 H 1379.2 4.06284 2.64692 0
M  V30 15211 N 1380.55 -0.980364 1.23396 0
M  V30 15212 C 1381.49 -2.07275 1.01516 0
M  V30 15213 C 1382.46 -1.65963 -0.0673729 0
M  V30 15214 O 1383.65 -1.90612 0.0847392 0
M  V30 15215 C 1380.79 -3.39621 0.61249 0
M  V30 15216 C 1379.9 -3.94203 1.76715 0
M  V30 15217 C 1379.04 -5.14761 1.31126 0
M  V30 15218 C 1378.07 -5.61509 2.43667 0
M  V30 15219 N 1377.21 -6.73297 1.99035 0
M  V30 15220 H 1382.05 -2.25325 1.9502 0
M  V30 15221 H 1379.59 -1.10452 0.971532 0
M  V30 15222 H 1381.55 -4.15643 0.360126 0
M  V30 15223 H 1380.18 -3.21535 -0.285539 0
M  V30 15224 H 1379.23 -3.14937 2.13352 0
M  V30 15225 H 1380.54 -4.24867 2.61323 0
M  V30 15226 H 1379.69 -5.98115 1.01702 0
M  V30 15227 H 1378.43 -4.85751 0.435555 0
M  V30 15228 H 1377.44 -4.76737 2.73865 0
M  V30 15229 H 1378.66 -5.92539 3.31774 0
M  V30 15230 H 1376.61 -6.46046 1.13845 0
M  V30 15231 H 1376.53 -7.03345 2.77203 0
M  V30 15232 H 1377.79 -7.60125 1.72716 0
M  V30 15233 N 1382.02 -1.04567 -1.17913 0
M  V30 15234 C 1382.96 -0.599154 -2.2123 0
M  V30 15235 C 1383.97 0.333824 -1.59341 0
M  V30 15236 O 1385.16 0.127548 -1.78044 0
M  V30 15237 C 1382.26 0.144045 -3.38594 0
M  V30 15238 C 1381.43 -0.798061 -4.30058 0
M  V30 15239 C 1380.49 -0.0972548 -5.2611 0
M  V30 15240 O 1379.52 -0.729318 -5.64508 0
M  V30 15241 N 1380.72 1.16759 -5.68637 0
M  V30 15242 H 1383.48 -1.48781 -2.60162 0
M  V30 15243 H 1381.04 -0.926787 -1.32749 0
M  V30 15244 H 1383.04 0.622843 -3.99878 0
M  V30 15245 H 1381.61 0.934292 -2.98311 0
M  V30 15246 H 1380.83 -1.45662 -3.66301 0
M  V30 15247 H 1382.11 -1.43777 -4.88063 0
M  V30 15248 H 1381.51 1.70155 -5.39503 0
M  V30 15249 H 1380.07 1.59057 -6.32095 0
M  V30 15250 N 1383.5 1.34231 -0.825823 0
M  V30 15251 C 1384.43 2.31997 -0.264546 0
M  V30 15252 C 1385.41 1.58375 0.620592 0
M  V30 15253 O 1386.6 1.86341 0.546865 0
M  V30 15254 C 1383.73 3.42557 0.572025 0
M  V30 15255 C 1382.68 4.27454 -0.216219 0
M  V30 15256 C 1382.01 5.29509 0.743279 0
M  V30 15257 C 1383.31 5.02456 -1.42603 0
M  V30 15258 H 1385 2.79189 -1.08139 0
M  V30 15259 H 1382.55 1.34227 -0.521451 0
M  V30 15260 H 1384.5 4.09968 0.974889 0
M  V30 15261 H 1383.22 2.94021 1.42195 0
M  V30 15262 H 1381.88 3.61649 -0.600485 0
M  V30 15263 H 1381.53 4.77234 1.58924 0
M  V30 15264 H 1381.23 5.87188 0.220064 0
M  V30 15265 H 1382.76 5.99789 1.14394 0
M  V30 15266 H 1384.17 5.62706 -1.09702 0
M  V30 15267 H 1382.57 5.69723 -1.88509 0
M  V30 15268 H 1383.64 4.31983 -2.2027 0
M  V30 15269 N 1384.98 0.581051 1.46498 0
M  V30 15270 C 1385.91 -0.19094 2.28403 0
M  V30 15271 C 1386.92 -0.857039 1.38415 0
M  V30 15272 O 1388.11 -0.726881 1.6303 0
M  V30 15273 C 1385.21 -1.28972 3.134 0
M  V30 15274 C 1384.39 -0.715867 4.31502 0
M  V30 15275 C 1383.45 -1.70215 4.97909 0
M  V30 15276 O 1382.47 -1.23885 5.55555 0
M  V30 15277 N 1383.67 -3.0362 4.94768 0
M  V30 15278 H 1386.44 0.511754 2.95298 0
M  V30 15279 H 1384 0.41871 1.56392 0
M  V30 15280 H 1385.99 -1.94877 3.5469 0
M  V30 15281 H 1384.56 -1.8953 2.4859 0
M  V30 15282 H 1383.78 0.120591 3.94016 0
M  V30 15283 H 1385.07 -0.312226 5.07841 0
M  V30 15284 H 1384.47 -3.43885 4.49177 0
M  V30 15285 H 1383.02 -3.65018 5.40005 0
M  V30 15286 N 1386.46 -1.54343 0.318742 0
M  V30 15287 C 1387.37 -2.27856 -0.558442 0
M  V30 15288 C 1388.38 -1.32029 -1.13333 0
M  V30 15289 O 1389.56 -1.65037 -1.15433 0
M  V30 15290 C 1386.62 -3.01842 -1.70565 0
M  V30 15291 C 1385.69 -4.13245 -1.16305 0
M  V30 15292 C 1384.92 -4.83693 -2.25559 0
M  V30 15293 O 1385.14 -4.53621 -3.4581 0
M  V30 15294 O 1384.08 -5.70708 -1.91249 0
M  V30 15295 H 1387.9 -3.03676 0.0384247 0
M  V30 15296 H 1385.49 -1.4916 0.0845936 0
M  V30 15297 H 1387.37 -3.48189 -2.37365 0
M  V30 15298 H 1386.04 -2.28902 -2.28879 0
M  V30 15299 H 1384.95 -3.71258 -0.460274 0
M  V30 15300 H 1386.28 -4.88214 -0.625111 0
M  V30 15301 N 1387.94 -0.0468143 -1.5753 0
M  V30 15302 C 1389.16 0.641161 -1.97241 0
M  V30 15303 C 1389.59 1.6384 -0.92401 0
M  V30 15304 O 1388.94 1.80946 0.113229 0
M  V30 15305 C 1388.99 1.30832 -3.36029 0
M  V30 15306 O 1388.1 2.42394 -3.33645 0
M  V30 15307 H 1387.44 0.167035 -0.642647 0
M  V30 15308 H 1389.97 -0.113921 -2.04283 0
M  V30 15309 H 1389.98 1.66102 -3.72658 0
M  V30 15310 H 1388.65 0.57744 -4.11872 0
M  V30 15311 H 1387.23 2.09104 -3.08756 0
M  V30 15312 N 1389.41 1.55964 0.226527 0
M  V30 15313 C 1390.34 1.95028 1.284 0
M  V30 15314 C 1391.33 0.817833 1.49149 0
M  V30 15315 O 1392.51 1.07975 1.61416 0
M  V30 15316 C 1389.64 2.26266 2.63478 0
M  V30 15317 C 1388.59 3.41954 2.57393 0
M  V30 15318 C 1387.92 3.58786 3.96456 0
M  V30 15319 C 1389.22 4.77069 2.12608 0
M  V30 15320 H 1390.91 2.83608 0.959513 0
M  V30 15321 H 1388.46 1.36451 0.460125 0
M  V30 15322 H 1390.41 2.52186 3.3761 0
M  V30 15323 H 1389.14 1.34533 2.97604 0
M  V30 15324 H 1387.8 3.16076 1.85719 0
M  V30 15325 H 1387.44 2.64437 4.27881 0
M  V30 15326 H 1387.14 4.36595 3.93267 0
M  V30 15327 H 1388.67 3.87048 4.72256 0
M  V30 15328 H 1390.08 5.02226 2.76481 0
M  V30 15329 H 1388.48 5.58126 2.2049 0
M  V30 15330 H 1389.55 4.7276 1.07823 0
M  V30 15331 N 1390.89 -0.493031 1.4969 0
M  V30 15332 C 1391.82 -1.61058 1.63074 0
M  V30 15333 C 1392.84 -1.54504 0.513069 0
M  V30 15334 O 1394.03 -1.60291 0.785431 0
M  V30 15335 C 1391.13 -2.99877 1.57883 0
M  V30 15336 C 1390.3 -3.31531 2.85317 0
M  V30 15337 C 1389.36 -4.49799 2.7307 0
M  V30 15338 O 1388.38 -4.51189 3.47012 0
M  V30 15339 N 1389.59 -5.50182 1.85148 0
M  V30 15340 H 1392.35 -1.5 2.59461 0
M  V30 15341 H 1389.91 -0.681057 1.46878 0
M  V30 15342 H 1391.9 -3.76928 1.47333 0
M  V30 15343 H 1390.47 -3.04817 0.693218 0
M  V30 15344 H 1389.69 -2.433 3.10159 0
M  V30 15345 H 1390.98 -3.49481 3.69784 0
M  V30 15346 H 1390.38 -5.51865 1.24345 0
M  V30 15347 H 1388.94 -6.26305 1.80516 0
M  V30 15348 N 1392.37 -1.38898 -0.744656 0
M  V30 15349 C 1393.62 -1.34909 -1.49941 0
M  V30 15350 C 1393.93 0.0553979 -1.95522 0
M  V30 15351 O 1395.14 0.21785 -2.70625 0
M  V30 15352 C 1393.59 -2.36954 -2.70889 0
M  V30 15353 C 1393.2 -3.83069 -2.32298 0
M  V30 15354 C 1394.95 -2.42024 -3.48747 0
M  V30 15355 C 1392.85 -4.76777 -3.4991 0
M  V30 15356 H 1391.78 -0.501512 -0.563029 0
M  V30 15357 H 1394.43 -1.64497 -0.813201 0
M  V30 15358 H 1392.82 -2.00421 -3.41537 0
M  V30 15359 H 1393.99 -4.28588 -1.69259 0
M  V30 15360 H 1392.31 -3.81202 -1.67554 0
M  V30 15361 H 1394.9 -3.0923 -4.36212 0
M  V30 15362 H 1395.25 -1.44184 -3.90534 0
M  V30 15363 H 1395.78 -2.774 -2.85121 0
M  V30 15364 H 1392.52 -5.75844 -3.13183 0
M  V30 15365 H 1392.04 -4.35944 -4.11962 0
M  V30 15366 H 1393.72 -4.95219 -4.16374 0
M  V30 15367 N 1393.85 0.973806 -1.23914 0
M  V30 15368 C 1394.76 2.10138 -1.04304 0
M  V30 15369 C 1395.77 1.73994 0.0143888 0
M  V30 15370 O 1396.95 2.00572 -0.182481 0
M  V30 15371 C 1394.02 3.40673 -0.643639 0
M  V30 15372 C 1393.08 3.90802 -1.77686 0
M  V30 15373 C 1392.31 5.15108 -1.39642 0
M  V30 15374 O 1392.53 5.69695 -0.283546 0
M  V30 15375 O 1391.47 5.59468 -2.21988 0
M  V30 15376 H 1395.29 2.29574 -1.9882 0
M  V30 15377 H 1392.88 1.08524 -1.02679 0
M  V30 15378 H 1394.76 4.19178 -0.432145 0
M  V30 15379 H 1393.43 3.22551 0.272458 0
M  V30 15380 H 1392.34 3.13385 -2.04305 0
M  V30 15381 H 1393.67 4.1339 -2.67151 0
M  V30 15382 N 1395.33 1.05191 1.17357 0
M  V30 15383 C 1396.74 0.773255 1.39617 0
M  V30 15384 C 1396.94 -0.632346 1.91321 0
M  V30 15385 O 1396 -1.39475 2.10483 0
M  V30 15386 C 1397.31 1.82885 2.38692 0
M  V30 15387 C 1398.86 1.85106 2.52398 0
M  V30 15388 C 1399.33 2.89689 3.54746 0
M  V30 15389 N 1400.83 2.88651 3.62263 0
M  V30 15390 C 1401.56 3.66221 4.41214 0
M  V30 15391 N 1401.06 4.53577 5.23679 0
M  V30 15392 N 1402.85 3.54661 4.36087 0
M  V30 15393 H 1395 1.9588 0.82127 0
M  V30 15394 H 1397.26 0.848187 0.423417 0
M  V30 15395 H 1396.97 2.83766 2.07773 0
M  V30 15396 H 1396.84 1.67047 3.38194 0
M  V30 15397 H 1399.23 0.848896 2.82627 0
M  V30 15398 H 1399.31 2.05022 1.5297 0
M  V30 15399 H 1398.96 3.90091 3.25255 0
M  V30 15400 H 1398.89 2.67025 4.53878 0
M  V30 15401 H 1401.38 2.25312 3.03386 0
M  V30 15402 H 1401.69 5.09449 5.81104 0
M  V30 15403 H 1400.03 4.57638 5.23061 0
M  V30 15404 H 1403.23 2.8581 3.70716 0
M  V30 15405 H 1403.4 4.15361 4.97372 0
M  V30 15406 N 1396.8 -1.33791 0.83293 0
M  V30 15407 C 1398.08 -1.9248 0.347955 0
M  V30 15408 C 1398.46 -1.75978 -1.16597 0
M  V30 15409 O 1397.81 -1.14456 -1.97768 0
M  V30 15410 C 1398.02 -3.3998 0.78831 0
M  V30 15411 C 1399.37 -4.17131 0.7929 0
M  V30 15412 O 1400.39 -3.48607 0.731533 0
M  V30 15413 O 1399.25 -5.39446 0.875223 0
M  V30 15414 H 1396.34 -0.821264 0.0972309 0
M  V30 15415 H 1398.89 -1.42702 0.918387 0
M  V30 15416 H 1397.66 -3.45836 1.83065 0
M  V30 15417 H 1397.29 -3.97126 0.194123 0
M  V30 15418 N 1398.28 -0.588812 -1.46187 0
M  V30 15419 C 1399.21 0.178825 -2.28501 0
M  V30 15420 C 1400.23 0.849686 -1.38867 0
M  V30 15421 O 1401.42 0.718224 -1.63413 0
M  V30 15422 C 1398.52 1.27309 -3.14079 0
M  V30 15423 C 1397.69 0.692974 -4.31876 0
M  V30 15424 C 1396.75 1.67572 -4.98805 0
M  V30 15425 O 1395.77 1.20937 -5.56204 0
M  V30 15426 N 1396.98 3.00992 -4.96371 0
M  V30 15427 H 1399.74 -0.527407 -2.95023 0
M  V30 15428 H 1397.3 -0.426998 -1.56168 0
M  V30 15429 H 1399.29 1.92993 -3.55719 0
M  V30 15430 H 1397.86 1.88209 -2.49592 0
M  V30 15431 H 1397.08 -0.141485 -3.93946 0
M  V30 15432 H 1398.37 0.28529 -5.08 0
M  V30 15433 H 1397.77 3.41498 -4.50994 0
M  V30 15434 H 1396.33 3.62149 -5.41933 0
M  V30 15435 N 1399.76 1.54172 -0.326923 0
M  V30 15436 C 1400.69 2.27402 0.530154 0
M  V30 15437 C 1401.67 1.28325 1.11655 0
M  V30 15438 O 1402.86 1.57142 1.14105 0
M  V30 15439 C 1399.99 3.03435 1.68951 0
M  V30 15440 C 1398.94 4.09877 1.23226 0
M  V30 15441 C 1398.27 4.7377 2.47882 0
M  V30 15442 C 1399.57 5.21161 0.344698 0
M  V30 15443 H 1401.26 2.99291 -0.0806959 0
M  V30 15444 H 1398.81 1.43944 -0.0402511 0
M  V30 15445 H 1400.76 3.53396 2.29541 0
M  V30 15446 H 1399.48 2.29169 2.327 0
M  V30 15447 H 1398.14 3.60805 0.649267 0
M  V30 15448 H 1397.79 3.96116 3.10002 0
M  V30 15449 H 1397.49 5.45674 2.17977 0
M  V30 15450 H 1399.01 5.26507 3.09229 0
M  V30 15451 H 1400.43 5.66859 0.856979 0
M  V30 15452 H 1398.83 5.99941 0.138276 0
M  V30 15453 H 1399.9 4.80874 -0.623575 0
M  V30 15454 N 1401.24 0.0551678 1.57503 0
M  V30 15455 C 1402.19 -0.917847 2.11764 0
M  V30 15456 C 1403.16 -1.30624 1.02599 0
M  V30 15457 O 1404.34 -1.39501 1.30169 0
M  V30 15458 C 1401.48 -2.18599 2.67036 0
M  V30 15459 C 1400.59 -1.85173 3.90301 0
M  V30 15460 C 1399.73 -3.06475 4.33874 0
M  V30 15461 C 1398.77 -2.68988 5.49829 0
M  V30 15462 N 1397.9 -3.82997 5.88437 0
M  V30 15463 H 1402.74 -0.448236 2.9461 0
M  V30 15464 H 1400.28 -0.209619 1.45599 0
M  V30 15465 H 1402.24 -2.92811 2.97183 0
M  V30 15466 H 1400.87 -2.6313 1.86982 0
M  V30 15467 H 1399.92 -1.01094 3.66721 0
M  V30 15468 H 1401.23 -1.53582 4.74567 0
M  V30 15469 H 1400.39 -3.88982 4.65594 0
M  V30 15470 H 1399.13 -3.41247 3.48427 0
M  V30 15471 H 1398.13 -1.84899 5.17776 0
M  V30 15472 H 1399.36 -2.35404 6.36994 0
M  V30 15473 H 1397.3 -4.17562 5.05942 0
M  V30 15474 H 1397.22 -3.55118 6.67403 0
M  V30 15475 H 1398.49 -4.66131 6.24773 0
M  V30 15476 N 1402.72 -1.56081 -0.218252 0
M  V30 15477 C 1403.94 -1.83681 -0.963119 0
M  V30 15478 C 1404.37 -0.635909 -1.77025 0
M  V30 15479 O 1403.72 0.415327 -1.76479 0
M  V30 15480 C 1403.77 -3.09302 -1.85376 0
M  V30 15481 O 1402.88 -2.88228 -2.94955 0
M  V30 15482 H 1402.22 -0.605495 -0.272529 0
M  V30 15483 H 1404.75 -2.03297 -0.230567 0
M  V30 15484 H 1404.76 -3.39493 -2.26294 0
M  V30 15485 H 1403.43 -3.96337 -1.26054 0
M  V30 15486 H 1402.01 -2.69279 -2.57959 0
M  V30 15487 N 1404.2 0.485086 -1.49949 0
M  V30 15488 C 1405.47 1.24639 -1.50747 0
M  V30 15489 C 1405.85 2.09683 -0.244162 0
M  V30 15490 O 1405.2 2.1503 0.772949 0
M  V30 15491 C 1405.41 2.08946 -2.7954 0
M  V30 15492 C 1406.76 2.67604 -3.29656 0
M  V30 15493 O 1407.78 2.192 -2.80766 0
M  V30 15494 O 1406.64 3.55761 -4.14845 0
M  V30 15495 H 1403.74 0.564849 -0.604049 0
M  V30 15496 H 1406.28 0.498052 -1.62227 0
M  V30 15497 H 1405.05 1.46185 -3.62968 0
M  V30 15498 H 1404.68 2.90941 -2.70997 0
M  V30 15499 N 1405.67 1.39291 0.737279 0
M  V30 15500 C 1406.92 1.35702 1.49224 0
M  V30 15501 C 1407.24 -0.0450282 1.95548 0
M  V30 15502 O 1408.44 -0.203495 2.70736 0
M  V30 15503 C 1406.9 2.38387 2.69629 0
M  V30 15504 C 1406.51 3.84295 2.30263 0
M  V30 15505 C 1408.25 2.4387 3.47459 0
M  V30 15506 C 1406.16 4.78626 3.47377 0
M  V30 15507 H 1405.09 0.50449 0.560362 0
M  V30 15508 H 1407.74 1.64926 0.804466 0
M  V30 15509 H 1406.12 2.0223 3.40469 0
M  V30 15510 H 1407.29 4.2948 1.66984 0
M  V30 15511 H 1405.61 3.82085 1.6553 0
M  V30 15512 H 1408.21 3.11539 4.34566 0
M  V30 15513 H 1408.55 1.46253 3.89764 0
M  V30 15514 H 1409.08 2.78908 2.83646 0
M  V30 15515 H 1405.82 5.77497 3.10124 0
M  V30 15516 H 1405.34 4.38123 4.09645 0
M  V30 15517 H 1407.02 4.9742 4.13742 0
M  V30 15518 N 1407.15 -0.967221 1.24429 0
M  V30 15519 C 1408.1 -2.047 1.00409 0
M  V30 15520 C 1409.09 -1.60807 -0.0546412 0
M  V30 15521 O 1410.28 -1.76283 0.159145 0
M  V30 15522 C 1407.41 -3.37813 0.611345 0
M  V30 15523 C 1406.49 -3.88266 1.70618 0
M  V30 15524 N 1406.88 -4.1165 2.93901 0
M  V30 15525 C 1405.18 -4.16931 1.5838 0
M  V30 15526 C 1405.88 -4.53032 3.64879 0
M  V30 15527 N 1404.86 -4.58233 2.92444 0
M  V30 15528 H 1408.66 -2.20755 1.94021 0
M  V30 15529 H 1406.17 -1.15105 1.14562 0
M  V30 15530 H 1408.17 -4.14774 0.420493 0
M  V30 15531 H 1406.83 -3.23143 -0.317588 0
M  V30 15532 H 1407.84 -3.99087 3.30075 0
M  V30 15533 H 1404.52 -4.11193 0.722929 0
M  V30 15534 H 1405.91 -4.79533 4.70635 0
M  V30 15535 N 1408.63 -1.05812 -1.16797 0
M  V30 15536 C 1409.91 -0.685551 -1.83193 0
M  V30 15537 C 1410.29 0.833539 -1.93947 0
M  V30 15538 O 1409.63 1.74193 -1.47882 0
M  V30 15539 C 1409.84 -1.38183 -3.20479 0
M  V30 15540 C 1411.19 -1.52389 -3.96311 0
M  V30 15541 O 1412.22 -1.34134 -3.2998 0
M  V30 15542 O 1411.08 -1.82297 -5.15199 0
M  V30 15543 H 1408.17 -0.242095 -0.790771 0
M  V30 15544 H 1410.72 -1.15809 -1.24041 0
M  V30 15545 H 1409.49 -2.41791 -3.07657 0
M  V30 15546 H 1409.11 -0.899043 -3.87302 0
M  V30 15547 N 1410.11 1.33347 -0.840014 0
M  V30 15548 C 1411.34 2.01952 -0.449793 0
M  V30 15549 C 1411.75 1.63197 0.949317 0
M  V30 15550 O 1411.11 0.84589 1.61713 0
M  V30 15551 C 1411.16 3.57102 -0.562178 0
M  V30 15552 O 1410.88 3.94458 -1.90616 0
M  V30 15553 C 1412.38 4.42978 -0.169062 0
M  V30 15554 H 1409.6 0.646843 -0.178425 0
M  V30 15555 H 1412.14 1.70251 -1.1329 0
M  V30 15556 H 1410.3 3.87331 0.0730345 0
M  V30 15557 H 1410.71 4.89167 -1.8925 0
M  V30 15558 H 1412.19 5.51191 -0.298742 0
M  V30 15559 H 1412.66 4.30106 0.889137 0
M  V30 15560 H 1413.27 4.18109 -0.778756 0
M  V30 15561 N 1411.59 0.596556 1.45873 0
M  V30 15562 C 1412.83 0.0875879 2.02611 0
M  V30 15563 C 1413.16 -1.27438 1.46538 0
M  V30 15564 O 1412.44 -1.83815 0.635779 0
M  V30 15565 C 1412.72 0.0367394 3.60081 0
M  V30 15566 C 1412.58 1.42859 4.26511 0
M  V30 15567 C 1413.89 -0.656795 4.35171 0
M  V30 15568 H 1411.01 0.0333031 0.736247 0
M  V30 15569 H 1413.66 0.766413 1.73857 0
M  V30 15570 H 1411.81 -0.541345 3.8471 0
M  V30 15571 H 1413.48 2.0529 4.13102 0
M  V30 15572 H 1411.72 1.99243 3.85337 0
M  V30 15573 H 1412.39 1.34535 5.35354 0
M  V30 15574 H 1414.87 -0.165553 4.15771 0
M  V30 15575 H 1413.74 -0.661445 5.449 0
M  V30 15576 H 1414 -1.72079 4.07236 0
M  V30 15577 N 1413.06 -1.53996 0.335095 0
M  V30 15578 C 1414.01 -2.26221 -0.541007 0
M  V30 15579 C 1415.01 -1.28053 -1.109 0
M  V30 15580 O 1416.21 -1.4579 -1.05571 0
M  V30 15581 H 1412.59 -0.726775 -0.193136 0
M  V30 15582 H 1414.56 -2.98263 0.0902792 0
M  V30 15583 C 1413.31 -3.04173 -1.68445 0
M  V30 15584 H 1412.63 -3.79537 -1.25665 0
M  V30 15585 H 1414.07 -3.57937 -2.27282 0
M  V30 15586 C 1412.53 -2.13162 -2.6089 0
M  V30 15587 O 1413.06 -1.7221 -3.62914 0
M  V30 15588 N 1411.26 -1.78414 -2.29384 0
M  V30 15589 H 1410.81 -2.11914 -1.46458 0
M  V30 15590 H 1410.77 -1.178 -2.91497 0
M  V30 15591 N 1414.54 -0.0635198 -1.57472 0
M  V30 15592 C 1415.47 0.942339 -2.07835 0
M  V30 15593 C 1416.45 1.29629 -0.981587 0
M  V30 15594 O 1417.64 1.40702 -1.25439 0
M  V30 15595 C 1414.76 2.25284 -2.52913 0
M  V30 15596 C 1413.81 2.05105 -3.73944 0
M  V30 15597 S 1414.64 1.31802 -5.19026 0
M  V30 15598 C 1415.8 2.64149 -5.67429 0
M  V30 15599 H 1416.03 0.513772 -2.92827 0
M  V30 15600 H 1413.56 0.149049 -1.53679 0
M  V30 15601 H 1415.52 3.00607 -2.79546 0
M  V30 15602 H 1414.18 2.65266 -1.68204 0
M  V30 15603 H 1413.38 3.02071 -4.03447 0
M  V30 15604 H 1412.98 1.3792 -3.47641 0
M  V30 15605 H 1415.27 3.60272 -5.73769 0
M  V30 15606 H 1416.21 2.39267 -6.66451 0
M  V30 15607 H 1416.62 2.70975 -4.9521 0
M  V30 15608 N 1416.02 1.56195 0.209972 0
M  V30 15609 C 1416.97 1.94226 1.27981 0
M  V30 15610 C 1417.96 0.825742 1.47912 0
M  V30 15611 O 1419.17 1.01066 1.48949 0
M  V30 15612 H 1415.54 0.617395 0.429333 0
M  V30 15613 H 1417.51 2.83474 0.931946 0
M  V30 15614 C 1416.26 2.28527 2.62051 0
M  V30 15615 H 1415.59 3.1396 2.47526 0
M  V30 15616 H 1417.03 2.59012 3.35692 0
M  V30 15617 C 1415.48 1.11452 3.17931 0
M  V30 15618 O 1416.01 0.381713 3.99882 0
M  V30 15619 N 1414.22 0.895263 2.76466 0
M  V30 15620 H 1413.77 1.4929 2.09929 0
M  V30 15621 H 1413.73 0.113688 3.14194 0
M  V30 15622 N 1417.5 -0.477127 1.50204 0
M  V30 15623 C 1418.75 -1.22639 1.60133 0
M  V30 15624 C 1419.06 -1.93218 0.304333 0
M  V30 15625 O 1420.27 -2.70027 0.282457 0
M  V30 15626 C 1418.72 -2.22807 2.82639 0
M  V30 15627 C 1418.33 -1.58059 4.19191 0
M  V30 15628 C 1420.07 -2.98413 3.01911 0
M  V30 15629 C 1417.98 -2.56478 5.32891 0
M  V30 15630 H 1416.91 -0.461439 0.596314 0
M  V30 15631 H 1419.56 -0.497533 1.76626 0
M  V30 15632 H 1417.94 -2.98959 2.59692 0
M  V30 15633 H 1419.12 -0.877374 4.5237 0
M  V30 15634 H 1417.43 -0.947563 4.05475 0
M  V30 15635 H 1420.03 -3.72059 3.84026 0
M  V30 15636 H 1420.37 -3.57444 2.134 0
M  V30 15637 H 1420.91 -2.29375 3.25011 0
M  V30 15638 H 1417.64 -2.02194 6.23536 0
M  V30 15639 H 1417.16 -3.24969 5.04138 0
M  V30 15640 H 1418.84 -3.18429 5.63216 0
M  V30 15641 N 1418.98 -1.3968 -0.729882 0
M  V30 15642 C 1420.25 -1.27689 -1.48172 0
M  V30 15643 C 1420.63 0.111239 -2.10807 0
M  V30 15644 O 1419.98 1.12289 -1.99006 0
M  V30 15645 C 1420.19 -2.40505 -2.529 0
M  V30 15646 C 1421.54 -2.80064 -3.19138 0
M  V30 15647 O 1422.56 -2.39992 -2.63215 0
M  V30 15648 O 1421.42 -3.49248 -4.20342 0
M  V30 15649 H 1418.52 -0.500674 -0.658221 0
M  V30 15650 H 1421.06 -1.51566 -0.763272 0
M  V30 15651 H 1419.83 -3.33282 -2.05033 0
M  V30 15652 H 1419.46 -2.1832 -3.32298 0
M  V30 15653 N 1420.45 0.960609 -1.2494 0
M  V30 15654 C 1421.68 1.73928 -1.12057 0
M  V30 15655 C 1422.1 1.8596 0.32623 0
M  V30 15656 O 1421.45 1.35303 1.22472 0
M  V30 15657 C 1421.51 3.15614 -1.76267 0
M  V30 15658 O 1421.23 3.04177 -3.15291 0
M  V30 15659 C 1422.73 4.09786 -1.69086 0
M  V30 15660 H 1419.95 0.5452 -0.39115 0
M  V30 15661 H 1422.49 1.20556 -1.65186 0
M  V30 15662 H 1420.65 3.65949 -1.27123 0
M  V30 15663 H 1421.06 3.93513 -3.46768 0
M  V30 15664 H 1422.53 5.06835 -2.18683 0
M  V30 15665 H 1423.01 4.34312 -0.653453 0
M  V30 15666 H 1423.62 3.65365 -2.1769 0
M  V30 15667 N 1421.93 1.0643 1.16234 0
M  V30 15668 C 1422.86 0.634274 2.20249 0
M  V30 15669 C 1423.88 -0.308432 1.59852 0
M  V30 15670 O 1425.07 -0.0992067 1.78224 0
M  V30 15671 C 1422.17 -0.0901593 3.3878 0
M  V30 15672 C 1421.34 0.866379 4.28734 0
M  V30 15673 C 1420.4 0.180942 5.25889 0
M  V30 15674 O 1419.42 0.819034 5.63277 0
M  V30 15675 N 1420.63 -1.07698 5.70422 0
M  V30 15676 H 1423.39 1.52901 2.57762 0
M  V30 15677 H 1420.95 0.947789 1.31258 0
M  V30 15678 H 1422.94 -0.559147 4.00819 0
M  V30 15679 H 1421.51 -0.886715 2.9976 0
M  V30 15680 H 1420.73 1.51471 3.63937 0
M  V30 15681 H 1422.02 1.51524 4.85714 0
M  V30 15682 H 1421.42 -1.6155 5.42142 0
M  V30 15683 H 1419.98 -1.48981 6.34545 0
M  V30 15684 N 1423.41 -1.329 0.847073 0
M  V30 15685 C 1424.32 -2.32815 0.288878 0
M  V30 15686 C 1425.34 -1.63715 -0.589363 0
M  V30 15687 O 1426.51 -1.9531 -0.491537 0
M  V30 15688 C 1423.58 -3.42778 -0.519988 0
M  V30 15689 C 1422.64 -4.27584 0.383496 0
M  V30 15690 C 1421.87 -5.32296 -0.386862 0
M  V30 15691 O 1422.09 -5.4698 -1.61768 0
M  V30 15692 O 1421.03 -6.01408 0.2434 0
M  V30 15693 H 1424.85 -2.82434 1.11647 0
M  V30 15694 H 1422.44 -1.36388 0.609807 0
M  V30 15695 H 1424.32 -4.09862 -0.979357 0
M  V30 15696 H 1423 -2.95362 -1.3245 0
M  V30 15697 H 1421.9 -3.63338 0.890879 0
M  V30 15698 H 1423.24 -4.78505 1.15299 0
M  V30 15699 N 1424.89 -0.604284 -1.45555 0
M  V30 15700 C 1425.82 0.154579 -2.28678 0
M  V30 15701 C 1426.83 0.83491 -1.39761 0
M  V30 15702 O 1428.02 0.700852 -1.64166 0
M  V30 15703 C 1425.12 1.2397 -3.15412 0
M  V30 15704 C 1424.3 0.647128 -4.32586 0
M  V30 15705 C 1423.35 1.62272 -5.00554 0
M  V30 15706 O 1422.38 1.15031 -5.57455 0
M  V30 15707 N 1423.58 2.9571 -4.99536 0
M  V30 15708 H 1426.35 -0.558668 -2.94447 0
M  V30 15709 H 1423.91 -0.443538 -1.55706 0
M  V30 15710 H 1425.9 1.89209 -3.57746 0
M  V30 15711 H 1424.47 1.85552 -2.51574 0
M  V30 15712 H 1423.69 -0.183261 -3.93774 0
M  V30 15713 H 1424.98 0.231394 -5.08274 0
M  V30 15714 H 1424.38 3.36695 -4.54591 0
M  V30 15715 H 1422.93 3.56381 -5.45744 0
M  V30 15716 N 1426.37 1.53816 -0.343257 0
M  V30 15717 C 1427.3 2.27951 0.506005 0
M  V30 15718 C 1428.28 1.29502 1.10287 0
M  V30 15719 O 1429.46 1.58344 1.12432 0
M  V30 15720 C 1426.59 3.0521 1.65723 0
M  V30 15721 C 1425.55 4.11161 1.18871 0
M  V30 15722 C 1424.87 4.76373 2.42843 0
M  V30 15723 C 1426.17 5.21498 0.289403 0
M  V30 15724 H 1427.87 2.99189 -0.112435 0
M  V30 15725 H 1425.41 1.43893 -0.055516 0
M  V30 15726 H 1427.37 3.55811 2.2578 0
M  V30 15727 H 1426.09 2.31624 2.30256 0
M  V30 15728 H 1424.75 3.61473 0.610962 0
M  V30 15729 H 1424.4 3.99381 3.05784 0
M  V30 15730 H 1424.1 5.47955 2.12177 0
M  V30 15731 H 1425.62 5.29758 3.03627 0
M  V30 15732 H 1427.03 5.67736 0.796808 0
M  V30 15733 H 1425.43 6.00054 0.0746366 0
M  V30 15734 H 1426.5 4.80185 -0.674543 0
M  V30 15735 N 1427.84 0.0718701 1.57436 0
M  V30 15736 C 1429.26 -0.28476 1.57039 0
M  V30 15737 C 1429.46 -1.70032 1.08127 0
M  V30 15738 O 1428.52 -2.41191 0.747189 0
M  V30 15739 C 1429.83 -0.0943482 3.00552 0
M  V30 15740 C 1431.38 -0.163879 3.12571 0
M  V30 15741 C 1431.85 -0.00174658 4.58 0
M  V30 15742 N 1433.34 -0.0573489 4.63164 0
M  V30 15743 C 1434.08 0.0436849 5.73383 0
M  V30 15744 N 1433.57 0.198243 6.92516 0
M  V30 15745 N 1435.37 -0.0133856 5.62098 0
M  V30 15746 H 1427.52 0.99702 1.87545 0
M  V30 15747 H 1429.78 0.388822 0.864593 0
M  V30 15748 H 1429.49 0.882445 3.40449 0
M  V30 15749 H 1429.36 -0.846636 3.67576 0
M  V30 15750 H 1431.75 -1.13116 2.7256 0
M  V30 15751 H 1431.83 0.619513 2.48185 0
M  V30 15752 H 1431.47 0.9623 4.98701 0
M  V30 15753 H 1431.4 -0.804543 5.20418 0
M  V30 15754 H 1433.89 -0.175212 3.77494 0
M  V30 15755 H 1434.21 0.267479 7.72337 0
M  V30 15756 H 1432.55 0.233606 6.94607 0
M  V30 15757 H 1435.74 -0.132835 4.67911 0
M  V30 15758 H 1435.92 0.0688076 6.47963 0
M  V30 15759 N 1429.32 -1.56304 -0.201686 0
M  V30 15760 C 1430.27 -1.94901 -1.26949 0
M  V30 15761 C 1431.26 -0.833574 -1.47472 0
M  V30 15762 O 1432.47 -1.01854 -1.48411 0
M  V30 15763 H 1428.85 -0.619663 -0.426053 0
M  V30 15764 H 1430.82 -2.83964 -0.9169 0
M  V30 15765 C 1429.57 -2.29913 -2.60835 0
M  V30 15766 H 1428.89 -3.15268 -2.45858 0
M  V30 15767 H 1430.33 -2.60789 -3.34313 0
M  V30 15768 C 1428.79 -1.13136 -3.17335 0
M  V30 15769 O 1429.32 -0.402915 -3.99674 0
M  V30 15770 N 1427.52 -0.909912 -2.75987 0
M  V30 15771 H 1427.07 -1.50402 -2.09134 0
M  V30 15772 H 1427.03 -0.130348 -3.1413 0
M  V30 15773 N 1430.8 0.469154 -1.50455 0
M  V30 15774 C 1431.76 1.5493 -1.68906 0
M  V30 15775 C 1432.76 1.50744 -0.559721 0
M  V30 15776 O 1433.95 1.5333 -0.826781 0
M  V30 15777 C 1431.09 2.94556 -1.71609 0
M  V30 15778 H 1432.28 1.39887 -2.65276 0
M  V30 15779 H 1429.83 0.695667 -1.39965 0
M  V30 15780 H 1430.57 3.15041 -0.769382 0
M  V30 15781 H 1430.35 2.99002 -2.53654 0
M  V30 15782 H 1431.84 3.72973 -1.87831 0
M  V30 15783 N 1432.28 1.40065 0.722464 0
M  V30 15784 C 1433.21 1.42532 1.84951 0
M  V30 15785 C 1434.19 0.287082 1.6766 0
M  V30 15786 O 1435.37 0.494715 1.87793 0
M  V30 15787 C 1432.5 1.28041 3.22836 0
M  V30 15788 C 1431.46 2.39396 3.54787 0
M  V30 15789 C 1430.78 2.09986 4.91742 0
M  V30 15790 C 1432.08 3.81729 3.56483 0
M  V30 15791 H 1433.78 2.36851 1.83144 0
M  V30 15792 H 1431.32 1.14005 0.879714 0
M  V30 15793 H 1433.28 1.28385 4.01367 0
M  V30 15794 H 1432 0.301947 3.25201 0
M  V30 15795 H 1430.66 2.3829 2.78592 0
M  V30 15796 H 1430.31 1.10547 4.90702 0
M  V30 15797 H 1430.01 2.84586 5.14086 0
M  V30 15798 H 1431.53 2.12 5.72615 0
M  V30 15799 H 1432.95 3.84696 4.25067 0
M  V30 15800 H 1431.34 4.55791 3.90351 0
M  V30 15801 H 1432.41 4.11807 2.56014 0
M  V30 15802 N 1433.76 -0.95397 1.25448 0
M  V30 15803 C 1434.67 -2.08452 1.07634 0
M  V30 15804 C 1435.68 -1.73995 0.013294 0
M  V30 15805 O 1436.86 -2.00256 0.214367 0
M  V30 15806 C 1433.92 -3.39606 0.697756 0
M  V30 15807 C 1432.99 -3.87926 1.83881 0
M  V30 15808 C 1432.22 -5.12821 1.47819 0
M  V30 15809 O 1432.44 -5.69172 0.374143 0
M  V30 15810 O 1431.38 -5.55866 2.3086 0
M  V30 15811 H 1435.2 -2.26382 2.02447 0
M  V30 15812 H 1432.79 -1.06877 1.04392 0
M  V30 15813 H 1434.67 -4.18438 0.498778 0
M  V30 15814 H 1433.34 -3.22944 -0.221108 0
M  V30 15815 H 1432.25 -3.10095 2.09265 0
M  V30 15816 H 1433.58 -4.09087 2.73694 0
M  V30 15817 N 1435.24 -1.07045 -1.15668 0
M  V30 15818 C 1436.46 -0.812802 -1.9081 0
M  V30 15819 C 1436.89 0.627827 -1.77313 0
M  V30 15820 O 1436.24 1.43836 -1.10368 0
M  V30 15821 C 1436.29 -1.2219 -3.39267 0
M  V30 15822 O 1435.4 -0.365305 -4.10779 0
M  V30 15823 H 1434.74 -0.296385 -0.594182 0
M  V30 15824 H 1437.27 -1.42825 -1.465 0
M  V30 15825 H 1437.28 -1.19674 -3.90054 0
M  V30 15826 H 1435.95 -2.27121 -3.48409 0
M  V30 15827 H 1434.53 -0.452687 -3.70142 0
M  V30 15828 N 1436.71 1.32449 -0.85411 0
M  V30 15829 C 1437.64 2.31383 -0.313697 0
M  V30 15830 C 1438.62 1.59656 0.586858 0
M  V30 15831 O 1439.81 1.87459 0.507216 0
M  V30 15832 C 1436.94 3.43693 0.499235 0
M  V30 15833 C 1435.89 4.26899 -0.306839 0
M  V30 15834 C 1435.22 5.30966 0.630795 0
M  V30 15835 C 1436.52 4.99318 -1.53229 0
M  V30 15836 H 1438.21 2.76832 -1.14037 0
M  V30 15837 H 1435.76 1.33091 -0.549805 0
M  V30 15838 H 1437.71 4.11944 0.887709 0
M  V30 15839 H 1436.44 2.96971 1.35926 0
M  V30 15840 H 1435.1 3.60294 -0.677061 0
M  V30 15841 H 1434.74 4.80498 1.48765 0
M  V30 15842 H 1434.44 5.87522 0.0954635 0
M  V30 15843 H 1435.97 6.0208 1.01646 0
M  V30 15844 H 1437.38 5.60253 -1.21614 0
M  V30 15845 H 1435.78 5.65596 -2.00552 0
M  V30 15846 H 1436.85 4.27213 -2.29383 0
M  V30 15847 N 1438.19 0.611994 1.45232 0
M  V30 15848 C 1439.14 -0.104265 2.30564 0
M  V30 15849 C 1440.11 -0.855676 1.42364 0
M  V30 15850 O 1441.29 -0.840534 1.71288 0
M  V30 15851 C 1438.43 -1.09274 3.27343 0
M  V30 15852 C 1437.55 -0.341747 4.30646 0
M  V30 15853 C 1436.68 -1.32034 5.14529 0
M  V30 15854 C 1435.72 -0.557405 6.09557 0
M  V30 15855 N 1434.86 -1.4855 6.86205 0
M  V30 15856 H 1439.7 0.629396 2.91278 0
M  V30 15857 H 1437.23 0.322177 1.43528 0
M  V30 15858 H 1439.19 -1.67902 3.81923 0
M  V30 15859 H 1437.82 -1.79376 2.68373 0
M  V30 15860 H 1436.87 0.360114 3.78692 0
M  V30 15861 H 1438.19 0.253328 4.98156 0
M  V30 15862 H 1437.34 -1.97854 5.73532 0
M  V30 15863 H 1436.08 -1.94934 4.47048 0
M  V30 15864 H 1435.08 0.114401 5.49681 0
M  V30 15865 H 1436.31 0.0666137 6.79067 0
M  V30 15866 H 1434.26 -2.10207 6.21409 0
M  V30 15867 H 1434.17 -0.943972 7.50083 0
M  V30 15868 H 1435.44 -2.13314 7.49745 0
M  V30 15869 N 1439.67 -1.53632 0.351409 0
M  V30 15870 C 1440.6 -2.2284 -0.536204 0
M  V30 15871 C 1441.61 -1.23765 -1.05764 0
M  V30 15872 O 1442.8 -1.50073 -0.966449 0
M  V30 15873 C 1439.9 -2.9013 -1.75151 0
M  V30 15874 C 1439.08 -4.15588 -1.36401 0
M  V30 15875 C 1438.14 -4.66217 -2.43984 0
M  V30 15876 O 1437.16 -5.3024 -2.06964 0
M  V30 15877 N 1438.36 -4.42817 -3.75358 0
M  V30 15878 H 1441.13 -2.99647 0.0565368 0
M  V30 15879 H 1438.69 -1.60942 0.175905 0
M  V30 15880 H 1440.68 -3.20913 -2.4657 0
M  V30 15881 H 1439.25 -2.16862 -2.25144 0
M  V30 15882 H 1438.47 -3.91264 -0.480258 0
M  V30 15883 H 1439.76 -4.97179 -1.08121 0
M  V30 15884 H 1439.16 -3.9163 -4.08218 0
M  V30 15885 H 1437.71 -4.78186 -4.42924 0
M  V30 15886 N 1441.15 -0.0802183 -1.57396 0
M  V30 15887 C 1442.1 0.894334 -2.09728 0
M  V30 15888 C 1443.08 1.25342 -1.00887 0
M  V30 15889 O 1444.27 1.23099 -1.27184 0
M  V30 15890 C 1441.4 2.15885 -2.66924 0
M  V30 15891 C 1440.49 1.82587 -3.82783 0
M  V30 15892 N 1440.88 1.19777 -4.91413 0
M  V30 15893 C 1439.18 2.12287 -3.92237 0
M  V30 15894 C 1439.88 1.04758 -5.72189 0
M  V30 15895 N 1438.85 1.56005 -5.20733 0
M  V30 15896 H 1442.66 0.404523 -2.91103 0
M  V30 15897 H 1440.17 0.123432 -1.6193 0
M  V30 15898 H 1442.17 2.8663 -3.02736 0
M  V30 15899 H 1440.83 2.65446 -1.86998 0
M  V30 15900 H 1441.84 0.866384 -5.10602 0
M  V30 15901 H 1438.52 2.64166 -3.23299 0
M  V30 15902 H 1439.91 0.55756 -6.69583 0
M  V30 15903 N 1442.63 1.56409 0.193394 0
M  V30 15904 C 1443.56 1.91211 1.26377 0
M  V30 15905 C 1444.57 0.802944 1.41622 0
M  V30 15906 O 1445.76 1.08136 1.42017 0
M  V30 15907 C 1442.86 2.13039 2.63567 0
M  V30 15908 C 1442.03 3.44192 2.69909 0
M  V30 15909 C 1441.09 3.55111 3.88307 0
M  V30 15910 O 1440.12 4.2792 3.75331 0
M  V30 15911 N 1441.32 2.88325 5.03834 0
M  V30 15912 H 1444.08 2.83624 0.968383 0
M  V30 15913 H 1441.65 1.57297 0.383302 0
M  V30 15914 H 1443.64 2.1763 3.41202 0
M  V30 15915 H 1442.21 1.27116 2.85588 0
M  V30 15916 H 1441.43 3.51452 1.78535 0
M  V30 15917 H 1442.72 4.30536 2.71139 0
M  V30 15918 H 1442.11 2.29003 5.17276 0
M  V30 15919 H 1440.67 2.98542 5.7941 0
M  V30 15920 N 1444.1 -0.461169 1.50702 0
M  V30 15921 C 1445.01 -1.58355 1.73092 0
M  V30 15922 C 1446.03 -1.62795 0.61431 0
M  V30 15923 O 1447.21 -1.8048 0.893806 0
M  V30 15924 C 1444.27 -2.94509 1.82936 0
M  V30 15925 C 1443.33 -3.00378 3.06711 0
M  V30 15926 C 1442.56 -4.30037 3.16076 0
M  V30 15927 O 1442.79 -5.21097 2.31978 0
M  V30 15928 O 1441.72 -4.41702 4.08881 0
M  V30 15929 H 1445.55 -1.42384 2.68255 0
M  V30 15930 H 1443.13 -0.641709 1.34916 0
M  V30 15931 H 1445.01 -3.75357 1.91534 0
M  V30 15932 H 1443.69 -3.10658 0.909581 0
M  V30 15933 H 1442.6 -2.18571 3.03608 0
M  V30 15934 H 1443.93 -2.89167 3.983 0
M  V30 15935 N 1445.58 -1.40446 -0.715026 0
M  V30 15936 C 1446.81 -1.4207 -1.50412 0
M  V30 15937 C 1447.22 -0.0205547 -1.88789 0
M  V30 15938 O 1446.58 0.955635 -1.55479 0
M  V30 15939 C 1446.63 -2.3119 -2.77909 0
M  V30 15940 O 1446.35 -3.65754 -2.41154 0
M  V30 15941 C 1447.85 -2.41412 -3.718 0
M  V30 15942 H 1445.07 -0.484554 -0.464164 0
M  V30 15943 H 1447.62 -1.84504 -0.881964 0
M  V30 15944 H 1445.77 -1.92117 -3.36407 0
M  V30 15945 H 1446.19 -4.13091 -3.23197 0
M  V30 15946 H 1447.66 -3.07976 -4.58099 0
M  V30 15947 H 1448.14 -1.43934 -4.14945 0
M  V30 15948 H 1448.74 -2.81039 -3.19213 0
M  V30 15949 N 1447.06 0.947303 -1.25952 0
M  V30 15950 C 1448.31 1.68721 -1.10527 0
M  V30 15951 C 1448.62 1.92403 0.352215 0
M  V30 15952 O 1449.83 2.6416 0.627036 0
M  V30 15953 C 1448.28 3.03785 -1.92983 0
M  V30 15954 C 1447.89 2.87873 -3.43268 0
M  V30 15955 C 1449.64 3.81509 -1.86149 0
M  V30 15956 C 1447.54 4.18373 -4.17993 0
M  V30 15957 H 1446.47 0.632774 -0.410016 0
M  V30 15958 H 1449.12 1.054 -1.5021 0
M  V30 15959 H 1447.51 3.68052 -1.46128 0
M  V30 15960 H 1448.68 2.32493 -3.97848 0
M  V30 15961 H 1446.99 2.23598 -3.51273 0
M  V30 15962 H 1449.59 4.78179 -2.39267 0
M  V30 15963 H 1449.93 4.07923 -0.83091 0
M  V30 15964 H 1450.47 3.24005 -2.30794 0
M  V30 15965 H 1447.21 3.97145 -5.21494 0
M  V30 15966 H 1446.73 4.7349 -3.68194 0
M  V30 15967 H 1448.41 4.86869 -4.26108 0
M  V30 15968 N 1448.54 1.07657 1.15099 0
M  V30 15969 C 1449.49 0.694043 2.22004 0
M  V30 15970 C 1450.48 -0.296607 1.66783 0
M  V30 15971 O 1451.69 -0.159989 1.79288 0
M  V30 15972 H 1448.06 0.206374 0.723128 0
M  V30 15973 H 1450.03 1.60523 2.51545 0
M  V30 15974 C 1448.78 0.111245 3.47522 0
M  V30 15975 H 1448.1 0.864677 3.90338 0
M  V30 15976 H 1449.54 -0.118705 4.23834 0
M  V30 15977 C 1448 -1.14889 3.16705 0
M  V30 15978 O 1448.53 -2.2349 3.33789 0
M  V30 15979 N 1446.74 -1.05627 2.70724 0
M  V30 15980 H 1446.29 -0.172463 2.57022 0
M  V30 15981 H 1446.24 -1.9002 2.50479 0
M  V30 15982 N 1450.02 -1.31994 0.861122 0
M  V30 15983 C 1451.24 -2.01211 0.481865 0
M  V30 15984 C 1451.66 -1.64687 -0.923233 0
M  V30 15985 O 1451.02 -0.87151 -1.60346 0
M  V30 15986 C 1451.07 -3.56162 0.618919 0
M  V30 15987 O 1450.79 -3.91376 1.96868 0
M  V30 15988 C 1452.29 -4.42652 0.239514 0
M  V30 15989 H 1449.51 -0.643922 0.188693 0
M  V30 15990 H 1452.05 -1.68427 1.15985 0
M  V30 15991 H 1450.21 -3.87398 -0.0114042 0
M  V30 15992 H 1450.62 -4.86095 1.97008 0
M  V30 15993 H 1452.1 -5.50646 0.386394 0
M  V30 15994 H 1452.57 -4.31466 -0.820598 0
M  V30 15995 H 1453.18 -4.16818 0.845175 0
M  V30 15996 N 1451.49 -0.619688 -1.44906 0
M  V30 15997 C 1452.42 0.0791121 -2.33366 0
M  V30 15998 C 1453.41 0.846503 -1.47541 0
M  V30 15999 O 1454.59 0.814657 -1.76287 0
M  V30 16000 C 1451.72 1.06901 -3.30438 0
M  V30 16001 C 1450.67 0.41403 -4.25993 0
M  V30 16002 C 1450 1.51303 -5.12846 0
M  V30 16003 C 1451.3 -0.672483 -5.17953 0
M  V30 16004 H 1452.99 -0.659551 -2.92045 0
M  V30 16005 H 1450.54 -0.318623 -1.40431 0
M  V30 16006 H 1452.49 1.56653 -3.912 0
M  V30 16007 H 1451.22 1.83842 -2.69944 0
M  V30 16008 H 1449.88 -0.0627315 -3.66546 0
M  V30 16009 H 1449.52 2.27303 -4.48712 0
M  V30 16010 H 1449.22 1.08022 -5.77586 0
M  V30 16011 H 1450.75 2.01258 -5.76479 0
M  V30 16012 H 1452.16 -0.258542 -5.72717 0
M  V30 16013 H 1450.56 -1.02776 -5.91234 0
M  V30 16014 H 1451.63 -1.54425 -4.59653 0
M  V30 16015 N 1452.97 1.53444 -0.359552 0
M  V30 16016 C 1453.92 2.25544 0.48977 0
M  V30 16017 C 1454.89 1.25982 1.08248 0
M  V30 16018 O 1456.07 1.54751 1.1161 0
M  V30 16019 C 1453.21 3.04358 1.62666 0
M  V30 16020 C 1452.33 4.18801 1.0597 0
M  V30 16021 C 1451.46 4.85069 2.1652 0
M  V30 16022 C 1450.5 5.91554 1.57259 0
M  V30 16023 N 1449.64 6.51537 2.61617 0
M  V30 16024 H 1454.48 2.97709 -0.13158 0
M  V30 16025 H 1452.02 1.469 -0.0767056 0
M  V30 16026 H 1453.97 3.48324 2.29623 0
M  V30 16027 H 1452.6 2.34459 2.21876 0
M  V30 16028 H 1451.66 3.79364 0.280599 0
M  V30 16029 H 1452.97 4.95341 0.586383 0
M  V30 16030 H 1452.12 5.32187 2.9131 0
M  V30 16031 H 1450.86 4.07988 2.67202 0
M  V30 16032 H 1449.87 5.43803 0.809818 0
M  V30 16033 H 1451.09 6.70552 1.07409 0
M  V30 16034 H 1449.04 5.77312 3.11523 0
M  V30 16035 H 1448.95 7.23599 2.18954 0
M  V30 16036 H 1450.22 7.03306 3.36127 0
M  V30 16037 N 1454.45 0.0885642 1.57351 0
M  V30 16038 C 1455.68 -0.588641 1.98871 0
M  V30 16039 C 1456.1 -1.61333 0.967125 0
M  V30 16040 O 1455.46 -1.81183 -0.0652149 0
M  V30 16041 C 1455.51 -1.21877 3.39379 0
M  V30 16042 O 1454.61 -2.33462 3.39955 0
M  V30 16043 H 1453.95 -0.149938 0.64685 0
M  V30 16044 H 1456.48 0.168043 2.03909 0
M  V30 16045 H 1456.49 -1.56163 3.76931 0
M  V30 16046 H 1455.17 -0.468037 4.13258 0
M  V30 16047 H 1453.74 -2.00844 3.14191 0
M  V30 16048 N 1455.93 -1.56509 -0.185096 0
M  V30 16049 C 1456.88 -1.95336 -1.22934 0
M  V30 16050 C 1457.85 -0.81532 -1.44713 0
M  V30 16051 O 1459.03 -1.07431 -1.57681 0
M  V30 16052 C 1456.17 -2.30671 -2.56681 0
M  V30 16053 C 1455.28 -3.57586 -2.42397 0
M  V30 16054 C 1454.42 -3.82197 -3.68916 0
M  V30 16055 C 1453.46 -5.02505 -3.49507 0
M  V30 16056 N 1452.59 -5.23319 -4.68062 0
M  V30 16057 H 1457.43 -2.84361 -0.89123 0
M  V30 16058 H 1454.97 -1.40715 -0.428689 0
M  V30 16059 H 1456.93 -2.49176 -3.34615 0
M  V30 16060 H 1455.56 -1.44773 -2.88514 0
M  V30 16061 H 1454.61 -3.47072 -1.55709 0
M  V30 16062 H 1455.92 -4.45677 -2.23994 0
M  V30 16063 H 1455.08 -4.00996 -4.55288 0
M  V30 16064 H 1453.82 -2.92455 -3.90284 0
M  V30 16065 H 1452.82 -4.83619 -2.6152 0
M  V30 16066 H 1454.05 -5.93765 -3.29574 0
M  V30 16067 H 1451.99 -4.36526 -4.89674 0
M  V30 16068 H 1451.91 -6.05608 -4.52521 0
M  V30 16069 H 1453.18 -5.46585 -5.55757 0
M  V30 16070 N 1457.41 0.45317 -1.50944 0
M  V30 16071 C 1458.66 1.20076 -1.62064 0
M  V30 16072 C 1458.97 1.92709 -0.335034 0
M  V30 16073 O 1460.17 2.69543 -0.32538 0
M  V30 16074 C 1458.63 2.18283 -2.86148 0
M  V30 16075 C 1458.24 1.5137 -4.21653 0
M  V30 16076 C 1459.98 2.93572 -3.0662 0
M  V30 16077 C 1457.89 2.47968 -5.36904 0
M  V30 16078 H 1456.82 0.451894 -0.603579 0
M  V30 16079 H 1459.47 0.46937 -1.77396 0
M  V30 16080 H 1457.85 2.94789 -2.64415 0
M  V30 16081 H 1459.03 0.805295 -4.53709 0
M  V30 16082 H 1457.34 0.882935 -4.06931 0
M  V30 16083 H 1459.94 3.65903 -3.89897 0
M  V30 16084 H 1460.28 3.54003 -2.1906 0
M  V30 16085 H 1460.81 2.24175 -3.28619 0
M  V30 16086 H 1457.55 1.92249 -6.26674 0
M  V30 16087 H 1457.07 3.16907 -5.09244 0
M  V30 16088 H 1458.75 3.09428 -5.6821 0
M  V30 16089 N 1458.88 1.40823 0.707568 0
M  V30 16090 C 1460.11 1.43061 1.50161 0
M  V30 16091 C 1460.53 0.0342144 1.88069 0
M  V30 16092 O 1459.89 -0.959674 1.53818 0
M  V30 16093 C 1459.94 2.33459 2.74826 0
M  V30 16094 O 1459.04 1.78336 3.71847 0
M  V30 16095 H 1458.39 0.48602 0.452417 0
M  V30 16096 H 1460.92 1.85147 0.870742 0
M  V30 16097 H 1460.93 2.48922 3.23267 0
M  V30 16098 H 1459.6 3.34927 2.46571 0
M  V30 16099 H 1458.18 1.7226 3.30728 0
M  V30 16100 N 1460.36 -0.94061 1.26453 0
M  V30 16101 C 1461.27 -2.07298 1.09839 0
M  V30 16102 C 1462.29 -1.73971 0.0317477 0
M  V30 16103 O 1463.46 -2.00017 0.235594 0
M  V30 16104 C 1460.53 -3.38847 0.733736 0
M  V30 16105 C 1459.59 -3.85954 1.87985 0
M  V30 16106 C 1458.82 -5.11224 1.5325 0
M  V30 16107 O 1459.05 -5.68743 0.434491 0
M  V30 16108 O 1457.98 -5.53386 2.36743 0
M  V30 16109 H 1461.81 -2.24222 2.04837 0
M  V30 16110 H 1459.39 -1.05763 1.0552 0
M  V30 16111 H 1461.27 -4.17885 0.543131 0
M  V30 16112 H 1459.95 -3.2316 -0.186843 0
M  V30 16113 H 1458.86 -3.07858 2.12542 0
M  V30 16114 H 1460.19 -4.06162 2.78017 0
M  V30 16115 N 1461.84 -1.08266 -1.14527 0
M  V30 16116 C 1462.75 -0.723043 -2.2318 0
M  V30 16117 C 1463.77 0.269819 -1.71895 0
M  V30 16118 O 1464.94 0.114126 -2.01076 0
M  V30 16119 C 1462.01 -0.136229 -3.46432 0
M  V30 16120 C 1461.07 -1.18352 -4.12664 0
M  V30 16121 C 1460.3 -0.624612 -5.30032 0
M  V30 16122 O 1460.52 0.556377 -5.6768 0
M  V30 16123 O 1459.46 -1.37397 -5.86008 0
M  V30 16124 H 1463.28 -1.6294 -2.56289 0
M  V30 16125 H 1460.87 -0.856235 -1.22429 0
M  V30 16126 H 1462.75 0.18829 -4.20979 0
M  V30 16127 H 1461.43 0.74331 -3.1505 0
M  V30 16128 H 1460.33 -1.56054 -3.39997 0
M  V30 16129 H 1461.67 -2.03528 -4.48148 0
M  V30 16130 N 1463.32 1.31536 -0.86811 0
M  V30 16131 C 1464.57 1.97066 -0.478829 0
M  V30 16132 C 1464.9 1.68469 0.966021 0
M  V30 16133 O 1464.17 0.980166 1.67997 0
M  V30 16134 C 1464.46 3.52533 -0.734313 0
M  V30 16135 C 1464.31 3.90711 -2.22856 0
M  V30 16136 C 1465.63 4.39647 -0.199559 0
M  V30 16137 H 1462.75 0.715813 -0.175444 0
M  V30 16138 H 1465.39 1.55694 -1.08901 0
M  V30 16139 H 1463.54 3.87905 -0.214962 0
M  V30 16140 H 1465.21 3.65451 -2.81502 0
M  V30 16141 H 1463.45 3.39385 -2.70185 0
M  V30 16142 H 1464.13 4.99103 -2.35797 0
M  V30 16143 H 1466.6 4.11088 -0.643853 0
M  V30 16144 H 1465.48 5.47383 -0.407783 0
M  V30 16145 H 1465.74 4.32875 0.898414 0
M  V30 16146 N 1464.8 0.627364 1.44575 0
M  V30 16147 C 1466.02 0.135576 2.06956 0
M  V30 16148 C 1466.45 -1.17922 1.46547 0
M  V30 16149 O 1465.81 -1.72255 0.565509 0
M  V30 16150 C 1465.85 0.030347 3.60587 0
M  V30 16151 O 1464.96 -1.01464 3.99724 0
M  V30 16152 H 1464.3 0.083058 0.658785 0
M  V30 16153 H 1466.83 0.862977 1.8551 0
M  V30 16154 H 1466.84 -0.161461 4.0768 0
M  V30 16155 H 1465.51 0.990285 4.03938 0
M  V30 16156 H 1464.09 -0.797701 3.64268 0
M  V30 16157 N 1466.28 -1.53251 0.367684 0
M  V30 16158 C 1467.69 -1.59591 0.0167132 0
M  V30 16159 C 1467.89 -1.38272 -1.46571 0
M  V30 16160 O 1466.95 -1.18893 -2.22757 0
M  V30 16161 C 1468.26 -2.96932 0.474534 0
M  V30 16162 C 1469.81 -3.10047 0.428934 0
M  V30 16163 C 1470.28 -4.49804 0.862599 0
M  V30 16164 N 1471.77 -4.55925 0.817742 0
M  V30 16165 C 1472.51 -5.62256 1.12496 0
M  V30 16166 N 1472.01 -6.76332 1.50156 0
M  V30 16167 N 1473.8 -5.52251 1.04762 0
M  V30 16168 H 1465.95 -1.6536 1.33303 0
M  V30 16169 H 1468.21 -0.775681 0.544998 0
M  V30 16170 H 1467.92 -3.17679 1.50907 0
M  V30 16171 H 1467.79 -3.76948 -0.137752 0
M  V30 16172 H 1470.18 -2.89009 -0.596473 0
M  V30 16173 H 1470.26 -2.32034 1.07674 0
M  V30 16174 H 1469.9 -4.7158 1.88613 0
M  V30 16175 H 1469.83 -5.2625 0.19202 0
M  V30 16176 H 1472.33 -3.74017 0.540323 0
M  V30 16177 H 1472.64 -7.53412 1.72019 0
M  V30 16178 H 1470.98 -6.77718 1.54024 0
M  V30 16179 H 1474.17 -4.62011 0.752571 0
M  V30 16180 H 1474.35 -6.35022 1.29038 0
M  V30 16181 N 1467.75 -0.0969077 -1.57302 0
M  V30 16182 C 1468.7 0.878876 -2.15357 0
M  V30 16183 C 1469.7 1.29091 -1.0969 0
M  V30 16184 O 1470.9 1.26523 -1.28031 0
M  V30 16185 H 1467.28 0.301458 -0.688932 0
M  V30 16186 H 1469.25 0.364542 -2.96165 0
M  V30 16187 C 1468 2.12761 -2.75006 0
M  V30 16188 H 1467.32 1.81944 -3.56 0
M  V30 16189 H 1468.76 2.79092 -3.19193 0
M  V30 16190 C 1467.22 2.90283 -1.70989 0
M  V30 16191 O 1467.75 3.84889 -1.14992 0
M  V30 16192 N 1465.95 2.53857 -1.41439 0
M  V30 16193 H 1465.5 1.76993 -1.87166 0
M  V30 16194 H 1465.46 3.06025 -0.720816 0
M  V30 16195 N 1469.23 1.56605 0.176793 0
M  V30 16196 C 1470.16 1.99014 1.2213 0
M  V30 16197 C 1471.14 0.86487 1.46472 0
M  V30 16198 O 1472.33 1.13055 1.57899 0
M  V30 16199 C 1469.46 2.34534 2.56146 0
M  V30 16200 C 1468.41 3.4997 2.46384 0
M  V30 16201 C 1467.74 3.71217 3.8484 0
M  V30 16202 C 1469.04 4.83592 1.97323 0
M  V30 16203 H 1470.73 2.86517 0.8688 0
M  V30 16204 H 1468.28 1.37846 0.416481 0
M  V30 16205 H 1470.23 2.62799 3.29416 0
M  V30 16206 H 1468.95 1.43933 2.93174 0
M  V30 16207 H 1467.61 3.21824 1.75569 0
M  V30 16208 H 1467.26 2.77916 4.19251 0
M  V30 16209 H 1466.96 4.48885 3.79178 0
M  V30 16210 H 1468.49 4.01877 4.59704 0
M  V30 16211 H 1469.9 5.10768 2.60363 0
M  V30 16212 H 1468.3 5.64858 2.02622 0
M  V30 16213 H 1469.37 4.75951 0.927275 0
M  V30 16214 N 1470.71 -0.445159 1.51182 0
M  V30 16215 C 1471.66 -1.53798 1.68316 0
M  V30 16216 C 1472.64 -1.51666 0.537244 0
M  V30 16217 O 1473.84 -1.58251 0.792818 0
M  V30 16218 C 1470.96 -2.92053 1.80444 0
M  V30 16219 C 1470.05 -2.98971 3.00794 0
M  V30 16220 N 1470.44 -2.75648 4.24089 0
M  V30 16221 C 1468.74 -3.30127 2.99887 0
M  V30 16222 C 1469.44 -2.88206 5.05284 0
M  V30 16223 N 1468.42 -3.19538 4.39769 0
M  V30 16224 H 1472.22 -1.34506 2.61315 0
M  V30 16225 H 1469.73 -0.652341 1.48722 0
M  V30 16226 H 1471.73 -3.70663 1.90827 0
M  V30 16227 H 1470.39 -3.12372 0.886204 0
M  V30 16228 H 1471.4 -2.50727 4.53163 0
M  V30 16229 H 1468.08 -3.5627 2.17665 0
M  V30 16230 H 1469.47 -2.74194 6.13406 0
M  V30 16231 N 1472.19 -1.41197 -0.700089 0
M  V30 16232 C 1473.12 -1.37101 -1.82424 0
M  V30 16233 C 1474.1 -0.238956 -1.60835 0
M  V30 16234 O 1475.28 -0.425136 -1.83643 0
M  V30 16235 C 1472.41 -1.13748 -3.19028 0
M  V30 16236 C 1471.46 -2.29612 -3.59417 0
M  V30 16237 S 1472.29 -3.92074 -3.64744 0
M  V30 16238 C 1473.44 -3.71015 -5.04082 0
M  V30 16239 H 1473.68 -2.32234 -1.8562 0
M  V30 16240 H 1471.21 -1.27667 -0.868367 0
M  V30 16241 H 1473.17 -1.0096 -3.97891 0
M  V30 16242 H 1471.83 -0.202435 -3.13447 0
M  V30 16243 H 1471.02 -2.08954 -4.58644 0
M  V30 16244 H 1470.62 -2.38783 -2.87851 0
M  V30 16245 H 1472.92 -3.30441 -5.91452 0
M  V30 16246 H 1473.86 -4.69828 -5.29781 0
M  V30 16247 H 1474.27 -3.04382 -4.75407 0
M  V30 16248 N 1473.67 0.933891 -1.2695 0
M  V30 16249 C 1474.58 2.06713 -1.10936 0
M  V30 16250 C 1475.59 1.73952 -0.0409734 0
M  V30 16251 O 1476.77 1.9989 -0.246199 0
M  V30 16252 C 1473.83 3.38453 -0.751696 0
M  V30 16253 C 1472.89 3.84951 -1.90029 0
M  V30 16254 C 1472.13 5.10404 -1.55959 0
M  V30 16255 O 1472.35 5.68504 -0.464646 0
M  V30 16256 O 1471.28 5.52123 -2.39675 0
M  V30 16257 H 1475.11 2.23133 -2.06023 0
M  V30 16258 H 1472.69 1.05202 -1.06079 0
M  V30 16259 H 1474.58 4.17591 -0.565285 0
M  V30 16260 H 1473.25 3.23255 0.169703 0
M  V30 16261 H 1472.16 3.06727 -2.14172 0
M  V30 16262 H 1473.49 4.04681 -2.80167 0
M  V30 16263 N 1475.14 1.08871 1.13951 0
M  V30 16264 C 1476.05 0.734869 2.22793 0
M  V30 16265 C 1477.07 -0.260699 1.72036 0
M  V30 16266 O 1478.25 -0.103461 2.01134 0
M  V30 16267 C 1475.31 0.154599 3.46355 0
M  V30 16268 C 1474.37 1.20539 4.1203 0
M  V30 16269 C 1473.6 0.652712 5.29694 0
M  V30 16270 O 1473.83 -0.526264 5.67967 0
M  V30 16271 O 1472.76 1.40503 5.85271 0
M  V30 16272 H 1476.59 1.64297 2.55422 0
M  V30 16273 H 1474.17 0.862716 1.21974 0
M  V30 16274 H 1476.05 -0.165962 4.21073 0
M  V30 16275 H 1474.73 -0.726592 3.1544 0
M  V30 16276 H 1473.64 1.57855 3.39164 0
M  V30 16277 H 1474.97 2.05902 4.47063 0
M  V30 16278 N 1476.62 -1.31073 0.875073 0
M  V30 16279 C 1477.57 -2.30335 0.3238 0
M  V30 16280 C 1478.56 -1.5974 -0.563869 0
M  V30 16281 O 1479.77 -1.743 -0.449402 0
M  V30 16282 H 1476.14 -0.747062 0.0860376 0
M  V30 16283 H 1478.12 -2.743 1.17483 0
M  V30 16284 C 1476.86 -3.44705 -0.455348 0
M  V30 16285 H 1476.19 -3.99203 0.218433 0
M  V30 16286 H 1477.63 -4.16262 -0.806329 0
M  V30 16287 C 1476.09 -2.93807 -1.6486 0
M  V30 16288 O 1476.62 -2.93004 -2.74794 0
M  V30 16289 N 1474.82 -2.49944 -1.48244 0
M  V30 16290 H 1474.37 -2.50797 -0.588116 0
M  V30 16291 H 1474.33 -2.16245 -2.28222 0
M  V30 16292 N 1478.1 -0.635022 -1.4424 0
M  V30 16293 C 1479.33 -0.14826 -2.06368 0
M  V30 16294 C 1479.74 1.17875 -1.47482 0
M  V30 16295 O 1479.1 1.72384 -0.599168 0
M  V30 16296 C 1479.15 -0.031519 -3.61486 0
M  V30 16297 O 1478.87 -1.30605 -4.18179 0
M  V30 16298 C 1480.37 0.483479 -4.40656 0
M  V30 16299 H 1477.59 -0.081472 -0.666036 0
M  V30 16300 H 1480.14 -0.870526 -1.85046 0
M  V30 16301 H 1478.29 0.641208 -3.82057 0
M  V30 16302 H 1478.71 -1.15341 -5.11661 0
M  V30 16303 H 1480.18 0.514164 -5.496 0
M  V30 16304 H 1480.66 1.51129 -4.12379 0
M  V30 16305 H 1481.26 -0.156131 -4.25013 0
M  V30 16306 N 1479.58 1.53054 -0.375806 0
M  V30 16307 C 1480.83 2.01003 0.210257 0
M  V30 16308 C 1481.15 1.26451 1.48442 0
M  V30 16309 O 1480.42 0.380687 1.92166 0
M  V30 16310 H 1479 0.74263 0.0806861 0
M  V30 16311 H 1481.66 1.8826 -0.504393 0
M  V30 16312 H 1480.76 3.09123 0.430027 0
M  V30 16313 N 1481.06 0.105248 1.57248 0
M  V30 16314 C 1481.97 -0.864007 2.1811 0
M  V30 16315 C 1482.98 -1.30282 1.15337 0
M  V30 16316 O 1484.16 -1.36864 1.4775 0
M  V30 16317 C 1481.22 -2.1014 2.75757 0
M  V30 16318 C 1480.28 -1.71583 3.9352 0
M  V30 16319 C 1479.52 -2.89424 4.48408 0
M  V30 16320 O 1479.74 -4.04449 4.02215 0
M  V30 16321 O 1478.67 -2.67303 5.39289 0
M  V30 16322 H 1482.5 -0.376131 3.01362 0
M  V30 16323 H 1480.09 -0.119643 1.4892 0
M  V30 16324 H 1481.97 -2.82638 3.1256 0
M  V30 16325 H 1480.64 -2.57961 1.95545 0
M  V30 16326 H 1479.55 -0.962347 3.6151 0
M  V30 16327 H 1480.88 -1.28517 4.75126 0
M  V30 16328 N 1482.53 -1.56697 -0.168486 0
M  V30 16329 C 1483.76 -1.86292 -0.900152 0
M  V30 16330 C 1484.18 -0.690968 -1.75702 0
M  V30 16331 O 1483.53 0.339855 -1.79308 0
M  V30 16332 C 1483.59 -3.14946 -1.77457 0
M  V30 16333 O 1483.31 -4.27625 -0.952267 0
M  V30 16334 C 1484.81 -3.57908 -2.61566 0
M  V30 16335 H 1482.03 -0.618003 -0.261369 0
M  V30 16336 H 1484.57 -2.03811 -0.16773 0
M  V30 16337 H 1482.73 -2.99246 -2.4603 0
M  V30 16338 H 1483.14 -5.01057 -1.55056 0
M  V30 16339 H 1484.61 -4.50823 -3.18532 0
M  V30 16340 H 1485.09 -2.82162 -3.36573 0
M  V30 16341 H 1485.7 -3.7623 -1.98321 0
M  V30 16342 N 1484.01 0.437135 -1.51416 0
M  V30 16343 C 1484.96 1.53061 -1.72745 0
M  V30 16344 C 1485.93 1.56045 -0.569149 0
M  V30 16345 O 1487.11 1.73052 -0.803602 0
M  V30 16346 C 1484.25 2.90774 -1.85861 0
M  V30 16347 C 1483.37 2.97318 -3.1341 0
M  V30 16348 C 1482.5 4.26156 -3.1712 0
M  V30 16349 C 1481.54 4.26568 -4.38983 0
M  V30 16350 N 1480.68 5.4693 -4.40241 0
M  V30 16351 H 1485.52 1.34177 -2.66084 0
M  V30 16352 H 1483.06 0.651803 -1.31871 0
M  V30 16353 H 1485.01 3.7068 -1.91447 0
M  V30 16354 H 1483.64 3.08216 -0.959306 0
M  V30 16355 H 1482.7 2.10074 -3.17132 0
M  V30 16356 H 1484.01 2.93485 -4.03321 0
M  V30 16357 H 1483.16 5.14435 -3.21623 0
M  V30 16358 H 1481.9 4.32646 -2.25098 0
M  V30 16359 H 1480.91 3.36681 -4.34656 0
M  V30 16360 H 1482.13 4.21741 -5.3227 0
M  V30 16361 H 1480.08 5.54141 -3.51089 0
M  V30 16362 H 1479.99 5.44977 -5.23962 0
M  V30 16363 H 1481.26 6.37241 -4.48937 0
M  V30 16364 N 1485.49 1.41566 0.692592 0
M  V30 16365 C 1486.77 1.31572 1.44735 0
M  V30 16366 C 1487.15 -0.0553081 2.11028 0
M  V30 16367 O 1486.5 -1.06974 2.01913 0
M  V30 16368 C 1486.71 2.47125 2.46435 0
M  V30 16369 C 1488.05 2.88427 3.11601 0
M  V30 16370 O 1489.08 2.46886 2.5676 0
M  V30 16371 O 1487.94 3.6027 4.10935 0
M  V30 16372 H 1485.03 0.517949 0.644715 0
M  V30 16373 H 1487.58 1.53536 0.722818 0
M  V30 16374 H 1486.35 3.38601 1.96124 0
M  V30 16375 H 1485.97 2.27054 3.26393 0
M  V30 16376 N 1486.97 -0.927146 1.27443 0
M  V30 16377 C 1487.88 -2.06122 1.12031 0
M  V30 16378 C 1488.89 -1.73928 0.0501979 0
M  V30 16379 O 1490.07 -1.99756 0.256796 0
M  V30 16380 C 1487.14 -3.3805 0.769634 0
M  V30 16381 C 1486.2 -3.83938 1.92068 0
M  V30 16382 C 1485.43 -5.0957 1.58664 0
M  V30 16383 O 1485.65 -5.6825 0.494789 0
M  V30 16384 O 1484.59 -5.50844 2.42599 0
M  V30 16385 H 1488.41 -2.22037 2.07203 0
M  V30 16386 H 1486 -1.04638 1.06636 0
M  V30 16387 H 1487.88 -4.17286 0.587423 0
M  V30 16388 H 1486.55 -3.2334 -0.152557 0
M  V30 16389 H 1485.46 -3.05587 2.15795 0
M  V30 16390 H 1486.79 -4.0319 2.8231 0
M  V30 16391 N 1488.45 -1.09474 -1.13372 0
M  V30 16392 C 1489.69 -0.831091 -1.84659 0
M  V30 16393 C 1490.02 0.643294 -1.83554 0
M  V30 16394 O 1489.28 1.48958 -1.26925 0
M  V30 16395 C 1489.58 -1.31208 -3.32444 0
M  V30 16396 C 1489.24 -2.79617 -3.5373 0
M  V30 16397 C 1487.9 -3.20147 -3.59248 0
M  V30 16398 C 1490.26 -3.75303 -3.61659 0
M  V30 16399 C 1487.58 -4.55135 -3.70228 0
M  V30 16400 C 1489.94 -5.1008 -3.74167 0
M  V30 16401 C 1488.6 -5.50199 -3.77938 0
M  V30 16402 H 1487.87 -0.304118 -0.675717 0
M  V30 16403 H 1490.52 -1.36961 -1.33843 0
M  V30 16404 H 1488.82 -0.693379 -3.85616 0
M  V30 16405 H 1490.52 -1.08469 -3.86051 0
M  V30 16406 H 1487.11 -2.47253 -3.50091 0
M  V30 16407 H 1491.29 -3.45103 -3.56676 0
M  V30 16408 H 1486.55 -4.85656 -3.71414 0
M  V30 16409 H 1490.72 -5.84077 -3.79245 0
M  V30 16410 H 1488.35 -6.54794 -3.86198 0
M  V30 16411 N 1489.92 1.30607 -0.882012 0
M  V30 16412 C 1490.86 2.27177 -0.303861 0
M  V30 16413 C 1491.87 1.53587 0.539898 0
M  V30 16414 O 1493.06 1.74833 0.359931 0
M  V30 16415 C 1490.16 3.33781 0.586828 0
M  V30 16416 C 1489.33 4.3681 -0.227197 0
M  V30 16417 C 1488.39 5.22842 0.593519 0
M  V30 16418 O 1487.42 5.69197 0.0172694 0
M  V30 16419 N 1488.62 5.48414 1.90321 0
M  V30 16420 H 1491.38 2.77426 -1.13378 0
M  V30 16421 H 1488.94 1.43756 -0.744698 0
M  V30 16422 H 1490.94 3.88257 1.14186 0
M  V30 16423 H 1489.51 2.83483 1.31743 0
M  V30 16424 H 1488.73 3.82239 -0.963674 0
M  V30 16425 H 1490.01 5.02703 -0.785315 0
M  V30 16426 H 1489.41 5.1253 2.39435 0
M  V30 16427 H 1487.97 6.05778 2.40575 0
M  V30 16428 N 1491.4 0.642663 1.43901 0
M  V30 16429 C 1492.33 -0.0938945 2.29008 0
M  V30 16430 C 1493.35 -0.797561 1.41925 0
M  V30 16431 O 1494.54 -0.65708 1.65966 0
M  V30 16432 C 1491.64 -1.15564 3.18588 0
M  V30 16433 C 1490.81 -0.532208 4.3415 0
M  V30 16434 C 1489.87 -1.48943 5.0468 0
M  V30 16435 O 1488.89 -1.00211 5.60309 0
M  V30 16436 N 1490.1 -2.82362 5.072 0
M  V30 16437 H 1492.86 0.636539 2.92862 0
M  V30 16438 H 1490.42 0.484665 1.54475 0
M  V30 16439 H 1492.41 -1.79658 3.62636 0
M  V30 16440 H 1490.98 -1.78816 2.56405 0
M  V30 16441 H 1490.2 0.287598 3.93149 0
M  V30 16442 H 1491.49 -0.0965526 5.08708 0
M  V30 16443 H 1490.89 -3.24524 4.63358 0
M  V30 16444 H 1489.45 -3.41786 5.55001 0
M  V30 16445 N 1492.88 -1.52852 0.383918 0
M  V30 16446 C 1493.83 -2.26294 -0.453826 0
M  V30 16447 C 1494.8 -1.27688 -1.0623 0
M  V30 16448 O 1495.98 -1.56507 -1.09134 0
M  V30 16449 C 1493.12 -3.06907 -1.57803 0
M  V30 16450 C 1492.24 -4.20434 -0.992943 0
M  V30 16451 C 1491.37 -4.88453 -2.08776 0
M  V30 16452 C 1490.41 -5.93981 -1.47828 0
M  V30 16453 N 1489.55 -6.55617 -2.51218 0
M  V30 16454 H 1494.39 -2.97462 0.178927 0
M  V30 16455 H 1491.92 -1.46759 0.100066 0
M  V30 16456 H 1493.88 -3.51933 -2.24052 0
M  V30 16457 H 1492.51 -2.37959 -2.18118 0
M  V30 16458 H 1491.56 -3.79762 -0.22021 0
M  V30 16459 H 1492.88 -4.96211 -0.507504 0
M  V30 16460 H 1492.03 -5.36755 -2.82806 0
M  V30 16461 H 1490.77 -4.12187 -2.60678 0
M  V30 16462 H 1489.77 -5.45023 -0.723202 0
M  V30 16463 H 1491 -6.72176 -0.967278 0
M  V30 16464 H 1488.95 -5.82195 -3.02299 0
M  V30 16465 H 1488.86 -7.26991 -2.07414 0
M  V30 16466 H 1490.13 -7.08564 -3.24895 0
M  V30 16467 N 1494.36 -0.113586 -1.5719 0
M  V30 16468 C 1495.29 0.875741 -2.10727 0
M  V30 16469 C 1496.27 1.2644 -1.02233 0
M  V30 16470 O 1497.45 1.36641 -1.29852 0
M  V30 16471 C 1494.58 2.17123 -2.59952 0
M  V30 16472 C 1493.63 1.93105 -3.8028 0
M  V30 16473 S 1494.46 1.15223 -5.22957 0
M  V30 16474 C 1495.62 2.45963 -5.75546 0
M  V30 16475 H 1495.85 0.420351 -2.94313 0
M  V30 16476 H 1493.38 0.100081 -1.54075 0
M  V30 16477 H 1495.34 2.91561 -2.88968 0
M  V30 16478 H 1494 2.59781 -1.76558 0
M  V30 16479 H 1493.19 2.89082 -4.12853 0
M  V30 16480 H 1492.8 1.2679 -3.51853 0
M  V30 16481 H 1495.09 3.41835 -5.8494 0
M  V30 16482 H 1496.03 2.17943 -6.73726 0
M  V30 16483 H 1496.44 2.55083 -5.0358 0
M  V30 16484 N 1495.84 1.56784 0.160173 0
M  V30 16485 C 1497.08 1.82891 0.876278 0
M  V30 16486 C 1497.42 0.693173 1.81408 0
M  V30 16487 O 1496.69 -0.304136 1.92107 0
M  V30 16488 C 1496.97 3.19439 1.66226 0
M  V30 16489 C 1496.83 4.43557 0.746831 0
M  V30 16490 C 1498.15 3.53053 2.62758 0
M  V30 16491 H 1495.27 0.665285 0.31712 0
M  V30 16492 H 1497.91 1.89469 0.142004 0
M  V30 16493 H 1496.06 3.13962 2.28823 0
M  V30 16494 H 1497.73 4.61109 0.132876 0
M  V30 16495 H 1495.97 4.33764 0.0555625 0
M  V30 16496 H 1496.64 5.35675 1.33253 0
M  V30 16497 H 1499.12 3.59054 2.10284 0
M  V30 16498 H 1498 4.4965 3.14811 0
M  V30 16499 H 1498.26 2.78329 3.4349 0
M  V30 16500 N 1497.32 -0.429099 1.51646 0
M  V30 16501 C 1498.56 -1.17551 1.64396 0
M  V30 16502 C 1498.88 -1.91526 0.366444 0
M  V30 16503 O 1498.15 -1.85896 -0.618013 0
M  V30 16504 H 1496.73 -0.436918 0.605898 0
M  V30 16505 H 1499.4 -0.491159 1.8861 0
M  V30 16506 H 1498.49 -1.90057 2.47557 0
M  V30 16507 N 1498.79 -1.41931 -0.685074 0
M  V30 16508 C 1500.04 -1.41147 -1.44085 0
M  V30 16509 C 1500.36 -0.0275793 -1.95581 0
M  V30 16510 O 1501.56 0.102873 -2.71305 0
M  V30 16511 C 1500.02 -2.4823 -2.60596 0
M  V30 16512 C 1499.63 -3.92576 -2.15842 0
M  V30 16513 C 1501.37 -2.56597 -3.38169 0
M  V30 16514 C 1499.28 -4.91189 -3.29374 0
M  V30 16515 H 1498.21 -0.52494 -0.541252 0
M  V30 16516 H 1500.86 -1.67798 -0.7427 0
M  V30 16517 H 1499.24 -2.14727 -3.32729 0
M  V30 16518 H 1500.41 -4.35381 -1.50929 0
M  V30 16519 H 1498.73 -3.87965 -1.51235 0
M  V30 16520 H 1501.33 -3.27453 -4.22704 0
M  V30 16521 H 1501.67 -1.60618 -3.84067 0
M  V30 16522 H 1502.2 -2.89244 -2.73099 0
M  V30 16523 H 1498.94 -5.88609 -2.88477 0
M  V30 16524 H 1498.46 -4.53024 -3.93102 0
M  V30 16525 H 1500.14 -5.12433 -3.94996 0
M  V30 16526 N 1500.27 0.920374 -1.27933 0
M  V30 16527 C 1501.55 1.64765 -1.05413 0
M  V30 16528 C 1501.93 2.07106 0.408717 0
M  V30 16529 O 1501.28 1.81094 1.39346 0
M  V30 16530 C 1501.49 2.84417 -2.02257 0
M  V30 16531 C 1502.83 3.5559 -2.32036 0
M  V30 16532 O 1503.86 2.94555 -2.00289 0
M  V30 16533 O 1502.72 4.65574 -2.86187 0
M  V30 16534 H 1499.81 0.722503 -0.402391 0
M  V30 16535 H 1502.36 0.970263 -1.39226 0
M  V30 16536 H 1501.13 2.50174 -3.0088 0
M  V30 16537 H 1500.75 3.59872 -1.6905 0
M  V30 16538 N 1501.75 1.10074 1.1279 0
M  V30 16539 C 1502.7 0.746173 2.18405 0
M  V30 16540 C 1503.67 -0.275751 1.63795 0
M  V30 16541 O 1504.85 -0.155876 1.90162 0
M  V30 16542 C 1501.99 0.180105 3.4463 0
M  V30 16543 C 1501.1 1.25688 4.13312 0
M  V30 16544 C 1500.24 0.652852 5.27173 0
M  V30 16545 C 1499.28 1.71046 5.87716 0
M  V30 16546 N 1498.42 1.12698 6.92996 0
M  V30 16547 H 1503.26 1.65105 2.48081 0
M  V30 16548 H 1500.79 0.824768 1.21803 0
M  V30 16549 H 1502.75 -0.165948 4.1687 0
M  V30 16550 H 1501.38 -0.688014 3.15383 0
M  V30 16551 H 1500.43 1.72011 3.39288 0
M  V30 16552 H 1501.74 2.05762 4.54382 0
M  V30 16553 H 1500.9 0.25603 6.0616 0
M  V30 16554 H 1499.64 -0.17937 4.8737 0
M  V30 16555 H 1498.64 2.11676 5.07418 0
M  V30 16556 H 1499.87 2.54547 6.29589 0
M  V30 16557 H 1497.81 0.316154 6.55238 0
M  V30 16558 H 1497.73 1.86461 7.32645 0
M  V30 16559 H 1499 0.756582 7.7582 0
M  V30 16560 N 1503.23 -1.30138 0.888926 0
M  V30 16561 C 1504.17 -2.28023 0.356923 0
M  V30 16562 C 1505.14 -1.56551 -0.555066 0
M  V30 16563 O 1506.33 -1.84595 -0.482633 0
M  V30 16564 C 1503.47 -3.42546 -0.419056 0
M  V30 16565 C 1502.58 -4.28827 0.5226 0
M  V30 16566 C 1501.72 -5.30517 -0.269366 0
M  V30 16567 C 1500.76 -6.08449 0.667507 0
M  V30 16568 N 1499.89 -7.02043 -0.08938 0
M  V30 16569 H 1504.73 -2.72912 1.19678 0
M  V30 16570 H 1502.27 -1.34239 0.60152 0
M  V30 16571 H 1504.23 -4.07707 -0.884911 0
M  V30 16572 H 1502.86 -2.98716 -1.22346 0
M  V30 16573 H 1501.91 -3.63938 1.10695 0
M  V30 16574 H 1503.22 -4.83136 1.24018 0
M  V30 16575 H 1502.38 -6.01444 -0.796901 0
M  V30 16576 H 1501.12 -4.76911 -1.02014 0
M  V30 16577 H 1500.12 -5.36396 1.20664 0
M  V30 16578 H 1501.35 -6.64143 1.41744 0
M  V30 16579 H 1499.29 -6.50822 -0.822622 0
M  V30 16580 H 1499.21 -7.53859 0.568499 0
M  V30 16581 H 1500.48 -7.77206 -0.597529 0
M  V30 16582 N 1504.71 -0.650285 -1.43559 0
M  V30 16583 C 1505.64 0.0817484 -2.29054 0
M  V30 16584 C 1506.65 0.790023 -1.42346 0
M  V30 16585 O 1507.84 0.648269 -1.66312 0
M  V30 16586 C 1504.94 1.13873 -3.19196 0
M  V30 16587 C 1504.11 0.509177 -4.34426 0
M  V30 16588 C 1503.17 1.46265 -5.05463 0
M  V30 16589 O 1502.2 0.972378 -5.60833 0
M  V30 16590 N 1503.4 2.79668 -5.08691 0
M  V30 16591 H 1506.16 -0.652062 -2.92521 0
M  V30 16592 H 1503.73 -0.49285 -1.54216 0
M  V30 16593 H 1505.72 1.77732 -3.63584 0
M  V30 16594 H 1504.29 1.77454 -2.5735 0
M  V30 16595 H 1503.51 -0.308444 -3.92991 0
M  V30 16596 H 1504.8 0.0695732 -5.08752 0
M  V30 16597 H 1504.19 3.22062 -4.65072 0
M  V30 16598 H 1502.75 3.38838 -5.56805 0
M  V30 16599 N 1506.18 1.52647 -0.392018 0
M  V30 16600 C 1507.46 1.94034 0.247004 0
M  V30 16601 C 1507.84 1.32767 1.64122 0
M  V30 16602 O 1507.19 0.496822 2.23033 0
M  V30 16603 C 1507.4 3.47949 0.270615 0
M  V30 16604 C 1508.75 4.21666 0.498256 0
M  V30 16605 O 1509.77 3.54469 0.350708 0
M  V30 16606 O 1508.63 5.40795 0.787586 0
M  V30 16607 H 1505.72 0.812487 0.154251 0
M  V30 16608 H 1508.27 1.63715 -0.446723 0
M  V30 16609 H 1507.04 3.84881 -0.705862 0
M  V30 16610 H 1506.66 3.8458 1.00915 0
M  V30 16611 N 1507.66 0.121921 1.57128 0
M  V30 16612 C 1508.59 -0.823788 2.18486 0
M  V30 16613 C 1509.57 -1.27519 1.12574 0
M  V30 16614 O 1510.76 -1.33727 1.40822 0
M  V30 16615 C 1507.89 -2.07284 2.78659 0
M  V30 16616 C 1506.84 -1.75912 3.90178 0
M  V30 16617 C 1506.17 -3.07871 4.37172 0
M  V30 16618 C 1507.47 -1.02517 5.1214 0
M  V30 16619 H 1509.16 -0.312488 2.97765 0
M  V30 16620 H 1506.71 -0.148862 1.43228 0
M  V30 16621 H 1508.66 -2.73903 3.20242 0
M  V30 16622 H 1507.39 -2.60743 1.96673 0
M  V30 16623 H 1506.04 -1.11681 3.49174 0
M  V30 16624 H 1505.69 -3.59271 3.52041 0
M  V30 16625 H 1505.39 -2.87653 5.12376 0
M  V30 16626 H 1506.92 -3.75604 4.81409 0
M  V30 16627 H 1508.33 -1.59295 5.50725 0
M  V30 16628 H 1506.73 -0.923836 5.92946 0
M  V30 16629 H 1507.8 -0.0124219 4.84898 0
M  V30 16630 N 1509.14 -1.56867 -0.151857 0
M  V30 16631 C 1510.05 -2.01157 -1.20718 0
M  V30 16632 C 1511.07 -0.926166 -1.47303 0
M  V30 16633 O 1512.24 -1.23528 -1.59069 0
M  V30 16634 C 1509.31 -2.37915 -2.52185 0
M  V30 16635 C 1508.37 -3.60381 -2.3329 0
M  V30 16636 C 1507.6 -3.95376 -3.58488 0
M  V30 16637 O 1507.82 -3.31093 -4.64471 0
M  V30 16638 O 1506.76 -4.88645 -3.5144 0
M  V30 16639 H 1510.58 -2.91234 -0.861175 0
M  V30 16640 H 1508.17 -1.44993 -0.360213 0
M  V30 16641 H 1510.05 -2.6244 -3.29702 0
M  V30 16642 H 1508.73 -1.50995 -2.86325 0
M  V30 16643 H 1507.63 -3.4105 -1.5374 0
M  V30 16644 H 1508.97 -4.47903 -2.04067 0
M  V30 16645 N 1510.62 0.421051 -1.51871 0
M  V30 16646 C 1511.58 1.49478 -1.73749 0
M  V30 16647 C 1512.58 1.48887 -0.607395 0
M  V30 16648 O 1513.77 1.50622 -0.875143 0
M  V30 16649 C 1510.9 2.88947 -1.80893 0
M  V30 16650 H 1512.1 1.31377 -2.69593 0
M  V30 16651 H 1509.65 0.650786 -1.42107 0
M  V30 16652 H 1510.38 3.12434 -0.86922 0
M  V30 16653 H 1510.17 2.90781 -2.63038 0
M  V30 16654 H 1511.66 3.66809 -1.99602 0
M  V30 16655 N 1512.1 1.42293 0.677538 0
M  V30 16656 C 1513.04 1.45556 1.79114 0
M  V30 16657 C 1514.01 0.307826 1.63223 0
M  V30 16658 O 1515.2 0.511504 1.83816 0
M  V30 16659 C 1512.34 1.36104 3.17127 0
M  V30 16660 C 1511.45 2.60891 3.44325 0
M  V30 16661 C 1510.59 2.43601 4.72051 0
M  V30 16662 C 1509.63 3.63775 4.92274 0
M  V30 16663 N 1508.76 3.45444 6.11239 0
M  V30 16664 H 1513.6 2.40723 1.7566 0
M  V30 16665 H 1511.14 1.19517 0.857565 0
M  V30 16666 H 1513.1 1.28622 3.96878 0
M  V30 16667 H 1511.73 0.445342 3.19713 0
M  V30 16668 H 1510.78 2.78751 2.58848 0
M  V30 16669 H 1512.09 3.50229 3.55163 0
M  V30 16670 H 1511.25 2.33689 5.59888 0
M  V30 16671 H 1509.98 1.51748 4.63491 0
M  V30 16672 H 1508.99 3.74122 4.0288 0
M  V30 16673 H 1510.21 4.56605 5.02681 0
M  V30 16674 H 1508.16 2.56306 6.03857 0
M  V30 16675 H 1508.08 4.28368 6.22926 0
M  V30 16676 H 1509.35 3.39339 7.01762 0
M  V30 16677 N 1513.57 -0.913576 1.28419 0
M  V30 16678 C 1514.52 -2.03739 1.1222 0
M  V30 16679 C 1515.52 -1.69349 0.0414309 0
M  V30 16680 O 1516.72 -1.78883 0.200213 0
M  V30 16681 H 1513.1 -0.667554 0.34623 0
M  V30 16682 H 1515.07 -2.14544 2.07397 0
M  V30 16683 C 1513.82 -3.38348 0.801003 0
M  V30 16684 H 1513.14 -3.65304 1.6246 0
M  V30 16685 H 1514.58 -4.1771 0.727611 0
M  V30 16686 C 1513.04 -3.3324 -0.495261 0
M  V30 16687 O 1513.57 -3.71606 -1.52551 0
M  V30 16688 N 1511.78 -2.86335 -0.496054 0
M  V30 16689 H 1511.32 -2.55309 0.342773 0
M  V30 16690 H 1511.28 -2.833 -1.3634 0
M  V30 16691 N 1515.05 -1.1067 -1.12204 0
M  V30 16692 C 1516.28 -0.872867 -1.87586 0
M  V30 16693 C 1516.7 0.57682 -1.79773 0
M  V30 16694 O 1516.05 1.39782 -1.17334 0
M  V30 16695 C 1516.1 -1.31572 -3.36706 0
M  V30 16696 O 1515.82 -2.70856 -3.44338 0
M  V30 16697 C 1517.33 -1.11613 -4.29019 0
M  V30 16698 H 1514.55 -0.313132 -0.593455 0
M  V30 16699 H 1517.09 -1.47199 -1.4196 0
M  V30 16700 H 1515.24 -0.760212 -3.79868 0
M  V30 16701 H 1515.66 -2.89854 -4.37132 0
M  V30 16702 H 1517.13 -1.4751 -5.31925 0
M  V30 16703 H 1517.61 -0.0549698 -4.39166 0
M  V30 16704 H 1518.22 -1.65822 -3.91642 0
M  V30 16705 N 1516.53 1.29665 -0.895815 0
M  V30 16706 C 1517.46 2.26842 -0.327939 0
M  V30 16707 C 1518.48 1.54151 0.523578 0
M  V30 16708 O 1519.66 1.75205 0.341367 0
M  V30 16709 C 1516.76 3.34384 0.551393 0
M  V30 16710 C 1515.94 4.36544 -0.273514 0
M  V30 16711 C 1515 5.23442 0.538031 0
M  V30 16712 O 1514.02 5.69184 -0.0431025 0
M  V30 16713 N 1515.22 5.50402 1.84493 0
M  V30 16714 H 1517.99 2.76208 -1.16315 0
M  V30 16715 H 1515.55 1.42958 -0.759903 0
M  V30 16716 H 1517.54 3.89446 1.10062 0
M  V30 16717 H 1516.11 2.84864 1.28728 0
M  V30 16718 H 1515.33 3.81196 -1.00416 0
M  V30 16719 H 1516.62 5.01842 -0.838589 0
M  V30 16720 H 1516.02 5.15041 2.33985 0
M  V30 16721 H 1514.58 6.08295 2.34137 0
M  V30 16722 N 1518.01 0.657889 1.43212 0
M  V30 16723 C 1519.24 0.181072 2.06106 0
M  V30 16724 C 1519.65 -1.15513 1.49339 0
M  V30 16725 O 1519.01 -1.71409 0.626517 0
M  V30 16726 C 1519.06 0.0890244 3.6139 0
M  V30 16727 O 1518.78 1.37241 4.16049 0
M  V30 16728 C 1520.28 -0.413313 4.41369 0
M  V30 16729 H 1517.5 0.0920577 0.664655 0
M  V30 16730 H 1520.05 0.899855 1.83638 0
M  V30 16731 H 1518.2 -0.580345 3.83028 0
M  V30 16732 H 1518.61 1.23467 5.09761 0
M  V30 16733 H 1520.09 -0.426663 5.50349 0
M  V30 16734 H 1520.57 -1.44549 4.14731 0
M  V30 16735 H 1521.17 0.223727 4.24711 0
M  V30 16736 N 1519.49 -1.52437 0.400108 0
M  V30 16737 C 1520.42 -2.29672 -0.421054 0
M  V30 16738 C 1521.4 -1.33506 -1.05405 0
M  V30 16739 O 1522.58 -1.62408 -1.06477 0
M  V30 16740 C 1519.71 -3.1115 -1.54281 0
M  V30 16741 C 1518.67 -4.1529 -1.0353 0
M  V30 16742 C 1517.99 -4.85058 -2.24996 0
M  V30 16743 C 1519.29 -5.22212 -0.0956529 0
M  V30 16744 H 1520.99 -2.98565 0.2234 0
M  V30 16745 H 1518.53 -1.43588 0.108883 0
M  V30 16746 H 1520.49 -3.63945 -2.12419 0
M  V30 16747 H 1519.21 -2.4001 -2.21501 0
M  V30 16748 H 1517.87 -3.63492 -0.476383 0
M  V30 16749 H 1517.52 -4.10455 -2.9075 0
M  V30 16750 H 1517.22 -5.55452 -1.91694 0
M  V30 16751 H 1518.74 -5.40661 -2.83756 0
M  V30 16752 H 1520.15 -5.70302 -0.585548 0
M  V30 16753 H 1518.55 -5.99917 0.148121 0
M  V30 16754 H 1519.62 -4.77351 0.852296 0
M  V30 16755 N 1520.96 -0.130252 -1.57061 0
M  V30 16756 C 1522.19 0.532416 -1.99932 0
M  V30 16757 C 1522.61 1.59505 -1.01013 0
M  V30 16758 O 1521.96 1.82499 -0.00463158 0
M  V30 16759 C 1522.02 1.14833 -3.42776 0
M  V30 16760 O 1521.74 0.128163 -4.37912 0
M  V30 16761 C 1523.24 1.89324 -4.00838 0
M  V30 16762 H 1520.46 0.140046 -0.656223 0
M  V30 16763 H 1523 -0.219905 -2.03314 0
M  V30 16764 H 1521.16 1.85137 -3.40298 0
M  V30 16765 H 1521.57 0.577135 -5.21315 0
M  V30 16766 H 1523.04 2.27731 -5.02835 0
M  V30 16767 H 1523.52 2.77277 -3.40608 0
M  V30 16768 H 1524.13 1.23757 -4.06896 0
M  V30 16769 N 1522.44 1.56945 0.143535 0
M  V30 16770 C 1523.41 1.97616 1.16106 0
M  V30 16771 C 1524.41 0.863113 1.35672 0
M  V30 16772 O 1525.6 1.12966 1.32606 0
M  V30 16773 C 1522.73 2.29511 2.52067 0
M  V30 16774 H 1523.92 2.88696 0.812066 0
M  V30 16775 H 1521.47 1.51433 0.386999 0
M  V30 16776 H 1522.21 1.41233 2.91931 0
M  V30 16777 H 1521.99 3.10667 2.39225 0
M  V30 16778 H 1523.48 2.61802 3.25345 0
M  V30 16779 N 1523.92 -0.412991 1.52093 0
M  V30 16780 C 1525.2 -1.17304 1.56522 0
M  V30 16781 C 1525.58 -2.0828 0.343926 0
M  V30 16782 O 1524.93 -2.18473 -0.669475 0
M  V30 16783 C 1525.14 -1.95371 2.89191 0
M  V30 16784 C 1526.48 -2.51571 3.42048 0
M  V30 16785 O 1527.51 -2.05555 2.90905 0
M  V30 16786 O 1526.37 -3.35563 4.31347 0
M  V30 16787 H 1523.46 -0.535386 0.63031 0
M  V30 16788 H 1526.01 -0.420084 1.64418 0
M  V30 16789 H 1524.78 -1.28701 3.69529 0
M  V30 16790 H 1524.4 -2.7768 2.84569 0
M  V30 16791 N 1525.4 -1.4265 -0.669982 0
M  V30 16792 C 1526.65 -1.43589 -1.43213 0
M  V30 16793 C 1526.98 -0.0537998 -1.94125 0
M  V30 16794 O 1526.25 0.922727 -1.71219 0
M  V30 16795 C 1526.54 -2.46433 -2.62569 0
M  V30 16796 C 1526.39 -3.93851 -2.17258 0
M  V30 16797 C 1527.71 -2.46208 -3.64787 0
M  V30 16798 H 1524.83 -0.522859 -0.519411 0
M  V30 16799 H 1527.47 -1.74094 -0.760997 0
M  V30 16800 H 1525.62 -2.20551 -3.19828 0
M  V30 16801 H 1527.29 -4.30732 -1.6513 0
M  V30 16802 H 1525.53 -4.07487 -1.48786 0
M  V30 16803 H 1526.21 -4.61398 -3.03012 0
M  V30 16804 H 1528.68 -2.69237 -3.17255 0
M  V30 16805 H 1527.56 -3.20138 -4.45873 0
M  V30 16806 H 1527.82 -1.48979 -4.16242 0
M  V30 16807 N 1526.88 0.906753 -1.28902 0
M  V30 16808 C 1527.82 2.01004 -1.13429 0
M  V30 16809 C 1528.79 1.66074 -0.0295031 0
M  V30 16810 O 1529.98 1.89793 -0.195727 0
M  V30 16811 C 1527.12 3.35473 -0.809457 0
M  V30 16812 C 1526.23 3.83229 -1.99398 0
M  V30 16813 C 1525.37 5.06241 -1.60915 0
M  V30 16814 C 1524.41 5.46348 -2.7599 0
M  V30 16815 N 1523.54 6.60548 -2.37952 0
M  V30 16816 H 1528.38 2.13571 -2.07825 0
M  V30 16817 H 1525.92 1.046 -1.03428 0
M  V30 16818 H 1527.88 4.12836 -0.601845 0
M  V30 16819 H 1526.51 3.22652 0.0975896 0
M  V30 16820 H 1525.56 3.01962 -2.31351 0
M  V30 16821 H 1526.87 4.08908 -2.85649 0
M  V30 16822 H 1526.03 5.91168 -1.36401 0
M  V30 16823 H 1524.77 4.82385 -0.718021 0
M  V30 16824 H 1523.77 4.59959 -3.01195 0
M  V30 16825 H 1525 5.72188 -3.65757 0
M  V30 16826 H 1522.94 6.38309 -1.51318 0
M  V30 16827 H 1522.86 6.85987 -3.17738 0
M  V30 16828 H 1524.13 7.48762 -2.1674 0
M  V30 16829 N 1528.36 1.11264 1.11616 0
M  V30 16830 C 1529.63 0.772174 1.79713 0
M  V30 16831 C 1530.01 -0.740055 1.97703 0
M  V30 16832 O 1529.36 -1.66939 1.56024 0
M  V30 16833 C 1529.57 1.53316 3.13521 0
M  V30 16834 C 1530.92 1.71124 3.88589 0
M  V30 16835 O 1531.94 1.49725 3.23204 0
M  V30 16836 O 1530.8 2.0667 5.05915 0
M  V30 16837 H 1527.9 0.279548 0.77832 0
M  V30 16838 H 1530.44 1.21596 1.18375 0
M  V30 16839 H 1529.21 2.56194 2.95771 0
M  V30 16840 H 1528.84 1.08281 3.82572 0
M  V30 16841 N 1529.83 -1.29188 0.902679 0
M  V30 16842 C 1530.78 -2.29597 0.372585 0
M  V30 16843 C 1531.78 -1.609 -0.529858 0
M  V30 16844 O 1532.98 -1.75214 -0.41233 0
M  V30 16845 H 1529.36 -0.745069 0.101864 0
M  V30 16846 H 1531.33 -2.71746 1.23275 0
M  V30 16847 C 1530.08 -3.45594 -0.382128 0
M  V30 16848 H 1529.4 -3.9865 0.303061 0
M  V30 16849 H 1530.84 -4.17879 -0.717852 0
M  V30 16850 C 1529.3 -2.97238 -1.58591 0
M  V30 16851 O 1529.83 -2.98767 -2.68517 0
M  V30 16852 N 1528.03 -2.53032 -1.42909 0
M  V30 16853 H 1527.58 -2.51988 -0.534786 0
M  V30 16854 H 1527.54 -2.21038 -2.23584 0
M  V30 16855 N 1531.31 -0.665475 -1.42861 0
M  V30 16856 C 1532.22 0.018927 -2.34592 0
M  V30 16857 C 1533.24 0.798967 -1.54572 0
M  V30 16858 O 1534.41 0.743419 -1.87177 0
M  V30 16859 C 1531.48 0.965013 -3.32999 0
M  V30 16860 C 1530.54 0.180544 -4.2892 0
M  V30 16861 C 1529.77 1.08157 -5.22626 0
M  V30 16862 O 1530 2.32101 -5.21043 0
M  V30 16863 O 1528.93 0.54738 -5.99406 0
M  V30 16864 H 1532.76 -0.736444 -2.94636 0
M  V30 16865 H 1530.34 -0.425684 -1.43207 0
M  V30 16866 H 1532.22 1.50839 -3.93479 0
M  V30 16867 H 1530.9 1.7004 -2.75442 0
M  V30 16868 H 1529.8 -0.40671 -3.71883 0
M  V30 16869 H 1531.14 -0.515529 -4.89493 0
M  V30 16870 N 1532.79 1.52222 -0.408187 0
M  V30 16871 C 1534.04 2.00989 0.169252 0
M  V30 16872 C 1534.35 1.29824 1.46305 0
M  V30 16873 O 1535.56 1.69402 2.12168 0
M  V30 16874 C 1534.01 3.58173 0.352179 0
M  V30 16875 C 1533.62 4.38252 -0.929468 0
M  V30 16876 C 1535.37 4.15173 0.88496 0
M  V30 16877 C 1533.27 5.87077 -0.713781 0
M  V30 16878 H 1532.2 0.751015 0.0670261 0
M  V30 16879 H 1534.85 1.75574 -0.533487 0
M  V30 16880 H 1533.24 3.79913 1.11723 0
M  V30 16881 H 1534.41 4.28272 -1.70059 0
M  V30 16882 H 1532.72 3.92565 -1.38859 0
M  V30 16883 H 1535.32 5.2404 1.06235 0
M  V30 16884 H 1535.66 3.72468 1.85938 0
M  V30 16885 H 1536.2 3.97397 0.178995 0
M  V30 16886 H 1532.94 6.3414 -1.65974 0
M  V30 16887 H 1532.46 5.99797 0.0180631 0
M  V30 16888 H 1534.14 6.46022 -0.355596 0
M  V30 16889 N 1534.27 0.138579 1.5699 0
M  V30 16890 C 1535.52 -0.514545 1.95026 0
M  V30 16891 C 1535.83 -1.66565 1.02544 0
M  V30 16892 O 1537.04 -2.38284 1.30126 0
M  V30 16893 C 1535.49 -0.966746 3.46673 0
M  V30 16894 C 1535.1 0.156969 4.47725 0
M  V30 16895 C 1536.84 -1.59014 3.93592 0
M  V30 16896 C 1534.75 -0.313031 5.90571 0
M  V30 16897 H 1533.68 -0.195991 0.728082 0
M  V30 16898 H 1536.33 0.221575 1.82157 0
M  V30 16899 H 1534.71 -1.75788 3.54845 0
M  V30 16900 H 1535.89 0.933728 4.51241 0
M  V30 16901 H 1534.2 0.688238 4.10673 0
M  V30 16902 H 1536.8 -1.95326 4.97747 0
M  V30 16903 H 1537.14 -2.47595 3.34668 0
M  V30 16904 H 1537.68 -0.864061 3.88302 0
M  V30 16905 H 1534.41 0.5372 6.53295 0
M  V30 16906 H 1533.93 -1.05585 5.90434 0
M  V30 16907 H 1535.61 -0.767826 6.42428 0
M  V30 16908 N 1535.75 -1.57019 -0.13521 0
M  V30 16909 C 1536.66 -2.02427 -1.18578 0
M  V30 16910 C 1537.67 -0.941738 -1.46312 0
M  V30 16911 O 1538.85 -1.25208 -1.57749 0
M  V30 16912 C 1535.91 -2.40577 -2.49647 0
M  V30 16913 C 1534.97 -3.62835 -2.29455 0
M  V30 16914 C 1534.21 -3.99156 -3.54274 0
M  V30 16915 O 1534.43 -3.36001 -4.60933 0
M  V30 16916 O 1533.36 -4.92345 -3.46238 0
M  V30 16917 H 1537.19 -2.92131 -0.830237 0
M  V30 16918 H 1534.77 -1.45366 -0.344814 0
M  V30 16919 H 1536.66 -2.65922 -3.269 0
M  V30 16920 H 1535.33 -1.54023 -2.84708 0
M  V30 16921 H 1534.24 -3.42661 -1.50114 0
M  V30 16922 H 1535.57 -4.50043 -1.99305 0
M  V30 16923 N 1537.22 0.404919 -1.52309 0
M  V30 16924 C 1538.16 1.51276 -1.72186 0
M  V30 16925 C 1539.17 1.5125 -0.602276 0
M  V30 16926 O 1540.36 1.55439 -0.877549 0
M  V30 16927 C 1537.46 2.90162 -1.75099 0
M  V30 16928 C 1536.63 3.14333 -3.04161 0
M  V30 16929 C 1535.69 4.33113 -2.9883 0
M  V30 16930 O 1534.72 4.30189 -3.72728 0
M  V30 16931 N 1535.92 5.38451 -2.16911 0
M  V30 16932 H 1538.68 1.34618 -2.67765 0
M  V30 16933 H 1536.24 0.594264 -1.50599 0
M  V30 16934 H 1538.24 3.67697 -1.69058 0
M  V30 16935 H 1536.81 3.00257 -0.869756 0
M  V30 16936 H 1536.03 2.24803 -3.23817 0
M  V30 16937 H 1537.31 3.27327 -3.89531 0
M  V30 16938 H 1536.71 5.43676 -1.56309 0
M  V30 16939 H 1535.27 6.14715 -2.16724 0
M  V30 16940 N 1538.7 1.43003 0.662408 0
M  V30 16941 C 1539.63 1.43407 1.78793 0
M  V30 16942 C 1540.65 0.331423 1.59391 0
M  V30 16943 O 1541.84 0.595291 1.68281 0
M  V30 16944 C 1538.94 1.22239 3.16087 0
M  V30 16945 C 1538.11 2.4517 3.6223 0
M  V30 16946 C 1537.17 2.19362 4.78296 0
M  V30 16947 O 1536.19 2.92651 4.88205 0
M  V30 16948 N 1537.4 1.20449 5.67866 0
M  V30 16949 H 1540.16 2.40426 1.78928 0
M  V30 16950 H 1537.72 1.38042 0.845936 0
M  V30 16951 H 1539.71 1.02871 3.91407 0
M  V30 16952 H 1538.28 0.336983 3.10778 0
M  V30 16953 H 1537.5 2.80024 2.77453 0
M  V30 16954 H 1538.79 3.27003 3.89803 0
M  V30 16955 H 1538.19 0.598577 5.62524 0
M  V30 16956 H 1536.75 1.07066 6.42946 0
M  V30 16957 N 1540.18 -0.899904 1.29381 0
M  V30 16958 C 1541.6 -1.18067 1.07388 0
M  V30 16959 C 1541.8 -2.00739 -0.174951 0
M  V30 16960 O 1540.85 -2.36937 -0.872771 0
M  V30 16961 C 1542.17 -1.90182 2.32919 0
M  V30 16962 C 1543.71 -2.03009 2.38236 0
M  V30 16963 C 1544.19 -2.78533 3.6357 0
M  V30 16964 N 1545.68 -2.86088 3.64291 0
M  V30 16965 C 1546.41 -3.45062 4.57952 0
M  V30 16966 N 1545.91 -4.05204 5.61945 0
M  V30 16967 N 1547.7 -3.42734 4.45522 0
M  V30 16968 H 1539.85 -0.348306 2.09525 0
M  V30 16969 H 1542.12 -0.216796 0.922878 0
M  V30 16970 H 1541.82 -1.36871 3.23974 0
M  V30 16971 H 1541.7 -2.90658 2.40412 0
M  V30 16972 H 1544.08 -2.55495 1.47669 0
M  V30 16973 H 1544.17 -1.01666 2.34729 0
M  V30 16974 H 1543.81 -2.26723 4.54488 0
M  V30 16975 H 1543.74 -3.8022 3.64335 0
M  V30 16976 H 1546.23 -2.43372 2.891 0
M  V30 16977 H 1546.54 -4.48225 6.29535 0
M  V30 16978 H 1544.89 -4.03667 5.65755 0
M  V30 16979 H 1548.08 -2.94967 3.63472 0
M  V30 16980 H 1548.25 -3.884 5.187 0
M  V30 16981 N 1541.66 -1.11854 -1.11024 0
M  V30 16982 C 1542.61 -0.780825 -2.17191 0
M  V30 16983 C 1543.58 0.249657 -1.64213 0
M  V30 16984 O 1544.76 0.125603 -1.90386 0
M  V30 16985 C 1541.9 -0.23491 -3.443 0
M  V30 16986 C 1541.01 -1.32247 -4.1126 0
M  V30 16987 C 1540.15 -0.736638 -5.26068 0
M  V30 16988 C 1539.19 -1.80375 -5.8492 0
M  V30 16989 N 1538.32 -1.23709 -6.91115 0
M  V30 16990 H 1543.16 -1.69031 -2.45423 0
M  V30 16991 H 1540.7 -0.844041 -1.20476 0
M  V30 16992 H 1542.66 0.0996064 -4.17081 0
M  V30 16993 H 1541.29 0.637752 -3.16437 0
M  V30 16994 H 1540.34 -1.77387 -3.36509 0
M  V30 16995 H 1541.65 -2.12965 -4.51051 0
M  V30 16996 H 1540.81 -0.352432 -6.05675 0
M  V30 16997 H 1539.55 0.101811 -4.87594 0
M  V30 16998 H 1538.55 -2.19721 -5.03987 0
M  V30 16999 H 1539.78 -2.64531 -6.2546 0
M  V30 17000 H 1537.72 -0.420357 -6.54652 0
M  V30 17001 H 1537.64 -1.98093 -7.29586 0
M  V30 17002 H 1538.91 -0.879912 -7.74518 0
M  V30 17003 N 1543.14 1.28707 -0.909517 0
M  V30 17004 C 1544.39 1.94437 -0.536401 0
M  V30 17005 C 1544.7 1.72416 0.923685 0
M  V30 17006 O 1545.9 2.32333 1.40477 0
M  V30 17007 C 1544.36 3.48246 -0.908455 0
M  V30 17008 C 1543.97 3.79051 -2.38798 0
M  V30 17009 C 1545.71 4.20156 -0.605721 0
M  V30 17010 C 1543.62 5.2615 -2.70038 0
M  V30 17011 H 1542.55 0.727842 -0.196882 0
M  V30 17012 H 1545.2 1.46283 -1.10786 0
M  V30 17013 H 1543.58 3.95107 -0.265829 0
M  V30 17014 H 1544.76 3.43014 -3.07698 0
M  V30 17015 H 1543.07 3.20303 -2.66074 0
M  V30 17016 H 1545.67 5.28439 -0.815849 0
M  V30 17017 H 1546.01 4.13792 0.456266 0
M  V30 17018 H 1546.54 3.79059 -1.20662 0
M  V30 17019 H 1543.28 5.37587 -3.75073 0
M  V30 17020 H 1542.8 5.63399 -2.05771 0
M  V30 17021 H 1544.48 5.93846 -2.56819 0
M  V30 17022 N 1544.61 0.673042 1.42506 0
M  V30 17023 C 1545.86 0.194576 2.01563 0
M  V30 17024 C 1546.19 -1.19829 1.53203 0
M  V30 17025 O 1545.44 -1.8181 0.724131 0
M  V30 17026 C 1545.74 0.175896 3.56967 0
M  V30 17027 C 1545.41 1.51319 4.24751 0
M  V30 17028 C 1544.07 1.87936 4.42983 0
M  V30 17029 C 1546.42 2.394 4.62965 0
M  V30 17030 C 1543.75 3.12261 4.96699 0
M  V30 17031 C 1546.1 3.63036 5.18061 0
M  V30 17032 C 1544.77 3.99824 5.34506 0
M  V30 17033 H 1544.04 0.0712004 0.737571 0
M  V30 17034 H 1546.68 0.867679 1.70715 0
M  V30 17035 H 1544.99 -0.580712 3.87473 0
M  V30 17036 H 1546.69 -0.211488 4.00442 0
M  V30 17037 H 1543.28 1.21834 4.10919 0
M  V30 17038 H 1547.46 2.12397 4.48555 0
M  V30 17039 H 1542.72 3.40787 5.07617 0
M  V30 17040 H 1546.89 4.31491 5.46616 0
M  V30 17041 H 1544.52 4.96236 5.75894 0
M  V30 17042 N 1546.09 -1.52004 0.416254 0
M  V30 17043 C 1547.32 -2.0679 -0.158937 0
M  V30 17044 C 1547.74 -1.28366 -1.37491 0
M  V30 17045 O 1547.1 -0.315815 -1.78528 0
M  V30 17046 C 1547.15 -3.57381 -0.480717 0
M  V30 17047 O 1546.25 -3.81321 -1.5706 0
M  V30 17048 H 1545.59 -0.663907 -0.0110938 0
M  V30 17049 H 1548.12 -1.95863 0.591509 0
M  V30 17050 H 1548.13 -4.01283 -0.737297 0
M  V30 17051 H 1546.81 -4.13893 0.408137 0
M  V30 17052 H 1545.39 -3.49296 -1.30563 0
M  V30 17053 N 1547.57 -0.146903 -1.56914 0
M  V30 17054 C 1548.5 0.788924 -2.19769 0
M  V30 17055 C 1549.48 1.25712 -1.14589 0
M  V30 17056 O 1550.67 1.3147 -1.42931 0
M  V30 17057 C 1547.8 2.02824 -2.81921 0
M  V30 17058 C 1546.75 1.69683 -3.92927 0
M  V30 17059 C 1546.08 3.00877 -4.42015 0
M  V30 17060 C 1547.38 0.943559 -5.13706 0
M  V30 17061 H 1549.07 0.265076 -2.98224 0
M  V30 17062 H 1546.62 0.126057 -1.43447 0
M  V30 17063 H 1548.57 2.68773 -3.2456 0
M  V30 17064 H 1547.29 2.57581 -2.00797 0
M  V30 17065 H 1545.95 1.06112 -3.50907 0
M  V30 17066 H 1545.6 3.53625 -3.57713 0
M  V30 17067 H 1545.3 2.79466 -5.16888 0
M  V30 17068 H 1546.82 3.67897 -4.87323 0
M  V30 17069 H 1548.24 1.50513 -5.5319 0
M  V30 17070 H 1546.64 0.829387 -5.94341 0
M  V30 17071 H 1547.71 -0.0647228 -4.84857 0
M  V30 17072 N 1549.05 1.57088 0.126881 0
M  V30 17073 C 1550.3 1.83624 0.834582 0
M  V30 17074 C 1550.61 0.731331 1.81414 0
M  V30 17075 O 1551.82 0.88286 2.56745 0
M  V30 17076 C 1550.27 3.25529 1.5349 0
M  V30 17077 C 1549.88 4.44008 0.59673 0
M  V30 17078 C 1551.62 3.6132 2.22819 0
M  V30 17079 C 1549.53 5.76939 1.29982 0
M  V30 17080 H 1548.46 0.684858 0.315414 0
M  V30 17081 H 1551.11 1.83292 0.087305 0
M  V30 17082 H 1549.49 3.20306 2.32852 0
M  V30 17083 H 1550.67 4.60511 -0.163109 0
M  V30 17084 H 1548.98 4.16399 0.0108081 0
M  V30 17085 H 1551.58 4.57902 2.76098 0
M  V30 17086 H 1551.92 2.88363 3.00254 0
M  V30 17087 H 1552.46 3.68291 1.50354 0
M  V30 17088 H 1549.2 6.53044 0.566925 0
M  V30 17089 H 1548.72 5.64336 2.03187 0
M  V30 17090 H 1550.39 6.20427 1.8352 0
M  V30 17091 N 1550.53 -0.396836 1.52522 0
M  V30 17092 C 1551.46 -1.50361 1.72986 0
M  V30 17093 C 1552.47 -1.50928 0.610289 0
M  V30 17094 O 1553.66 -1.54972 0.88578 0
M  V30 17095 C 1550.76 -2.89229 1.76635 0
M  V30 17096 C 1549.93 -3.12715 3.05824 0
M  V30 17097 C 1548.99 -4.31523 3.01122 0
M  V30 17098 O 1548.02 -4.28207 3.75004 0
M  V30 17099 N 1549.22 -5.37294 2.19763 0
M  V30 17100 H 1551.99 -1.33196 2.68475 0
M  V30 17101 H 1549.55 -0.586269 1.50912 0
M  V30 17102 H 1551.54 -3.66796 1.71006 0
M  V30 17103 H 1550.11 -2.99791 0.885667 0
M  V30 17104 H 1549.33 -2.23083 3.25004 0
M  V30 17105 H 1550.62 -3.25257 3.91261 0
M  V30 17106 H 1550.01 -5.4284 1.5919 0
M  V30 17107 H 1548.57 -6.13557 2.19981 0
M  V30 17108 N 1552.01 -1.43353 -0.654814 0
M  V30 17109 C 1552.92 -1.50831 -1.79687 0
M  V30 17110 C 1553.93 -0.395518 -1.69445 0
M  V30 17111 O 1555.11 -0.649408 -1.90643 0
M  V30 17112 C 1552.17 -1.42735 -3.15955 0
M  V30 17113 C 1551.23 -2.64671 -3.38005 0
M  V30 17114 C 1550.47 -2.56952 -4.67773 0
M  V30 17115 O 1550.69 -1.61638 -5.47019 0
M  V30 17116 O 1549.62 -3.47425 -4.91507 0
M  V30 17117 H 1553.45 -2.47266 -1.76333 0
M  V30 17118 H 1551.03 -1.25336 -0.813095 0
M  V30 17119 H 1552.92 -1.40656 -3.97233 0
M  V30 17120 H 1551.59 -0.494334 -3.19903 0
M  V30 17121 H 1550.5 -2.72323 -2.56498 0
M  V30 17122 H 1551.83 -3.5694 -3.38903 0
M  V30 17123 N 1553.48 0.89303 -1.29857 0
M  V30 17124 C 1554.43 1.9979 -1.15554 0
M  V30 17125 C 1555.4 1.66033 -0.0471157 0
M  V30 17126 O 1556.59 1.89575 -0.215846 0
M  V30 17127 C 1553.73 3.34595 -0.844993 0
M  V30 17128 C 1552.84 3.81093 -2.03451 0
M  V30 17129 C 1551.97 5.04506 -1.66275 0
M  V30 17130 C 1551.01 5.4339 -2.8177 0
M  V30 17131 N 1550.15 6.57987 -2.44945 0
M  V30 17132 H 1554.99 2.11355 -2.10079 0
M  V30 17133 H 1552.53 1.03497 -1.04531 0
M  V30 17134 H 1554.48 4.12175 -0.645598 0
M  V30 17135 H 1553.11 3.22738 0.0633626 0
M  V30 17136 H 1552.17 2.99491 -2.34541 0
M  V30 17137 H 1553.48 4.05855 -2.8997 0
M  V30 17138 H 1552.63 5.89688 -1.42664 0
M  V30 17139 H 1551.37 4.81597 -0.769144 0
M  V30 17140 H 1550.38 4.56738 -3.06056 0
M  V30 17141 H 1551.6 5.68276 -3.71805 0
M  V30 17142 H 1549.55 6.36669 -1.58079 0
M  V30 17143 H 1549.46 6.82579 -3.24996 0
M  V30 17144 H 1550.73 7.46421 -2.24669 0
M  V30 17145 N 1554.96 1.12442 1.10429 0
M  V30 17146 C 1555.91 0.787578 2.18861 0
M  V30 17147 C 1556.9 -0.225602 1.67891 0
M  V30 17148 O 1558.11 -0.0838029 1.79805 0
M  V30 17149 H 1554.48 0.236858 0.713724 0
M  V30 17150 H 1556.46 1.71048 2.4451 0
M  V30 17151 C 1555.2 0.25854 3.46737 0
M  V30 17152 H 1554.53 1.02945 3.86319 0
M  V30 17153 H 1555.97 0.0611642 4.23956 0
M  V30 17154 C 1554.43 -1.01353 3.21293 0
M  V30 17155 O 1554.96 -2.09132 3.42967 0
M  V30 17156 N 1553.16 -0.940498 2.7496 0
M  V30 17157 H 1552.71 -0.0632962 2.57522 0
M  V30 17158 H 1552.67 -1.79226 2.58313 0
M  V30 17159 N 1556.44 -1.28223 0.91633 0
M  V30 17160 C 1557.35 -2.30956 0.411882 0
M  V30 17161 C 1558.37 -1.66609 -0.501753 0
M  V30 17162 O 1559.54 -1.97641 -0.387317 0
M  V30 17163 C 1556.61 -3.45053 -0.337558 0
M  V30 17164 C 1555.67 -4.2495 0.609609 0
M  V30 17165 C 1554.9 -5.33598 -0.104159 0
M  V30 17166 O 1555.12 -5.54786 -1.32546 0
M  V30 17167 O 1554.06 -5.99272 0.561851 0
M  V30 17168 H 1557.88 -2.76118 1.26461 0
M  V30 17169 H 1555.47 -1.32964 0.681246 0
M  V30 17170 H 1557.35 -4.14477 -0.760722 0
M  V30 17171 H 1556.03 -3.01968 -1.16607 0
M  V30 17172 H 1554.93 -3.58104 1.08222 0
M  V30 17173 H 1556.27 -4.7172 1.40502 0
M  V30 17174 N 1557.92 -0.68059 -1.42147 0
M  V30 17175 C 1558.85 -0.0199376 -2.33491 0
M  V30 17176 C 1559.83 0.783164 -1.50999 0
M  V30 17177 O 1561.01 0.739154 -1.79583 0
M  V30 17178 C 1558.14 0.927902 -3.34675 0
M  V30 17179 C 1557.1 0.232979 -4.27365 0
M  V30 17180 C 1556.42 1.29415 -5.18802 0
M  V30 17181 C 1557.72 -0.891559 -5.14634 0
M  V30 17182 H 1559.42 -0.782823 -2.88985 0
M  V30 17183 H 1556.96 -0.377898 -1.38953 0
M  V30 17184 H 1558.92 1.3992 -3.97493 0
M  V30 17185 H 1557.64 1.72228 -2.77498 0
M  V30 17186 H 1556.3 -0.21814 -3.6595 0
M  V30 17187 H 1555.95 2.08067 -4.57949 0
M  V30 17188 H 1555.65 0.834274 -5.81647 0
M  V30 17189 H 1557.17 1.76627 -5.84496 0
M  V30 17190 H 1558.59 -0.501219 -5.71105 0
M  V30 17191 H 1556.98 -1.27759 -5.86343 0
M  V30 17192 H 1558.05 -1.73781 -4.5269 0
M  V30 17193 N 1559.4 1.51781 -0.424309 0
M  V30 17194 C 1560.33 2.25144 0.429274 0
M  V30 17195 C 1561.34 1.2867 0.997389 0
M  V30 17196 O 1562.53 1.54514 0.893746 0
M  V30 17197 C 1559.63 2.98156 1.61109 0
M  V30 17198 C 1558.8 4.21623 1.16417 0
M  V30 17199 C 1557.86 4.77327 2.21462 0
M  V30 17200 O 1556.89 5.39511 1.8143 0
M  V30 17201 N 1558.09 4.60221 3.53803 0
M  V30 17202 H 1560.85 2.99036 -0.199438 0
M  V30 17203 H 1558.42 1.59919 -0.252492 0
M  V30 17204 H 1560.41 3.32312 2.30978 0
M  V30 17205 H 1558.98 2.27356 2.14541 0
M  V30 17206 H 1558.2 3.93109 0.293034 0
M  V30 17207 H 1559.49 5.01772 0.842767 0
M  V30 17208 H 1558.88 4.10661 3.89068 0
M  V30 17209 H 1557.44 4.98774 4.19604 0
M  V30 17210 N 1560.87 0.155222 1.56834 0
M  V30 17211 C 1561.81 -0.812448 2.14317 0
M  V30 17212 C 1562.82 -1.20502 1.09467 0
M  V30 17213 O 1564.01 -1.14767 1.36714 0
M  V30 17214 C 1561.11 -2.10279 2.65774 0
M  V30 17215 C 1560.28 -1.8763 3.95112 0
M  V30 17216 C 1559.34 -3.0073 4.31796 0
M  V30 17217 O 1558.37 -2.72064 4.9997 0
M  V30 17218 N 1559.57 -4.28114 3.92044 0
M  V30 17219 H 1562.33 -0.321106 2.97975 0
M  V30 17220 H 1559.89 -0.0280861 1.61876 0
M  V30 17221 H 1561.89 -2.85005 2.87323 0
M  V30 17222 H 1560.46 -2.50652 1.86796 0
M  V30 17223 H 1559.68 -0.968958 3.82106 0
M  V30 17224 H 1560.96 -1.69845 4.79614 0
M  V30 17225 H 1560.36 -4.54269 3.37129 0
M  V30 17226 H 1558.92 -4.99594 4.18627 0
M  V30 17227 N 1562.35 -1.57153 -0.118549 0
M  V30 17228 C 1563.28 -1.95577 -1.17579 0
M  V30 17229 C 1564.26 -0.825508 -1.40086 0
M  V30 17230 O 1565.45 -1.08372 -1.54233 0
M  V30 17231 C 1562.57 -2.25238 -2.52954 0
M  V30 17232 C 1561.62 -3.47789 -2.46871 0
M  V30 17233 S 1562.45 -5.00358 -1.90792 0
M  V30 17234 C 1563.61 -5.33172 -3.27839 0
M  V30 17235 H 1563.84 -2.84946 -0.84812 0
M  V30 17236 H 1561.37 -1.50934 -0.325323 0
M  V30 17237 H 1563.33 -2.43005 -3.30846 0
M  V30 17238 H 1561.99 -1.36482 -2.82898 0
M  V30 17239 H 1561.19 -3.6591 -3.46592 0
M  V30 17240 H 1560.79 -3.29411 -1.771 0
M  V30 17241 H 1563.08 -5.28381 -4.24051 0
M  V30 17242 H 1564.02 -6.34403 -3.14545 0
M  V30 17243 H 1564.43 -4.60647 -3.26289 0
M  V30 17244 N 1563.83 0.388742 -1.5273 0
M  V30 17245 C 1564.76 1.48133 -1.80496 0
M  V30 17246 C 1565.74 1.56899 -0.657008 0
M  V30 17247 O 1566.93 1.71844 -0.904621 0
M  V30 17248 C 1564.06 2.85742 -1.97405 0
M  V30 17249 C 1563.01 2.91815 -3.13094 0
M  V30 17250 C 1562.34 4.31876 -3.15258 0
M  V30 17251 C 1563.64 2.61438 -4.52159 0
M  V30 17252 H 1565.33 1.25147 -2.7199 0
M  V30 17253 H 1562.88 0.600603 -1.30877 0
M  V30 17254 H 1564.83 3.62182 -2.15412 0
M  V30 17255 H 1563.55 3.10065 -1.02601 0
M  V30 17256 H 1562.21 2.17824 -2.9487 0
M  V30 17257 H 1561.86 4.53239 -2.18135 0
M  V30 17258 H 1561.56 4.3686 -3.92972 0
M  V30 17259 H 1563.08 5.10221 -3.3542 0
M  V30 17260 H 1564.5 3.27596 -4.70483 0
M  V30 17261 H 1562.89 2.77771 -5.31943 0
M  V30 17262 H 1563.96 1.56778 -4.58856 0
M  V30 17263 N 1565.31 1.43698 0.647203 0
M  V30 17264 C 1566.22 1.51781 1.78884 0
M  V30 17265 C 1567.23 0.404498 1.69233 0
M  V30 17266 O 1568.41 0.659509 1.90296 0
M  V30 17267 C 1565.47 1.44408 3.15194 0
M  V30 17268 C 1564.54 2.6646 3.36597 0
M  V30 17269 C 1563.77 2.59429 4.66403 0
M  V30 17270 O 1563.99 1.64537 5.46154 0
M  V30 17271 O 1562.93 3.50027 4.89658 0
M  V30 17272 H 1566.75 2.48198 1.75019 0
M  V30 17273 H 1564.34 1.25766 0.806436 0
M  V30 17274 H 1566.22 1.42761 3.96481 0
M  V30 17275 H 1564.89 0.511292 3.19637 0
M  V30 17276 H 1563.8 2.73679 2.5505 0
M  V30 17277 H 1565.13 3.58732 3.37005 0
M  V30 17278 N 1566.79 -0.886131 1.30328 0
M  V30 17279 C 1568.01 -1.67625 1.22134 0
M  V30 17280 C 1568.44 -1.86893 -0.212712 0
M  V30 17281 O 1567.79 -1.39905 -1.1531 0
M  V30 17282 C 1567.84 -3.03068 1.95402 0
M  V30 17283 O 1566.95 -3.92022 1.28032 0
M  V30 17284 H 1566.29 -0.512246 0.422493 0
M  V30 17285 H 1568.82 -1.10602 1.72129 0
M  V30 17286 H 1568.83 -3.53119 2.04379 0
M  V30 17287 H 1567.5 -2.88363 2.99699 0
M  V30 17288 H 1566.08 -3.50461 1.27402 0
M  V30 17289 N 1568.26 -1.13026 -1.09832 0
M  V30 17290 C 1569.51 -0.890736 -1.82191 0
M  V30 17291 C 1569.84 0.581818 -1.8528 0
M  V30 17292 O 1569.12 1.43037 -1.31798 0
M  V30 17293 C 1569.4 -1.47403 -3.28549 0
M  V30 17294 C 1569.25 -3.0154 -3.33757 0
M  V30 17295 C 1570.57 -1.13876 -4.25112 0
M  V30 17296 H 1567.69 -0.325028 -0.661457 0
M  V30 17297 H 1570.33 -1.39787 -1.28684 0
M  V30 17298 H 1568.48 -1.04272 -3.74245 0
M  V30 17299 H 1570.16 -3.53395 -2.96495 0
M  V30 17300 H 1568.4 -3.36746 -2.73467 0
M  V30 17301 H 1569.07 -3.37449 -4.36843 0
M  V30 17302 H 1571.55 -1.51139 -3.87681 0
M  V30 17303 H 1570.42 -1.57343 -5.25865 0
M  V30 17304 H 1570.68 -0.051854 -4.4207 0
M  V30 17305 N 1569.74 1.27735 -0.923117 0
M  V30 17306 C 1570.99 1.93857 -0.556994 0
M  V30 17307 C 1571.3 1.73386 0.905346 0
M  V30 17308 O 1572.51 2.3381 1.38005 0
M  V30 17309 C 1570.97 3.47263 -0.94534 0
M  V30 17310 C 1570.57 3.76497 -2.42805 0
M  V30 17311 C 1572.32 4.1949 -0.65025 0
M  V30 17312 C 1570.23 5.23256 -2.75603 0
M  V30 17313 H 1569.16 0.725712 -0.204591 0
M  V30 17314 H 1571.81 1.451 -1.12331 0
M  V30 17315 H 1570.19 3.94803 -0.307721 0
M  V30 17316 H 1571.36 3.39731 -3.11319 0
M  V30 17317 H 1569.68 3.17463 -2.69456 0
M  V30 17318 H 1572.27 5.27544 -0.871851 0
M  V30 17319 H 1572.62 4.14253 0.412352 0
M  V30 17320 H 1573.15 3.77758 -1.24676 0
M  V30 17321 H 1569.89 5.33579 -3.80754 0
M  V30 17322 H 1569.41 5.61185 -2.11735 0
M  V30 17323 H 1571.09 5.91088 -2.63103 0
M  V30 17324 N 1571.22 0.688118 1.41784 0
M  V30 17325 C 1572.18 0.0271411 2.29184 0
M  V30 17326 C 1573.18 -0.715537 1.44002 0
M  V30 17327 O 1574.37 -0.551542 1.65238 0
M  V30 17328 C 1571.51 -0.97206 3.26747 0
M  V30 17329 H 1572.7 0.79658 2.89127 0
M  V30 17330 H 1570.25 0.451198 1.49646 0
M  V30 17331 H 1570.99 -1.76953 2.71769 0
M  V30 17332 H 1570.77 -0.442746 3.89592 0
M  V30 17333 H 1572.26 -1.43256 3.92259 0
M  V30 17334 N 1572.7 -1.51554 0.432352 0
M  V30 17335 C 1573.61 -2.31371 -0.387885 0
M  V30 17336 C 1574.62 -1.40072 -1.03227 0
M  V30 17337 O 1575.8 -1.73145 -1.02873 0
M  V30 17338 C 1572.87 -3.13662 -1.47705 0
M  V30 17339 C 1571.93 -4.20734 -0.853315 0
M  V30 17340 C 1571.16 -4.99092 -1.89058 0
M  V30 17341 O 1571.38 -4.78022 -3.11209 0
M  V30 17342 O 1570.32 -5.83322 -1.48389 0
M  V30 17343 H 1574.14 -3.02554 0.263578 0
M  V30 17344 H 1571.73 -1.48122 0.195004 0
M  V30 17345 H 1573.61 -3.64837 -2.10884 0
M  V30 17346 H 1572.28 -2.45249 -2.11269 0
M  V30 17347 H 1571.19 -3.73649 -0.183616 0
M  V30 17348 H 1572.52 -4.91506 -0.261244 0
M  V30 17349 N 1574.18 -0.163538 -1.56749 0
M  V30 17350 C 1575.12 0.769787 -2.17584 0
M  V30 17351 C 1576.09 1.23246 -1.11354 0
M  V30 17352 O 1577.28 1.30203 -1.3947 0
M  V30 17353 C 1574.42 1.99685 -2.81461 0
M  V30 17354 C 1573.53 1.57846 -4.0213 0
M  V30 17355 C 1572.67 2.75858 -4.53955 0
M  V30 17356 C 1571.71 2.30473 -5.67053 0
M  V30 17357 N 1570.84 3.41551 -6.13423 0
M  V30 17358 H 1575.68 0.244221 -2.96998 0
M  V30 17359 H 1573.22 0.108821 -1.46697 0
M  V30 17360 H 1575.18 2.71643 -3.16648 0
M  V30 17361 H 1573.81 2.49624 -2.04664 0
M  V30 17362 H 1572.86 0.755907 -3.72814 0
M  V30 17363 H 1574.17 1.20525 -4.8402 0
M  V30 17364 H 1573.33 3.55984 -4.91284 0
M  V30 17365 H 1572.06 3.16434 -3.71107 0
M  V30 17366 H 1571.07 1.48791 -5.29284 0
M  V30 17367 H 1572.29 1.90964 -6.51698 0
M  V30 17368 H 1570.24 3.81717 -5.33506 0
M  V30 17369 H 1570.16 3.08298 -6.90281 0
M  V30 17370 H 1571.43 4.21985 -6.554 0
M  V30 17371 N 1575.65 1.57214 0.110213 0
M  V30 17372 C 1576.56 2.04287 1.15342 0
M  V30 17373 C 1577.58 0.964895 1.44796 0
M  V30 17374 O 1578.76 1.27702 1.55737 0
M  V30 17375 C 1575.82 2.44518 2.45788 0
M  V30 17376 C 1574.88 3.66439 2.23653 0
M  V30 17377 C 1574.12 4.04742 3.47879 0
M  V30 17378 O 1574.34 3.43291 4.5553 0
M  V30 17379 O 1573.27 4.97791 3.38361 0
M  V30 17380 H 1577.1 2.93415 0.783656 0
M  V30 17381 H 1574.68 1.45897 0.321644 0
M  V30 17382 H 1576.57 2.71089 3.22628 0
M  V30 17383 H 1575.24 1.58533 2.82221 0
M  V30 17384 H 1574.15 3.45006 1.44643 0
M  V30 17385 H 1575.48 4.53156 1.9212 0
M  V30 17386 N 1577.13 -0.380637 1.52934 0
M  V30 17387 C 1578.06 -1.48518 1.74571 0
M  V30 17388 C 1579.08 -1.50272 0.626263 0
M  V30 17389 O 1580.27 -1.54023 0.902167 0
M  V30 17390 C 1577.37 -2.87339 1.79693 0
M  V30 17391 C 1576.54 -3.09454 3.09123 0
M  V30 17392 C 1575.6 -4.28305 3.05682 0
M  V30 17393 O 1574.62 -4.24205 3.79524 0
M  V30 17394 N 1575.83 -5.34932 2.2545 0
M  V30 17395 H 1578.59 -1.30341 2.69873 0
M  V30 17396 H 1576.15 -0.57023 1.51526 0
M  V30 17397 H 1578.14 -3.64961 1.74887 0
M  V30 17398 H 1576.71 -2.98835 0.917414 0
M  V30 17399 H 1575.93 -2.19623 3.27352 0
M  V30 17400 H 1577.22 -3.21089 3.94689 0
M  V30 17401 H 1576.62 -5.41121 1.64939 0
M  V30 17402 H 1575.18 -6.11189 2.26476 0
M  V30 17403 N 1578.61 -1.44039 -0.639573 0
M  V30 17404 C 1579.54 -1.53073 -1.76327 0
M  V30 17405 C 1580.52 -0.384344 -1.65701 0
M  V30 17406 O 1581.71 -0.603362 -1.84589 0
M  V30 17407 C 1578.84 -1.46646 -3.14821 0
M  V30 17408 C 1577.79 -2.59673 -3.40226 0
M  V30 17409 C 1577.12 -2.38298 -4.78663 0
M  V30 17410 C 1578.42 -4.01864 -3.33621 0
M  V30 17411 H 1580.11 -2.47126 -1.69023 0
M  V30 17412 H 1577.66 -1.1894 -0.811749 0
M  V30 17413 H 1579.61 -1.51567 -3.93199 0
M  V30 17414 H 1578.33 -0.491035 -3.22888 0
M  V30 17415 H 1576.99 -2.54127 -2.64225 0
M  V30 17416 H 1576.64 -1.38968 -4.83422 0
M  V30 17417 H 1576.34 -3.14074 -4.9662 0
M  V30 17418 H 1577.86 -2.45025 -5.59281 0
M  V30 17419 H 1579.28 -4.08824 -4.01915 0
M  V30 17420 H 1577.68 -4.77775 -3.63113 0
M  V30 17421 H 1578.75 -4.26033 -2.31569 0
M  V30 17422 N 1580.09 0.879207 -1.30796 0
M  V30 17423 C 1581.04 1.98553 -1.17667 0
M  V30 17424 C 1582.01 1.65974 -0.0647231 0
M  V30 17425 O 1583.19 1.89336 -0.235941 0
M  V30 17426 C 1580.33 3.3368 -0.880434 0
M  V30 17427 C 1579.44 3.78913 -2.07482 0
M  V30 17428 C 1578.58 5.02714 -1.71617 0
M  V30 17429 C 1577.62 5.40371 -2.87517 0
M  V30 17430 N 1576.75 6.55352 -2.5191 0
M  V30 17431 H 1581.59 2.09115 -2.12309 0
M  V30 17432 H 1579.13 1.02382 -1.05623 0
M  V30 17433 H 1581.09 4.11467 -0.689278 0
M  V30 17434 H 1579.72 3.22787 0.0291283 0
M  V30 17435 H 1578.77 2.96987 -2.37704 0
M  V30 17436 H 1580.08 4.02757 -2.94259 0
M  V30 17437 H 1579.24 5.88142 -1.4891 0
M  V30 17438 H 1577.98 4.80754 -0.820181 0
M  V30 17439 H 1576.98 4.53466 -3.10883 0
M  V30 17440 H 1578.21 5.64301 -3.77811 0
M  V30 17441 H 1576.15 6.34956 -1.64823 0
M  V30 17442 H 1576.07 6.79093 -3.32217 0
M  V30 17443 H 1577.34 7.43996 -2.32573 0
M  V30 17444 N 1581.57 1.13606 1.09231 0
M  V30 17445 C 1582.8 0.922295 1.85206 0
M  V30 17446 C 1583.21 -0.528954 1.81239 0
M  V30 17447 O 1582.57 -1.36622 1.20999 0
M  V30 17448 C 1582.62 1.40453 3.331 0
M  V30 17449 O 1582.34 2.7989 3.37036 0
M  V30 17450 C 1583.84 1.22948 4.25909 0
M  V30 17451 H 1581.06 0.328757 0.584945 0
M  V30 17452 H 1583.6 1.50911 1.38007 0
M  V30 17453 H 1581.76 0.86066 3.77719 0
M  V30 17454 H 1582.17 3.01342 4.29294 0
M  V30 17455 H 1583.65 1.61562 5.27827 0
M  V30 17456 H 1584.12 0.171387 4.38865 0
M  V30 17457 H 1584.73 1.76147 3.87108 0
M  V30 17458 N 1583.05 -1.27244 0.929878 0
M  V30 17459 C 1584.32 -1.89369 0.489774 0
M  V30 17460 C 1584.7 -1.84142 -1.03222 0
M  V30 17461 O 1584.05 -1.2881 -1.88733 0
M  V30 17462 C 1584.26 -3.33196 1.03833 0
M  V30 17463 C 1585.61 -4.101 1.10013 0
M  V30 17464 O 1586.63 -3.42221 0.988106 0
M  V30 17465 O 1585.49 -5.31468 1.27296 0
M  V30 17466 H 1582.59 -0.811789 0.157882 0
M  V30 17467 H 1585.13 -1.35496 1.02171 0
M  V30 17468 H 1583.9 -3.31304 2.08214 0
M  V30 17469 H 1583.53 -3.94592 0.488167 0
M  V30 17470 N 1584.52 -0.695628 -1.41417 0
M  V30 17471 C 1585.45 -0.0447013 -2.33457 0
M  V30 17472 C 1586.43 0.767104 -1.51821 0
M  V30 17473 O 1587.62 0.720066 -1.80357 0
M  V30 17474 C 1584.75 0.892353 -3.3564 0
M  V30 17475 C 1583.7 0.187638 -4.27588 0
M  V30 17476 C 1583.03 1.23906 -5.20146 0
M  V30 17477 C 1584.33 -0.946093 -5.1366 0
M  V30 17478 H 1586.02 -0.81343 -2.88138 0
M  V30 17479 H 1583.57 -0.392614 -1.38544 0
M  V30 17480 H 1585.52 1.35696 -3.98954 0
M  V30 17481 H 1584.25 1.69275 -2.79309 0
M  V30 17482 H 1582.91 -0.256942 -3.65698 0
M  V30 17483 H 1582.55 2.03198 -4.6013 0
M  V30 17484 H 1582.25 0.772536 -5.82499 0
M  V30 17485 H 1583.78 1.70417 -5.86336 0
M  V30 17486 H 1585.19 -0.561764 -5.70541 0
M  V30 17487 H 1583.59 -1.33971 -5.84954 0
M  V30 17488 H 1584.66 -1.78573 -4.50821 0
M  V30 17489 N 1586 1.51322 -0.440383 0
M  V30 17490 C 1586.95 2.27823 0.369526 0
M  V30 17491 C 1587.92 1.31543 1.01418 0
M  V30 17492 O 1589.1 1.60449 1.03251 0
M  V30 17493 C 1586.24 3.12553 1.46304 0
M  V30 17494 C 1585.36 4.23829 0.836217 0
M  V30 17495 C 1584.49 4.95865 1.90504 0
M  V30 17496 C 1583.53 5.99058 1.25681 0
M  V30 17497 N 1582.67 6.64489 2.26712 0
M  V30 17498 H 1587.51 2.96593 -0.289205 0
M  V30 17499 H 1585.04 1.46287 -0.154466 0
M  V30 17500 H 1587 3.60006 2.10836 0
M  V30 17501 H 1585.63 2.4589 2.09136 0
M  V30 17502 H 1584.68 3.80318 0.0791116 0
M  V30 17503 H 1586 4.97753 0.322989 0
M  V30 17504 H 1585.15 5.46881 2.6269 0
M  V30 17505 H 1583.89 4.21578 2.452 0
M  V30 17506 H 1582.89 5.47331 0.520422 0
M  V30 17507 H 1584.12 6.75303 0.717138 0
M  V30 17508 H 1582.07 5.93014 2.80483 0
M  V30 17509 H 1581.98 7.34188 1.80289 0
M  V30 17510 H 1583.25 7.20134 2.98373 0
M  V30 17511 N 1587.48 0.171848 1.5666 0
M  V30 17512 C 1588.39 -0.770721 2.21579 0
M  V30 17513 C 1589.41 -1.25273 1.20759 0
M  V30 17514 O 1590.58 -1.30474 1.53422 0
M  V30 17515 C 1587.65 -1.98256 2.84422 0
M  V30 17516 C 1586.71 -1.54738 4.00443 0
M  V30 17517 C 1585.94 -2.70145 4.6028 0
M  V30 17518 O 1586.16 -3.87026 4.19007 0
M  V30 17519 O 1585.1 -2.44189 5.50141 0
M  V30 17520 H 1588.92 -0.247974 3.02686 0
M  V30 17521 H 1586.51 -0.0563734 1.49294 0
M  V30 17522 H 1588.39 -2.69127 3.24266 0
M  V30 17523 H 1587.07 -2.49435 2.0631 0
M  V30 17524 H 1585.97 -0.808152 3.65267 0
M  V30 17525 H 1587.31 -1.08249 4.80149 0
M  V30 17526 N 1588.96 -1.5727 -0.101874 0
M  V30 17527 C 1589.91 -2.0258 -1.14297 0
M  V30 17528 C 1590.9 -0.925674 -1.41872 0
M  V30 17529 O 1592.11 -1.11086 -1.41633 0
M  V30 17530 H 1588.48 -0.645504 -0.385782 0
M  V30 17531 H 1590.45 -2.8922 -0.734453 0
M  V30 17532 C 1589.2 -2.46036 -2.45686 0
M  V30 17533 H 1588.52 -3.30266 -2.2531 0
M  V30 17534 H 1589.96 -2.81522 -3.17051 0
M  V30 17535 C 1588.42 -1.33089 -3.09498 0
M  V30 17536 O 1588.95 -0.656277 -3.96303 0
M  V30 17537 N 1587.16 -1.08359 -2.69642 0
M  V30 17538 H 1586.71 -1.63397 -1.99146 0
M  V30 17539 H 1586.66 -0.329859 -3.12665 0
M  V30 17540 N 1590.44 0.372521 -1.53134 0
M  V30 17541 C 1591.68 1.11316 -1.68201 0
M  V30 17542 C 1592 1.90662 -0.436714 0
M  V30 17543 O 1593.2 2.67439 -0.467802 0
M  V30 17544 C 1591.66 2.02808 -2.97317 0
M  V30 17545 C 1591.27 1.28806 -4.29084 0
M  V30 17546 C 1593.01 2.76906 -3.2175 0
M  V30 17547 C 1590.92 2.19159 -5.49294 0
M  V30 17548 H 1589.85 0.419264 -0.626685 0
M  V30 17549 H 1592.5 0.374677 -1.79634 0
M  V30 17550 H 1590.88 2.80359 -2.79669 0
M  V30 17551 H 1592.06 0.563661 -4.5734 0
M  V30 17552 H 1590.37 0.665989 -4.1104 0
M  V30 17553 H 1592.97 3.44721 -4.08744 0
M  V30 17554 H 1593.31 3.41894 -2.37517 0
M  V30 17555 H 1593.84 2.06441 -3.4004 0
M  V30 17556 H 1590.58 1.5876 -6.35984 0
M  V30 17557 H 1590.1 2.89468 -5.25327 0
M  V30 17558 H 1591.78 2.78874 -5.83814 0
M  V30 17559 N 1591.91 1.44376 0.631925 0
M  V30 17560 C 1592.82 1.5367 1.77264 0
M  V30 17561 C 1593.84 0.422425 1.68794 0
M  V30 17562 O 1595.02 0.679656 1.89585 0
M  V30 17563 C 1592.08 1.47743 3.13644 0
M  V30 17564 C 1591.14 2.70015 3.33752 0
M  V30 17565 C 1590.37 2.64362 4.63626 0
M  V30 17566 O 1590.6 1.7032 5.44378 0
M  V30 17567 O 1589.53 3.55201 4.85918 0
M  V30 17568 H 1593.36 2.5004 1.72376 0
M  V30 17569 H 1590.94 1.26614 0.793052 0
M  V30 17570 H 1592.82 1.46958 3.94945 0
M  V30 17571 H 1591.5 0.545165 3.19076 0
M  V30 17572 H 1590.41 2.76369 2.52133 0
M  V30 17573 H 1591.74 3.62286 3.33181 0
M  V30 17574 N 1593.39 -0.872258 1.31261 0
M  V30 17575 C 1594.32 -1.98231 1.13047 0
M  V30 17576 C 1595.3 -1.62563 0.0345979 0
M  V30 17577 O 1596.49 -1.87534 0.190586 0
M  V30 17578 C 1593.61 -3.30809 0.726841 0
M  V30 17579 C 1592.66 -3.85461 1.82542 0
M  V30 17580 S 1593.49 -4.11197 3.43041 0
M  V30 17581 C 1594.65 -5.46776 3.0461 0
M  V30 17582 H 1594.88 -2.13377 2.07021 0
M  V30 17583 H 1592.41 -1.02217 1.1572 0
M  V30 17584 H 1594.37 -4.07435 0.500707 0
M  V30 17585 H 1593.03 -3.13502 -0.193741 0
M  V30 17586 H 1592.23 -4.81299 1.49558 0
M  V30 17587 H 1591.83 -3.1562 2.0065 0
M  V30 17588 H 1594.12 -6.28343 2.53361 0
M  V30 17589 H 1595.06 -5.84708 3.99402 0
M  V30 17590 H 1595.47 -5.09941 2.42116 0
M  V30 17591 N 1594.87 -1.14184 -1.08627 0
M  V30 17592 C 1596.1 -0.932104 -1.84714 0
M  V30 17593 C 1596.51 0.519335 -1.81517 0
M  V30 17594 O 1595.87 1.35978 -1.21722 0
M  V30 17595 C 1595.92 -1.42217 -3.3235 0
M  V30 17596 O 1595.64 -2.81674 -3.35547 0
M  V30 17597 C 1597.14 -1.25205 -4.25251 0
M  V30 17598 H 1594.36 -0.331854 -0.583193 0
M  V30 17599 H 1596.91 -1.51641 -1.37205 0
M  V30 17600 H 1595.06 -0.880679 -3.77257 0
M  V30 17601 H 1595.48 -3.03615 -4.2769 0
M  V30 17602 H 1596.95 -1.64358 -5.26963 0
M  V30 17603 H 1597.43 -0.194659 -4.38768 0
M  V30 17604 H 1598.03 -1.78198 -3.86168 0
M  V30 17605 N 1596.35 1.26749 -0.936613 0
M  V30 17606 C 1597.6 1.93255 -0.577524 0
M  V30 17607 C 1597.91 1.74337 0.886905 0
M  V30 17608 O 1599.12 2.3526 1.35517 0
M  V30 17609 C 1597.57 3.4624 -0.982119 0
M  V30 17610 C 1597.18 3.739 -2.46784 0
M  V30 17611 C 1598.92 4.18777 -0.694706 0
M  V30 17612 C 1596.83 5.20303 -2.81138 0
M  V30 17613 H 1595.76 0.723502 -0.212276 0
M  V30 17614 H 1598.41 1.43901 -1.13863 0
M  V30 17615 H 1596.79 3.94454 -0.349577 0
M  V30 17616 H 1597.97 3.3641 -3.14905 0
M  V30 17617 H 1596.28 3.14587 -2.72808 0
M  V30 17618 H 1598.88 5.2659 -0.927756 0
M  V30 17619 H 1599.22 4.14667 0.368392 0
M  V30 17620 H 1599.76 3.76414 -1.28676 0
M  V30 17621 H 1596.5 5.29511 -3.86392 0
M  V30 17622 H 1596.02 5.58907 -2.17675 0
M  V30 17623 H 1597.69 5.88265 -2.69358 0
M  V30 17624 N 1597.83 0.703118 1.41046 0
M  V30 17625 C 1598.74 0.0432777 2.3456 0
M  V30 17626 C 1599.75 -0.757704 1.56636 0
M  V30 17627 O 1600.93 -0.693531 1.89082 0
M  V30 17628 C 1597.99 -0.876385 3.35441 0
M  V30 17629 C 1597.05 -0.06676 4.29248 0
M  V30 17630 C 1596.29 -0.942622 5.2531 0
M  V30 17631 O 1596.51 -2.18205 5.27013 0
M  V30 17632 O 1595.44 -0.388266 6.00646 0
M  V30 17633 H 1599.27 0.814302 2.9258 0
M  V30 17634 H 1596.86 0.463503 1.42028 0
M  V30 17635 H 1598.74 -1.40353 3.9734 0
M  V30 17636 H 1597.41 -1.62677 2.79853 0
M  V30 17637 H 1596.32 0.505165 3.70674 0
M  V30 17638 H 1597.65 0.645128 4.87954 0
M  V30 17639 N 1599.3 -1.51086 0.448402 0
M  V30 17640 C 1600.25 -2.29611 -0.371711 0
M  V30 17641 C 1601.25 -1.35926 -1.01096 0
M  V30 17642 O 1602.45 -1.53219 -0.944663 0
M  V30 17643 H 1598.83 -0.739099 -0.138694 0
M  V30 17644 H 1600.8 -2.96772 0.311275 0
M  V30 17645 C 1599.55 -3.1583 -1.45418 0
M  V30 17646 H 1598.87 -3.87813 -0.971661 0
M  V30 17647 H 1600.31 -3.7381 -2.00105 0
M  V30 17648 C 1598.77 -2.31927 -2.44359 0
M  V30 17649 O 1599.3 -1.98655 -3.4914 0
M  V30 17650 N 1597.51 -1.94938 -2.15517 0
M  V30 17651 H 1597.05 -2.22195 -1.30335 0
M  V30 17652 H 1597.01 -1.39098 -2.81956 0
M  V30 17653 N 1600.78 -0.180154 -1.56567 0
M  V30 17654 C 1601.71 0.77825 -2.15583 0
M  V30 17655 C 1602.73 1.18746 -1.1137 0
M  V30 17656 O 1603.92 1.12578 -1.38523 0
M  V30 17657 C 1601.02 2.06024 -2.69086 0
M  V30 17658 C 1600.19 1.8132 -3.98047 0
M  V30 17659 C 1599.25 2.93823 -4.36526 0
M  V30 17660 O 1598.27 2.64075 -5.04235 0
M  V30 17661 N 1599.48 4.21823 -3.98806 0
M  V30 17662 H 1602.24 0.273661 -2.98448 0
M  V30 17663 H 1599.8 0.00232952 -1.619 0
M  V30 17664 H 1601.79 2.80398 -2.9182 0
M  V30 17665 H 1600.36 2.47648 -1.9076 0
M  V30 17666 H 1599.58 0.908046 -3.83599 0
M  V30 17667 H 1600.87 1.62194 -4.82256 0
M  V30 17668 H 1600.27 4.48849 -3.44313 0
M  V30 17669 H 1598.83 4.92871 -4.26522 0
M  V30 17670 N 1602.26 1.57322 0.0935319 0
M  V30 17671 C 1603.17 2.05499 1.13169 0
M  V30 17672 C 1604.19 0.980199 1.43764 0
M  V30 17673 O 1605.36 1.29347 1.54374 0
M  V30 17674 C 1602.43 2.47111 2.43181 0
M  V30 17675 C 1601.49 3.68791 2.19754 0
M  V30 17676 C 1600.72 4.08408 3.43567 0
M  V30 17677 O 1600.94 3.48104 4.51863 0
M  V30 17678 O 1599.88 5.01351 3.33062 0
M  V30 17679 H 1603.7 2.9423 0.752491 0
M  V30 17680 H 1601.29 1.4623 0.306151 0
M  V30 17681 H 1603.17 2.74495 3.19735 0
M  V30 17682 H 1601.85 1.61518 2.80524 0
M  V30 17683 H 1600.75 3.46521 1.40976 0
M  V30 17684 H 1602.09 4.55169 1.87303 0
M  V30 17685 N 1603.74 -0.364395 1.53329 0
M  V30 17686 C 1604.65 -1.47027 1.82812 0
M  V30 17687 C 1605.66 -1.58559 0.716598 0
M  V30 17688 O 1606.84 -1.7443 1.00678 0
M  V30 17689 C 1603.91 -2.82278 2.01295 0
M  V30 17690 C 1602.97 -2.80264 3.25193 0
M  V30 17691 C 1602.2 -4.09065 3.42785 0
M  V30 17692 O 1602.42 -5.0529 2.64648 0
M  V30 17693 O 1601.36 -4.14804 4.36144 0
M  V30 17694 H 1605.18 -1.25035 2.76767 0
M  V30 17695 H 1602.77 -0.554608 1.38724 0
M  V30 17696 H 1604.65 -3.62416 2.15017 0
M  V30 17697 H 1603.32 -3.04244 1.10531 0
M  V30 17698 H 1602.23 -1.9882 3.16893 0
M  V30 17699 H 1603.56 -2.63252 4.15884 0
M  V30 17700 N 1605.22 -1.44709 -0.62426 0
M  V30 17701 C 1606.15 -1.54934 -1.74693 0
M  V30 17702 C 1607.13 -0.401897 -1.65284 0
M  V30 17703 O 1608.31 -0.622906 -1.83939 0
M  V30 17704 C 1605.44 -1.49976 -3.13248 0
M  V30 17705 C 1604.4 -2.63267 -3.37453 0
M  V30 17706 C 1603.72 -2.43362 -4.76108 0
M  V30 17707 C 1605.02 -4.0538 -3.2934 0
M  V30 17708 H 1606.72 -2.48905 -1.66393 0
M  V30 17709 H 1604.26 -1.19794 -0.799088 0
M  V30 17710 H 1606.22 -1.55729 -3.91569 0
M  V30 17711 H 1604.94 -0.525254 -3.22349 0
M  V30 17712 H 1603.6 -2.56915 -2.61515 0
M  V30 17713 H 1603.25 -1.44088 -4.81921 0
M  V30 17714 H 1602.95 -3.19324 -4.93261 0
M  V30 17715 H 1604.47 -2.50943 -5.56651 0
M  V30 17716 H 1605.88 -4.13064 -3.97556 0
M  V30 17717 H 1604.28 -4.81599 -3.58025 0
M  V30 17718 H 1605.35 -4.28465 -2.27038 0
M  V30 17719 N 1606.69 0.865285 -1.31722 0
M  V30 17720 C 1608.11 1.15179 -1.10481 0
M  V30 17721 C 1608.31 2.01132 0.121667 0
M  V30 17722 O 1607.37 2.39167 0.809645 0
M  V30 17723 C 1608.68 1.8394 -2.3788 0
M  V30 17724 C 1610.23 1.96621 -2.43535 0
M  V30 17725 C 1610.7 2.68796 -3.70827 0
M  V30 17726 N 1612.19 2.76329 -3.71748 0
M  V30 17727 C 1612.93 3.32798 -4.6694 0
M  V30 17728 N 1612.42 3.90162 -5.7249 0
M  V30 17729 N 1614.22 3.30801 -4.54453 0
M  V30 17730 H 1606.37 0.292632 -2.10374 0
M  V30 17731 H 1608.63 0.192252 -0.928301 0
M  V30 17732 H 1608.34 1.28233 -3.27489 0
M  V30 17733 H 1608.21 2.84182 -2.48034 0
M  V30 17734 H 1610.6 2.5149 -1.54392 0
M  V30 17735 H 1610.68 0.954071 -2.37342 0
M  V30 17736 H 1610.32 2.14593 -4.60339 0
M  V30 17737 H 1610.25 3.70427 -3.74288 0
M  V30 17738 H 1612.74 2.35621 -2.95451 0
M  V30 17739 H 1613.06 4.31376 -6.41198 0
M  V30 17740 H 1611.4 3.88525 -5.76258 0
M  V30 17741 H 1614.59 2.85227 -3.71165 0
M  V30 17742 H 1614.77 3.74511 -5.28815 0
M  V30 17743 N 1608.17 1.14759 1.0802 0
M  V30 17744 C 1609.1 0.860977 2.17047 0
M  V30 17745 C 1610.08 -0.185652 1.69084 0
M  V30 17746 O 1611.27 -0.0414797 1.94156 0
M  V30 17747 C 1608.4 0.342018 3.45612 0
M  V30 17748 C 1607.35 1.32455 4.06989 0
M  V30 17749 C 1606.68 0.664721 5.30552 0
M  V30 17750 C 1607.98 2.68819 4.4781 0
M  V30 17751 H 1609.67 1.77269 2.4128 0
M  V30 17752 H 1607.22 0.853757 1.15961 0
M  V30 17753 H 1609.17 0.129093 4.21202 0
M  V30 17754 H 1607.9 -0.605138 3.20945 0
M  V30 17755 H 1606.55 1.52371 3.33435 0
M  V30 17756 H 1606.2 -0.288367 5.02173 0
M  V30 17757 H 1605.9 1.32036 5.72573 0
M  V30 17758 H 1607.43 0.461412 6.08854 0
M  V30 17759 H 1608.84 2.52787 5.14559 0
M  V30 17760 H 1607.24 3.30694 5.00761 0
M  V30 17761 H 1608.31 3.25398 3.59506 0
M  V30 17762 N 1609.65 -1.26251 0.943322 0
M  V30 17763 C 1610.58 -2.28673 0.472347 0
M  V30 17764 C 1611.56 -1.63319 -0.475481 0
M  V30 17765 O 1612.75 -1.90508 -0.376875 0
M  V30 17766 C 1609.88 -3.46316 -0.261286 0
M  V30 17767 C 1608.83 -4.23771 0.600192 0
M  V30 17768 C 1608.16 -5.3405 -0.263525 0
M  V30 17769 C 1609.46 -4.87576 1.87262 0
M  V30 17770 H 1611.15 -2.68319 1.32836 0
M  V30 17771 H 1608.7 -1.28987 0.640182 0
M  V30 17772 H 1610.65 -4.1708 -0.601821 0
M  V30 17773 H 1609.37 -3.05629 -1.15146 0
M  V30 17774 H 1608.03 -3.54774 0.923651 0
M  V30 17775 H 1607.68 -4.89604 -1.15312 0
M  V30 17776 H 1607.38 -5.86784 0.309495 0
M  V30 17777 H 1608.9 -6.07652 -0.599281 0
M  V30 17778 H 1610.32 -5.50544 1.59919 0
M  V30 17779 H 1608.72 -5.50437 2.39038 0
M  V30 17780 H 1609.79 -4.10397 2.58268 0
M  V30 17781 N 1611.13 -0.710588 -1.40671 0
M  V30 17782 C 1612.38 -0.247459 -2.00579 0
M  V30 17783 C 1612.7 1.16179 -1.56612 0
M  V30 17784 O 1611.97 1.7867 -0.803358 0
M  V30 17785 H 1610.55 -0.0884992 -0.741739 0
M  V30 17786 H 1613.21 -0.915103 -1.72081 0
M  V30 17787 H 1612.31 -0.276631 -3.10872 0
M  V30 17788 N 1612.61 1.50847 -0.456408 0
M  V30 17789 C 1613.88 1.94907 0.164485 0
M  V30 17790 C 1614.26 1.39609 1.58343 0
M  V30 17791 O 1613.61 0.590971 2.20726 0
M  V30 17792 C 1613.82 3.48784 0.122794 0
M  V30 17793 C 1615.17 4.234 0.318964 0
M  V30 17794 O 1616.19 3.55638 0.20005 0
M  V30 17795 O 1615.05 5.43649 0.557507 0
M  V30 17796 H 1612.15 0.818298 0.119652 0
M  V30 17797 H 1614.69 1.61673 -0.515758 0
M  V30 17798 H 1613.47 3.81541 -0.868468 0
M  V30 17799 H 1613.09 3.88514 0.84513 0
M  V30 17800 N 1614.09 0.188454 1.56469 0
M  V30 17801 C 1615 -0.747176 2.22384 0
M  V30 17802 C 1616.01 -1.23985 1.22081 0
M  V30 17803 O 1617.19 -1.2884 1.54797 0
M  V30 17804 C 1614.25 -1.95228 2.86508 0
M  V30 17805 C 1613.31 -1.50482 4.02062 0
M  V30 17806 C 1612.55 -2.65248 4.63119 0
M  V30 17807 O 1612.77 -3.8256 4.23088 0
M  V30 17808 O 1611.7 -2.38341 5.527 0
M  V30 17809 H 1615.53 -0.215857 3.02932 0
M  V30 17810 H 1613.11 -0.0405356 1.49345 0
M  V30 17811 H 1615 -2.65673 3.27103 0
M  V30 17812 H 1613.67 -2.47233 2.08944 0
M  V30 17813 H 1612.58 -0.769365 3.66103 0
M  V30 17814 H 1613.91 -1.03151 4.8127 0
M  V30 17815 N 1615.56 -1.5737 -0.0851874 0
M  V30 17816 C 1616.49 -2.05796 -1.10319 0
M  V30 17817 C 1617.47 -0.948796 -1.4118 0
M  V30 17818 O 1618.66 -1.22069 -1.51039 0
M  V30 17819 C 1615.79 -2.49069 -2.42037 0
M  V30 17820 C 1614.74 -3.6374 -2.25561 0
M  V30 17821 C 1614.07 -3.93023 -3.62543 0
M  V30 17822 C 1615.37 -4.94274 -1.68793 0
M  V30 17823 H 1617.06 -2.91095 -0.700274 0
M  V30 17824 H 1614.61 -1.40039 -0.335405 0
M  V30 17825 H 1616.56 -2.81558 -3.13534 0
M  V30 17826 H 1615.29 -1.60781 -2.84283 0
M  V30 17827 H 1613.95 -3.31513 -1.56507 0
M  V30 17828 H 1613.59 -3.01887 -4.02335 0
M  V30 17829 H 1613.29 -4.70229 -3.52362 0
M  V30 17830 H 1614.82 -4.27995 -4.35491 0
M  V30 17831 H 1616.23 -5.25079 -2.30141 0
M  V30 17832 H 1614.63 -5.75711 -1.69344 0
M  V30 17833 H 1615.7 -4.80548 -0.648204 0
M  V30 17834 N 1617.04 0.356258 -1.53521 0
M  V30 17835 C 1617.99 1.43689 -1.80616 0
M  V30 17836 C 1618.96 1.52808 -0.651064 0
M  V30 17837 O 1620.14 1.68549 -0.894203 0
M  V30 17838 C 1617.28 2.80513 -2.01013 0
M  V30 17839 C 1616.4 2.80287 -3.2873 0
M  V30 17840 C 1615.53 4.08747 -3.39263 0
M  V30 17841 C 1614.57 4.02699 -4.60977 0
M  V30 17842 N 1613.71 5.22825 -4.68614 0
M  V30 17843 H 1618.55 1.19884 -2.72822 0
M  V30 17844 H 1616.08 0.580984 -1.35141 0
M  V30 17845 H 1618.04 3.60011 -2.10827 0
M  V30 17846 H 1616.67 3.02698 -1.12134 0
M  V30 17847 H 1615.72 1.92968 -3.27822 0
M  V30 17848 H 1617.04 2.71693 -4.18311 0
M  V30 17849 H 1616.19 4.96663 -3.4844 0
M  V30 17850 H 1614.93 4.20106 -2.47715 0
M  V30 17851 H 1613.93 3.13168 -4.51892 0
M  V30 17852 H 1615.16 3.92934 -5.53877 0
M  V30 17853 H 1613.11 5.34752 -3.79969 0
M  V30 17854 H 1613.02 5.16437 -5.52113 0
M  V30 17855 H 1614.29 6.12548 -4.82085 0
M  V30 17856 N 1618.52 1.45038 0.616577 0
M  V30 17857 C 1619.47 1.53022 1.7278 0
M  V30 17858 C 1620.44 0.376778 1.6177 0
M  V30 17859 O 1621.62 0.589006 1.81481 0
M  V30 17860 C 1618.76 1.49432 3.11069 0
M  V30 17861 C 1617.87 2.7526 3.3295 0
M  V30 17862 C 1617.01 2.63403 4.61294 0
M  V30 17863 C 1616.05 3.84327 4.76402 0
M  V30 17864 N 1615.19 3.71058 5.96037 0
M  V30 17865 H 1620.03 2.47957 1.65292 0
M  V30 17866 H 1617.56 1.23046 0.806102 0
M  V30 17867 H 1619.52 1.45339 3.91066 0
M  V30 17868 H 1618.15 0.580542 3.17537 0
M  V30 17869 H 1617.2 2.89479 2.46792 0
M  V30 17870 H 1618.51 3.64978 3.39989 0
M  V30 17871 H 1617.67 2.57226 5.49472 0
M  V30 17872 H 1616.41 1.7127 4.56638 0
M  V30 17873 H 1615.41 3.90873 3.8665 0
M  V30 17874 H 1616.64 4.77515 4.82863 0
M  V30 17875 H 1614.58 2.81687 5.92443 0
M  V30 17876 H 1614.5 4.54403 6.04197 0
M  V30 17877 H 1615.77 3.68798 6.86738 0
M  V30 17878 N 1620 -0.858287 1.32179 0
M  V30 17879 C 1620.93 -1.97304 1.16636 0
M  V30 17880 C 1621.94 -1.62478 0.102311 0
M  V30 17881 O 1623.13 -1.75016 0.350926 0
M  V30 17882 C 1620.23 -3.30215 0.762337 0
M  V30 17883 C 1619.4 -3.93305 1.9139 0
M  V30 17884 C 1618.46 -5.04545 1.49402 0
M  V30 17885 O 1617.49 -5.24735 2.20548 0
M  V30 17886 N 1618.69 -5.79202 0.387984 0
M  V30 17887 H 1621.46 -2.11179 2.12658 0
M  V30 17888 H 1619.02 -1.03294 1.24668 0
M  V30 17889 H 1621.01 -4.02032 0.463922 0
M  V30 17890 H 1619.58 -3.12418 -0.10662 0
M  V30 17891 H 1618.8 -3.1432 2.37901 0
M  V30 17892 H 1620.09 -4.32192 2.68492 0
M  V30 17893 H 1619.49 -5.65331 -0.204252 0
M  V30 17894 H 1618.04 -6.51629 0.149158 0
M  V30 17895 N 1621.48 -1.1533 -1.07409 0
M  V30 17896 C 1622.41 -0.807289 -2.14512 0
M  V30 17897 C 1623.42 0.18043 -1.61797 0
M  V30 17898 O 1624.61 -0.042733 -1.78449 0
M  V30 17899 C 1621.71 -0.179338 -3.38425 0
M  V30 17900 C 1620.88 -1.20433 -4.20493 0
M  V30 17901 C 1619.94 -0.598268 -5.22788 0
M  V30 17902 O 1618.97 -1.26405 -5.54987 0
M  V30 17903 N 1620.17 0.620283 -5.77177 0
M  V30 17904 H 1622.93 -1.729 -2.44797 0
M  V30 17905 H 1620.5 -1.0491 -1.23311 0
M  V30 17906 H 1622.49 0.238867 -4.03994 0
M  V30 17907 H 1621.06 0.645706 -3.05858 0
M  V30 17908 H 1620.28 -1.79912 -3.5075 0
M  V30 17909 H 1621.57 -1.89642 -4.72137 0
M  V30 17910 H 1620.96 1.17958 -5.53265 0
M  V30 17911 H 1619.52 0.980853 -6.44378 0
M  V30 17912 N 1622.95 1.25748 -0.950004 0
M  V30 17913 C 1623.86 2.29783 -0.472971 0
M  V30 17914 C 1624.88 1.6788 0.457403 0
M  V30 17915 O 1626.06 1.98598 0.334779 0
M  V30 17916 C 1623.12 3.45826 0.245955 0
M  V30 17917 C 1622.18 4.23184 -0.722063 0
M  V30 17918 C 1621.41 5.33687 -0.0373517 0
M  V30 17919 O 1621.64 5.58105 1.1779 0
M  V30 17920 O 1620.57 5.97572 -0.72054 0
M  V30 17921 H 1624.4 2.72668 -1.33737 0
M  V30 17922 H 1621.98 1.31111 -0.71626 0
M  V30 17923 H 1623.86 4.16348 0.650563 0
M  V30 17924 H 1622.54 3.04953 1.0856 0
M  V30 17925 H 1621.45 3.55109 -1.17679 0
M  V30 17926 H 1622.78 4.67829 -1.52959 0
M  V30 17927 N 1624.43 0.718038 1.40292 0
M  V30 17928 C 1625.68 0.255581 2.00074 0
M  V30 17929 C 1625.99 -1.15859 1.57594 0
M  V30 17930 O 1627.2 -1.71969 2.10092 0
M  V30 17931 C 1625.66 0.406019 3.57602 0
M  V30 17932 C 1625.26 1.82699 4.09054 0
M  V30 17933 C 1627.01 0.00447854 4.245 0
M  V30 17934 C 1624.91 1.92788 5.59094 0
M  V30 17935 H 1623.84 0.0918012 0.748391 0
M  V30 17936 H 1626.5 0.88948 1.60501 0
M  V30 17937 H 1624.88 -0.296504 3.94888 0
M  V30 17938 H 1626.05 2.56009 3.8314 0
M  V30 17939 H 1624.37 2.18021 3.54761 0
M  V30 17940 H 1626.96 0.05911 5.34667 0
M  V30 17941 H 1627.31 -1.03779 4.03157 0
M  V30 17942 H 1627.84 0.657535 3.92328 0
M  V30 17943 H 1624.58 2.95145 5.85295 0
M  V30 17944 H 1624.1 1.23893 5.86865 0
M  V30 17945 H 1625.78 1.70114 6.24236 0
M  V30 17946 N 1625.91 -1.50602 0.464402 0
M  V30 17947 C 1627.16 -2.02587 -0.0930295 0
M  V30 17948 C 1627.49 -1.34618 -1.3997 0
M  V30 17949 O 1626.76 -0.469711 -1.88743 0
M  V30 17950 C 1627.05 -3.5898 -0.283783 0
M  V30 17951 C 1626.9 -4.3753 1.04344 0
M  V30 17952 C 1628.22 -4.27602 -1.04138 0
M  V30 17953 H 1625.34 -0.73629 -0.0323356 0
M  V30 17954 H 1627.98 -1.79986 0.608687 0
M  V30 17955 H 1626.13 -3.78368 -0.881488 0
M  V30 17956 H 1627.8 -4.29729 1.67721 0
M  V30 17957 H 1626.05 -4.01536 1.64168 0
M  V30 17958 H 1626.72 -5.45201 0.863691 0
M  V30 17959 H 1629.19 -4.12649 -0.534822 0
M  V30 17960 H 1628.07 -5.36854 -1.14364 0
M  V30 17961 H 1628.33 -3.9031 -2.0763 0
M  V30 17962 N 1627.39 -0.19675 -1.56367 0
M  V30 17963 C 1628.35 0.709734 -2.17934 0
M  V30 17964 C 1629.35 1.13979 -1.13426 0
M  V30 17965 O 1630.54 1.05261 -1.38801 0
M  V30 17966 C 1627.67 1.96917 -2.78274 0
M  V30 17967 H 1628.87 0.173342 -2.99399 0
M  V30 17968 H 1626.42 0.0528698 -1.56211 0
M  V30 17969 H 1627.15 2.54804 -2.00613 0
M  V30 17970 H 1626.94 1.66951 -3.54781 0
M  V30 17971 H 1628.43 2.61554 -3.25545 0
M  V30 17972 N 1628.87 1.57413 0.0768405 0
M  V30 17973 C 1629.8 2.00058 1.11845 0
M  V30 17974 C 1630.81 0.905783 1.35275 0
M  V30 17975 O 1632 1.18372 1.33605 0
M  V30 17976 C 1629.1 2.32002 2.47039 0
M  V30 17977 C 1628.27 3.63265 2.43634 0
M  V30 17978 C 1627.33 3.82937 3.60896 0
M  V30 17979 O 1626.36 4.54582 3.42555 0
M  V30 17980 N 1627.56 3.24904 4.81059 0
M  V30 17981 H 1630.33 2.90026 0.75533 0
M  V30 17982 H 1627.89 1.59707 0.265567 0
M  V30 17983 H 1629.88 2.4234 3.24119 0
M  V30 17984 H 1628.45 1.4795 2.75372 0
M  V30 17985 H 1627.67 3.63727 1.51974 0
M  V30 17986 H 1628.96 4.49462 2.38455 0
M  V30 17987 H 1628.35 2.66742 4.98864 0
M  V30 17988 H 1626.91 3.40699 5.55669 0
M  V30 17989 N 1630.34 -0.348112 1.53707 0
M  V30 17990 C 1631.25 -1.45079 1.84361 0
M  V30 17991 C 1632.27 -1.5779 0.733375 0
M  V30 17992 O 1633.45 -1.73353 1.02522 0
M  V30 17993 C 1630.51 -2.80127 2.04278 0
M  V30 17994 C 1629.57 -2.76799 3.28148 0
M  V30 17995 C 1628.81 -4.05406 3.47105 0
M  V30 17996 O 1629.03 -5.02454 2.69992 0
M  V30 17997 O 1627.96 -4.10155 4.40519 0
M  V30 17998 H 1631.79 -1.22093 2.78077 0
M  V30 17999 H 1629.37 -0.539863 1.39305 0
M  V30 18000 H 1631.26 -3.60115 2.18849 0
M  V30 18001 H 1629.93 -3.03055 1.13751 0
M  V30 18002 H 1628.84 -1.95448 3.18984 0
M  V30 18003 H 1630.17 -2.58826 4.18653 0
M  V30 18004 N 1631.82 -1.45363 -0.608876 0
M  V30 18005 C 1632.77 -1.53936 -1.71966 0
M  V30 18006 C 1633.74 -0.385352 -1.61568 0
M  V30 18007 O 1634.92 -0.598622 -1.81166 0
M  V30 18008 C 1632.06 -1.51079 -3.10272 0
M  V30 18009 C 1631.18 -2.77022 -3.31486 0
M  V30 18010 C 1630.31 -2.65846 -4.59891 0
M  V30 18011 C 1629.35 -3.86848 -4.74357 0
M  V30 18012 N 1628.49 -3.74214 -5.94061 0
M  V30 18013 H 1633.33 -2.4883 -1.63974 0
M  V30 18014 H 1630.87 -1.23472 -0.799565 0
M  V30 18015 H 1632.82 -1.47411 -3.90289 0
M  V30 18016 H 1631.45 -0.597374 -3.17224 0
M  V30 18017 H 1630.51 -2.90783 -2.45253 0
M  V30 18018 H 1631.82 -3.66776 -3.38049 0
M  V30 18019 H 1630.97 -2.60136 -5.48101 0
M  V30 18020 H 1629.71 -1.73689 -4.55723 0
M  V30 18021 H 1628.72 -3.92918 -3.84572 0
M  V30 18022 H 1629.94 -4.80069 -4.80324 0
M  V30 18023 H 1627.89 -2.84825 -5.9094 0
M  V30 18024 H 1627.8 -4.57601 -6.01779 0
M  V30 18025 H 1629.07 -3.72434 -6.84772 0
M  V30 18026 N 1633.3 0.851265 -1.32632 0
M  V30 18027 C 1634.25 1.98152 -1.21813 0
M  V30 18028 C 1635.24 1.68959 -0.122182 0
M  V30 18029 O 1636.45 1.77724 -0.285332 0
M  V30 18030 H 1632.82 0.650275 -0.377686 0
M  V30 18031 H 1634.79 2.04405 -2.17397 0
M  V30 18032 C 1633.54 3.34141 -0.961521 0
M  V30 18033 H 1632.87 3.57136 -1.79704 0
M  V30 18034 H 1634.31 4.13763 -0.926077 0
M  V30 18035 C 1632.77 3.35223 0.335704 0
M  V30 18036 O 1633.3 3.78461 1.34647 0
M  V30 18037 N 1631.5 2.88376 0.358875 0
M  V30 18038 H 1631.05 2.53383 -0.464194 0
M  V30 18039 H 1631.01 2.89482 1.22668 0
M  V30 18040 N 1634.78 1.15898 1.06796 0
M  V30 18041 C 1635.73 0.829255 2.12385 0
M  V30 18042 C 1636.71 -0.189029 1.59786 0
M  V30 18043 O 1637.9 0.0110547 1.76997 0
M  V30 18044 C 1635.03 0.326484 3.41744 0
M  V30 18045 C 1634.12 1.37525 4.01183 0
M  V30 18046 N 1634.51 2.58419 4.34802 0
M  V30 18047 C 1632.81 1.22931 4.28724 0
M  V30 18048 C 1633.51 3.25684 4.8198 0
M  V30 18049 N 1632.49 2.53068 4.811 0
M  V30 18050 H 1636.29 1.74866 2.36218 0
M  V30 18051 H 1633.8 1.04527 1.24289 0
M  V30 18052 H 1635.8 0.0718935 4.16838 0
M  V30 18053 H 1634.46 -0.586913 3.19352 0
M  V30 18054 H 1635.47 2.95518 4.25311 0
M  V30 18055 H 1632.15 0.376264 4.15801 0
M  V30 18056 H 1633.54 4.28852 5.17238 0
M  V30 18057 N 1636.26 -1.25243 0.956659 0
M  V30 18058 C 1637.22 -2.24054 0.482949 0
M  V30 18059 C 1638.22 -1.55367 -0.41447 0
M  V30 18060 O 1639.41 -1.72912 -0.211475 0
M  V30 18061 C 1636.54 -3.3956 -0.301975 0
M  V30 18062 H 1637.73 -2.67476 1.35634 0
M  V30 18063 H 1635.29 -1.37665 0.740138 0
M  V30 18064 H 1636.02 -3.01561 -1.19294 0
M  V30 18065 H 1635.81 -3.90607 0.341876 0
M  V30 18066 H 1637.3 -4.1293 -0.622807 0
M  V30 18067 N 1637.73 -0.725468 -1.3991 0
M  V30 18068 C 1638.98 -0.266188 -1.99936 0
M  V30 18069 C 1639.3 1.15022 -1.58207 0
M  V30 18070 O 1640.5 1.70853 -2.11001 0
M  V30 18071 C 1638.96 -0.424978 -3.57382 0
M  V30 18072 C 1638.57 -1.84866 -4.08079 0
M  V30 18073 C 1640.31 -0.0269907 -4.24491 0
M  V30 18074 C 1638.22 -1.95751 -5.58064 0
M  V30 18075 H 1637.15 -0.0957688 -0.747893 0
M  V30 18076 H 1639.8 -0.89798 -1.60027 0
M  V30 18077 H 1638.18 0.275558 -3.9504 0
M  V30 18078 H 1639.35 -2.58037 -3.81776 0
M  V30 18079 H 1637.67 -2.199 -3.536 0
M  V30 18080 H 1640.27 -0.0874638 -5.34628 0
M  V30 18081 H 1640.61 1.01639 -4.03702 0
M  V30 18082 H 1641.14 -0.678332 -3.91974 0
M  V30 18083 H 1637.88 -2.98244 -5.83721 0
M  V30 18084 H 1637.4 -1.27004 -5.862 0
M  V30 18085 H 1639.08 -1.73422 -6.23325 0
M  V30 18086 N 1639.21 1.50354 -0.472382 0
M  V30 18087 C 1640.16 2.28555 0.321118 0
M  V30 18088 C 1641.13 1.33665 0.98605 0
M  V30 18089 O 1642.31 1.62603 0.998239 0
M  V30 18090 C 1639.45 3.15586 1.39641 0
M  V30 18091 C 1638.57 4.25508 0.746129 0
M  V30 18092 C 1637.7 4.99794 1.79943 0
M  V30 18093 C 1636.74 6.01589 1.12946 0
M  V30 18094 N 1635.88 6.69149 2.12567 0
M  V30 18095 H 1640.72 2.95913 -0.352051 0
M  V30 18096 H 1638.26 1.45926 -0.185461 0
M  V30 18097 H 1640.21 3.64397 2.03152 0
M  V30 18098 H 1638.84 2.50271 2.03873 0
M  V30 18099 H 1637.9 3.804 -0.00157718 0
M  V30 18100 H 1639.21 4.98326 0.217335 0
M  V30 18101 H 1638.36 5.5233 2.51031 0
M  V30 18102 H 1637.1 4.26684 2.36203 0
M  V30 18103 H 1636.11 5.48312 0.404207 0
M  V30 18104 H 1637.33 6.76672 0.573735 0
M  V30 18105 H 1635.28 5.9883 2.67841 0
M  V30 18106 H 1635.19 7.37847 1.64676 0
M  V30 18107 H 1636.46 7.26301 2.83031 0
M  V30 18108 N 1640.69 0.205039 1.56261 0
M  V30 18109 C 1641.64 -0.711828 2.19549 0
M  V30 18110 C 1642.61 -1.2025 1.14582 0
M  V30 18111 O 1643.79 -1.26459 1.42873 0
M  V30 18112 C 1640.93 -1.92152 2.86656 0
M  V30 18113 C 1640.05 -1.47129 4.06174 0
M  V30 18114 C 1639.18 -2.63726 4.6111 0
M  V30 18115 C 1638.22 -2.15357 5.72964 0
M  V30 18116 N 1637.36 -3.25167 6.22263 0
M  V30 18117 H 1642.2 -0.165392 2.97541 0
M  V30 18118 H 1639.73 -0.0698889 1.46934 0
M  V30 18119 H 1641.69 -2.63152 3.23739 0
M  V30 18120 H 1640.32 -2.4411 2.11211 0
M  V30 18121 H 1639.37 -0.656797 3.74687 0
M  V30 18122 H 1640.69 -1.0765 4.87045 0
M  V30 18123 H 1639.84 -3.42833 5.0055 0
M  V30 18124 H 1638.58 -3.06484 3.79367 0
M  V30 18125 H 1637.58 -1.34706 5.33043 0
M  V30 18126 H 1638.81 -1.73618 6.56532 0
M  V30 18127 H 1636.76 -3.67438 5.43439 0
M  V30 18128 H 1636.67 -2.89888 6.98213 0
M  V30 18129 H 1637.94 -4.0446 6.66358 0
M  V30 18130 N 1642.17 -1.57451 -0.0684915 0
M  V30 18131 C 1643.08 -2.07274 -1.09885 0
M  V30 18132 C 1644.1 -1.00295 -1.42186 0
M  V30 18133 O 1645.27 -1.31786 -1.52297 0
M  V30 18134 C 1642.34 -2.50949 -2.39219 0
M  V30 18135 C 1641.4 -3.7224 -2.13859 0
M  V30 18136 C 1640.63 -4.13823 -3.37026 0
M  V30 18137 O 1640.85 -3.55248 -4.46268 0
M  V30 18138 O 1639.79 -5.06587 -3.25044 0
M  V30 18139 H 1643.61 -2.9539 -0.705587 0
M  V30 18140 H 1641.2 -1.46698 -0.282849 0
M  V30 18141 H 1643.08 -2.79547 -3.15327 0
M  V30 18142 H 1641.76 -1.6596 -2.77919 0
M  V30 18143 H 1640.66 -3.4872 -1.35445 0
M  V30 18144 H 1642 -4.58091 -1.80038 0
M  V30 18145 N 1643.65 0.339955 -1.5389 0
M  V30 18146 C 1644.9 1.07766 -1.7097 0
M  V30 18147 C 1645.22 1.89064 -0.477486 0
M  V30 18148 O 1644.49 1.89183 0.508579 0
M  V30 18149 H 1643.07 0.400849 -0.630341 0
M  V30 18150 H 1645.73 0.380359 -1.91153 0
M  V30 18151 H 1644.82 1.75301 -2.58217 0
M  V30 18152 N 1645.13 1.45684 0.601159 0
M  V30 18153 C 1646.04 1.57396 1.73965 0
M  V30 18154 C 1647.05 0.458133 1.6786 0
M  V30 18155 O 1648.23 0.719717 1.88101 0
M  V30 18156 C 1645.29 1.54363 3.1044 0
M  V30 18157 C 1644.35 2.77034 3.27949 0
M  V30 18158 C 1643.59 2.74136 4.57914 0
M  V30 18159 O 1643.81 1.81829 5.40643 0
M  V30 18160 O 1642.74 3.65428 4.78274 0
M  V30 18161 H 1646.57 2.5364 1.67034 0
M  V30 18162 H 1644.15 1.28267 0.766017 0
M  V30 18163 H 1646.04 1.55302 3.91739 0
M  V30 18164 H 1644.71 0.612723 3.17848 0
M  V30 18165 H 1643.62 2.81655 2.46214 0
M  V30 18166 H 1644.95 3.69272 3.25422 0
M  V30 18167 N 1646.6 -0.84422 1.33082 0
M  V30 18168 C 1647.53 -1.96899 1.25511 0
M  V30 18169 C 1648.51 -1.69549 0.13677 0
M  V30 18170 O 1649.7 -1.9145 0.325667 0
M  V30 18171 C 1646.83 -3.32947 0.988094 0
M  V30 18172 C 1645.78 -3.7468 2.06879 0
M  V30 18173 C 1645.11 -5.08475 1.65401 0
M  V30 18174 C 1646.41 -3.89033 3.48498 0
M  V30 18175 H 1648.1 -2.03491 2.19617 0
M  V30 18176 H 1645.65 -0.977659 1.05725 0
M  V30 18177 H 1647.6 -4.11198 0.921645 0
M  V30 18178 H 1646.33 -3.26598 0.0114067 0
M  V30 18179 H 1644.99 -2.98689 2.12557 0
M  V30 18180 H 1644.63 -4.98592 0.66449 0
M  V30 18181 H 1644.33 -5.37368 2.37717 0
M  V30 18182 H 1645.86 -5.89207 1.60212 0
M  V30 18183 H 1647.27 -4.57609 3.4535 0
M  V30 18184 H 1645.67 -4.29357 4.19253 0
M  V30 18185 H 1646.74 -2.91639 3.87395 0
M  V30 18186 N 1648.08 -1.16463 -1.0618 0
M  V30 18187 C 1649.31 -0.97159 -1.83235 0
M  V30 18188 C 1649.73 0.475295 -1.81996 0
M  V30 18189 O 1649.09 1.33964 -1.22161 0
M  V30 18190 C 1649.14 -1.50504 -3.2769 0
M  V30 18191 O 1648.24 -0.712128 -4.06205 0
M  V30 18192 H 1647.58 -0.345676 -0.566925 0
M  V30 18193 H 1650.11 -1.54727 -1.33868 0
M  V30 18194 H 1650.12 -1.52301 -3.78508 0
M  V30 18195 H 1648.8 -2.55832 -3.27907 0
M  V30 18196 H 1647.37 -0.764756 -3.64974 0
M  V30 18197 N 1649.56 1.24734 -0.963288 0
M  V30 18198 C 1650.98 1.44897 -0.669103 0
M  V30 18199 C 1651.18 1.86185 0.770541 0
M  V30 18200 O 1650.23 1.99721 1.54492 0
M  V30 18201 C 1651.54 2.51425 -1.64943 0
M  V30 18202 C 1653.09 2.65256 -1.66157 0
M  V30 18203 C 1653.57 3.74977 -2.62976 0
M  V30 18204 N 1655.06 3.82399 -2.61391 0
M  V30 18205 C 1655.79 4.66809 -3.32981 0
M  V30 18206 N 1655.29 5.55441 -4.14073 0
M  V30 18207 N 1657.08 4.60851 -3.21827 0
M  V30 18208 H 1649.23 0.962292 -1.89351 0
M  V30 18209 H 1651.5 0.4843 -0.814958 0
M  V30 18210 H 1651.2 2.27965 -2.67815 0
M  V30 18211 H 1651.08 3.49503 -1.41872 0
M  V30 18212 H 1653.46 2.88077 -0.639978 0
M  V30 18213 H 1653.54 1.67551 -1.93288 0
M  V30 18214 H 1653.19 3.52907 -3.65266 0
M  V30 18215 H 1653.12 4.72187 -2.33125 0
M  V30 18216 H 1655.61 3.19048 -2.02527 0
M  V30 18217 H 1655.92 6.16798 -4.65597 0
M  V30 18218 H 1654.27 5.55121 -4.18169 0
M  V30 18219 H 1657.46 3.90621 -2.5794 0
M  V30 18220 H 1657.63 5.26411 -3.77883 0
M  V30 18221 N 1651.04 0.732878 1.39523 0
M  V30 18222 C 1652.27 0.29007 2.04857 0
M  V30 18223 C 1652.68 -1.07435 1.55252 0
M  V30 18224 O 1652.04 -1.67847 0.716497 0
M  V30 18225 C 1652.09 0.280464 3.6041 0
M  V30 18226 O 1651.81 1.59102 4.08189 0
M  V30 18227 C 1653.31 -0.178772 4.42939 0
M  V30 18228 H 1650.53 0.12716 0.658841 0
M  V30 18229 H 1653.07 0.995933 1.7861 0
M  V30 18230 H 1651.23 -0.376494 3.85566 0
M  V30 18231 H 1651.64 1.50314 5.025 0
M  V30 18232 H 1653.12 -0.134335 5.51837 0
M  V30 18233 H 1653.59 -1.22362 4.21811 0
M  V30 18234 H 1654.2 0.448543 4.22928 0
M  V30 18235 N 1652.52 -1.50101 0.480349 0
M  V30 18236 C 1653.76 -2.0428 -0.0700589 0
M  V30 18237 C 1654.12 -1.35372 -1.36155 0
M  V30 18238 O 1655.32 -1.80157 -1.99492 0
M  V30 18239 C 1653.59 -3.56591 -0.240285 0
M  V30 18240 S 1655.15 -4.32379 -0.747916 0
M  V30 18241 H 1651.97 -0.710906 -0.0115761 0
M  V30 18242 H 1654.57 -1.84392 0.649604 0
M  V30 18243 H 1653.27 -4.04294 0.705315 0
M  V30 18244 H 1652.81 -3.80849 -0.985792 0
M  V30 18245 H 1654.82 -4.5322 -2.02005 0
M  V30 18246 N 1653.99 -0.213323 -1.5615 0
M  V30 18247 C 1655.27 0.469174 -1.8989 0
M  V30 18248 C 1655.65 1.78341 -1.1295 0
M  V30 18249 O 1655 2.27276 -0.236236 0
M  V30 18250 C 1655.21 0.67017 -3.42505 0
M  V30 18251 C 1656.56 0.981324 -4.13104 0
M  V30 18252 O 1657.58 0.757249 -3.48058 0
M  V30 18253 O 1656.44 1.40614 -5.281 0
M  V30 18254 H 1653.53 0.246943 -0.789271 0
M  V30 18255 H 1656.08 -0.254896 -1.67775 0
M  V30 18256 H 1654.85 -0.257189 -3.90454 0
M  V30 18257 H 1654.47 1.44603 -3.70372 0
M  V30 18258 N 1655.47 1.57485 0.0601405 0
M  V30 18259 C 1656.89 1.54105 0.415187 0
M  V30 18260 C 1657.09 0.935177 1.78484 0
M  V30 18261 O 1656.14 0.542715 2.46599 0
M  V30 18262 C 1657.46 2.98708 0.34555 0
M  V30 18263 C 1659.01 3.10103 0.424895 0
M  V30 18264 C 1659.48 4.56379 0.385041 0
M  V30 18265 N 1660.97 4.6106 0.444771 0
M  V30 18266 C 1661.71 5.71737 0.436334 0
M  V30 18267 N 1661.2 6.91746 0.38202 0
M  V30 18268 N 1663 5.60014 0.483759 0
M  V30 18269 H 1655.15 1.95232 -0.836565 0
M  V30 18270 H 1657.41 0.894101 -0.3151 0
M  V30 18271 H 1657.12 3.4664 -0.594427 0
M  V30 18272 H 1656.99 3.59201 1.15129 0
M  V30 18273 H 1659.38 2.62137 1.3553 0
M  V30 18274 H 1659.46 2.52499 -0.409633 0
M  V30 18275 H 1659.1 5.05004 -0.541561 0
M  V30 18276 H 1659.03 5.11859 1.23726 0
M  V30 18277 H 1661.52 3.74703 0.490522 0
M  V30 18278 H 1661.84 7.71866 0.379829 0
M  V30 18279 H 1660.18 6.94126 0.348532 0
M  V30 18280 H 1663.37 4.65158 0.523965 0
M  V30 18281 H 1663.54 6.46266 0.473715 0
M  V30 18282 N 1656.95 -0.331789 1.54068 0
M  V30 18283 C 1657.88 -1.41332 1.8587 0
M  V30 18284 C 1658.86 -1.54353 0.714787 0
M  V30 18285 O 1660.05 -1.68368 0.967777 0
M  V30 18286 C 1657.18 -2.78218 2.07875 0
M  V30 18287 C 1656.13 -2.79994 3.23709 0
M  V30 18288 C 1655.46 -4.19878 3.31069 0
M  V30 18289 C 1656.76 -2.44476 4.6155 0
M  V30 18290 H 1658.45 -1.14966 2.76447 0
M  V30 18291 H 1656 -0.551615 1.33016 0
M  V30 18292 H 1657.95 -3.53937 2.28706 0
M  V30 18293 H 1656.67 -3.06044 1.14038 0
M  V30 18294 H 1655.33 -2.0673 3.02751 0
M  V30 18295 H 1654.98 -4.44831 2.34807 0
M  V30 18296 H 1654.68 -4.21974 4.08915 0
M  V30 18297 H 1656.2 -4.97421 3.54125 0
M  V30 18298 H 1657.62 -3.09908 4.82317 0
M  V30 18299 H 1656.02 -2.57837 5.41886 0
M  V30 18300 H 1657.09 -1.3964 4.64358 0
M  V30 18301 N 1658.43 -1.46001 -0.593424 0
M  V30 18302 C 1659.39 -1.55347 -1.68523 0
M  V30 18303 C 1660.39 -0.431599 -1.549 0
M  V30 18304 O 1661.58 -0.695559 -1.59711 0
M  V30 18305 C 1658.71 -1.46355 -3.07885 0
M  V30 18306 H 1659.91 -2.52639 -1.61597 0
M  V30 18307 H 1657.46 -1.33652 -0.810363 0
M  V30 18308 H 1658.19 -0.503024 -3.20375 0
M  V30 18309 H 1657.98 -2.27741 -3.19181 0
M  V30 18310 H 1659.47 -1.55958 -3.87385 0
M  V30 18311 N 1659.91 0.83715 -1.33527 0
M  V30 18312 C 1660.82 1.97915 -1.25964 0
M  V30 18313 C 1661.83 1.73169 -0.169894 0
M  V30 18314 O 1663.01 1.97513 -0.393793 0
M  V30 18315 C 1660.07 3.31945 -1.00068 0
M  V30 18316 C 1659.13 3.69795 -2.1806 0
M  V30 18317 C 1658.37 4.97429 -1.9339 0
M  V30 18318 O 1658.59 5.63492 -0.885069 0
M  V30 18319 O 1657.52 5.32823 -2.79969 0
M  V30 18320 H 1661.35 2.07236 -2.22007 0
M  V30 18321 H 1658.94 0.970437 -1.13591 0
M  V30 18322 H 1660.82 4.12248 -0.873487 0
M  V30 18323 H 1659.49 3.23623 -0.0705475 0
M  V30 18324 H 1658.4 2.89995 -2.36334 0
M  V30 18325 H 1659.73 3.82784 -3.09414 0
M  V30 18326 N 1661.38 1.17024 1.05561 0
M  V30 18327 C 1662.63 0.957742 1.7876 0
M  V30 18328 C 1662.96 -0.512652 1.87311 0
M  V30 18329 O 1662.24 -1.38047 1.37016 0
M  V30 18330 C 1662.52 1.59495 3.22852 0
M  V30 18331 C 1662.37 3.13719 3.22336 0
M  V30 18332 C 1663.69 1.29576 4.20593 0
M  V30 18333 H 1660.81 0.349354 0.648938 0
M  V30 18334 H 1663.45 1.44467 1.23408 0
M  V30 18335 H 1661.6 1.18091 3.70117 0
M  V30 18336 H 1663.28 3.64156 2.83175 0
M  V30 18337 H 1661.52 3.46664 2.60781 0
M  V30 18338 H 1662.19 3.5343 4.24018 0
M  V30 18339 H 1664.67 1.65423 3.81804 0
M  V30 18340 H 1663.54 1.76751 5.19663 0
M  V30 18341 H 1663.8 0.21589 4.41573 0
M  V30 18342 N 1662.86 -1.24221 0.969889 0
M  V30 18343 C 1663.77 -2.29001 0.509467 0
M  V30 18344 C 1664.79 -1.68587 -0.430637 0
M  V30 18345 O 1665.96 -1.99106 -0.303142 0
M  V30 18346 C 1663.03 -3.46174 -0.190906 0
M  V30 18347 C 1662.09 -4.21982 0.789296 0
M  V30 18348 C 1661.32 -5.3356 0.122252 0
M  V30 18349 O 1661.55 -5.59909 -1.08896 0
M  V30 18350 O 1660.48 -5.9635 0.815517 0
M  V30 18351 H 1664.31 -2.70506 1.38058 0
M  V30 18352 H 1661.89 -1.29955 0.737028 0
M  V30 18353 H 1663.77 -4.1733 -0.584244 0
M  V30 18354 H 1662.45 -3.06642 -1.03695 0
M  V30 18355 H 1661.36 -3.53192 1.23313 0
M  V30 18356 H 1662.69 -4.65337 1.60382 0
M  V30 18357 N 1664.34 -0.740267 -1.39132 0
M  V30 18358 C 1665.25 -0.105452 -2.34363 0
M  V30 18359 C 1666.27 0.715908 -1.5859 0
M  V30 18360 O 1667.44 0.643155 -1.90855 0
M  V30 18361 C 1664.51 0.787141 -3.37646 0
M  V30 18362 C 1663.57 -0.047071 -4.29274 0
M  V30 18363 C 1662.8 0.803014 -5.27624 0
M  V30 18364 O 1663.02 2.04155 -5.32613 0
M  V30 18365 O 1661.96 0.228879 -6.01465 0
M  V30 18366 H 1665.78 -0.891588 -2.90318 0
M  V30 18367 H 1663.37 -0.500996 -1.40749 0
M  V30 18368 H 1665.25 1.29769 -4.00921 0
M  V30 18369 H 1663.93 1.552 -2.84068 0
M  V30 18370 H 1662.83 -0.603265 -3.69204 0
M  V30 18371 H 1664.17 -0.774273 -4.86072 0
M  V30 18372 N 1665.82 1.49844 -0.488302 0
M  V30 18373 C 1666.77 2.28883 0.296859 0
M  V30 18374 C 1667.74 1.34703 0.971818 0
M  V30 18375 O 1668.92 1.63653 0.980937 0
M  V30 18376 C 1666.06 3.17049 1.36286 0
M  V30 18377 C 1665.17 4.26275 0.700956 0
M  V30 18378 C 1664.31 5.01674 1.74632 0
M  V30 18379 C 1663.35 6.02753 1.06559 0
M  V30 18380 N 1662.48 6.71366 2.05457 0
M  V30 18381 H 1667.32 2.95523 -0.383417 0
M  V30 18382 H 1664.86 1.45721 -0.200928 0
M  V30 18383 H 1666.82 3.66531 1.99276 0
M  V30 18384 H 1665.45 2.52419 2.01207 0
M  V30 18385 H 1664.5 3.80377 -0.0419236 0
M  V30 18386 H 1665.81 4.98529 0.164469 0
M  V30 18387 H 1664.97 5.54961 2.45159 0
M  V30 18388 H 1663.71 4.29166 2.31664 0
M  V30 18389 H 1662.71 5.4871 0.346029 0
M  V30 18390 H 1663.94 6.77243 0.501932 0
M  V30 18391 H 1661.88 6.01637 2.61475 0
M  V30 18392 H 1661.8 7.39552 1.56841 0
M  V30 18393 H 1663.07 7.29262 2.75312 0
M  V30 18394 N 1667.3 0.221601 1.56034 0
M  V30 18395 C 1668.23 -0.683171 2.23282 0
M  V30 18396 C 1669.21 -1.20101 1.20456 0
M  V30 18397 O 1670.39 -1.245 1.49041 0
M  V30 18398 C 1667.52 -1.89143 2.91277 0
M  V30 18399 C 1666.48 -1.50742 4.00576 0
M  V30 18400 C 1665.8 -2.79446 4.55867 0
M  V30 18401 C 1667.1 -0.697388 5.17623 0
M  V30 18402 H 1668.8 -0.122488 2.99149 0
M  V30 18403 H 1666.34 -0.0574732 1.43885 0
M  V30 18404 H 1668.3 -2.52982 3.37013 0
M  V30 18405 H 1667.02 -2.47708 2.12858 0
M  V30 18406 H 1665.68 -0.892492 3.5557 0
M  V30 18407 H 1665.33 -3.36155 3.74177 0
M  V30 18408 H 1665.03 -2.54486 5.29633 0
M  V30 18409 H 1666.55 -3.44228 5.04321 0
M  V30 18410 H 1667.96 -1.23948 5.59741 0
M  V30 18411 H 1666.36 -0.544875 5.97621 0
M  V30 18412 H 1667.43 0.295981 4.83996 0
M  V30 18413 N 1668.77 -1.57515 -0.0517878 0
M  V30 18414 C 1669.72 -2.05051 -1.05937 0
M  V30 18415 C 1670.69 -0.935032 -1.37282 0
M  V30 18416 O 1671.88 -1.20408 -1.48009 0
M  V30 18417 C 1669.02 -2.51594 -2.36208 0
M  V30 18418 C 1668.13 -3.76843 -2.11219 0
M  V30 18419 C 1667.26 -4.12088 -3.35197 0
M  V30 18420 C 1666.3 -5.30318 -3.05662 0
M  V30 18421 N 1665.44 -5.61104 -4.22026 0
M  V30 18422 H 1670.28 -2.90891 -0.647027 0
M  V30 18423 H 1667.82 -1.43842 -0.307891 0
M  V30 18424 H 1669.78 -2.76638 -3.12293 0
M  V30 18425 H 1668.41 -1.68704 -2.75207 0
M  V30 18426 H 1667.46 -3.5902 -1.25734 0
M  V30 18427 H 1668.77 -4.63057 -1.85416 0
M  V30 18428 H 1667.92 -4.38139 -4.19666 0
M  V30 18429 H 1666.66 -3.24479 -3.64094 0
M  V30 18430 H 1665.67 -5.04043 -2.19592 0
M  V30 18431 H 1666.89 -6.19561 -2.78067 0
M  V30 18432 H 1664.84 -4.76456 -4.50917 0
M  V30 18433 H 1664.76 -6.4178 -3.99568 0
M  V30 18434 H 1666.02 -5.91719 -5.07434 0
M  V30 18435 N 1670.25 0.323614 -1.54242 0
M  V30 18436 C 1671.16 1.42128 -1.86646 0
M  V30 18437 C 1672.18 1.56603 -0.758385 0
M  V30 18438 O 1673.36 1.717 -1.05267 0
M  V30 18439 C 1670.42 2.76842 -2.08709 0
M  V30 18440 C 1669.48 2.71543 -3.3251 0
M  V30 18441 C 1668.71 3.99833 -3.5351 0
M  V30 18442 O 1668.94 4.98095 -2.77952 0
M  V30 18443 O 1667.87 4.03095 -4.46988 0
M  V30 18444 H 1671.7 1.17653 -2.79985 0
M  V30 18445 H 1669.28 0.517632 -1.40146 0
M  V30 18446 H 1671.16 3.56588 -2.24551 0
M  V30 18447 H 1669.84 3.01207 -1.18558 0
M  V30 18448 H 1668.75 1.90348 -3.22053 0
M  V30 18449 H 1670.08 2.52133 -4.22717 0
M  V30 18450 N 1671.73 1.46313 0.585673 0
M  V30 18451 C 1672.68 1.56653 1.69495 0
M  V30 18452 C 1673.65 0.411007 1.60935 0
M  V30 18453 O 1674.83 0.627369 1.80191 0
M  V30 18454 C 1671.97 1.55996 3.0783 0
M  V30 18455 C 1671.09 2.82261 3.27036 0
M  V30 18456 C 1670.22 2.73129 4.55603 0
M  V30 18457 C 1669.26 3.94346 4.68143 0
M  V30 18458 N 1668.4 3.83617 5.88032 0
M  V30 18459 H 1673.24 2.51407 1.59995 0
M  V30 18460 H 1670.77 1.24729 0.779821 0
M  V30 18461 H 1672.73 1.53602 3.87895 0
M  V30 18462 H 1671.36 0.647766 3.16234 0
M  V30 18463 H 1670.41 2.94648 2.40596 0
M  V30 18464 H 1671.73 3.72107 3.32171 0
M  V30 18465 H 1670.88 2.68823 5.43893 0
M  V30 18466 H 1669.62 1.80917 4.52902 0
M  V30 18467 H 1668.62 3.98987 3.78272 0
M  V30 18468 H 1669.85 4.8765 4.72625 0
M  V30 18469 H 1667.8 2.9419 5.86334 0
M  V30 18470 H 1667.71 4.67117 5.94422 0
M  V30 18471 H 1668.98 3.83281 6.7876 0
M  V30 18472 N 1673.21 -0.830057 1.33969 0
M  V30 18473 C 1674.43 -1.62294 1.29133 0
M  V30 18474 C 1674.86 -1.87627 -0.133253 0
M  V30 18475 O 1674.22 -1.44669 -1.09272 0
M  V30 18476 C 1674.27 -2.94508 2.0808 0
M  V30 18477 O 1673.37 -3.86239 1.44544 0
M  V30 18478 H 1672.71 -0.493865 0.443839 0
M  V30 18479 H 1675.24 -1.03202 1.76665 0
M  V30 18480 H 1675.25 -3.44133 2.19173 0
M  V30 18481 H 1673.93 -2.75392 3.1166 0
M  V30 18482 H 1672.5 -3.44743 1.42151 0
M  V30 18483 N 1674.69 -1.17582 -1.04939 0
M  V30 18484 C 1675.62 -0.852608 -2.12752 0
M  V30 18485 C 1676.63 0.14607 -1.62143 0
M  V30 18486 O 1677.82 -0.0805751 -1.78318 0
M  V30 18487 C 1674.92 -0.251083 -3.37969 0
M  V30 18488 C 1674.09 -1.29325 -4.17844 0
M  V30 18489 C 1673.15 -0.709025 -5.21401 0
M  V30 18490 O 1672.18 -1.38149 -5.52181 0
M  V30 18491 N 1673.38 0.497716 -5.78362 0
M  V30 18492 H 1676.15 -1.78054 -2.41074 0
M  V30 18493 H 1673.71 -1.07502 -1.21058 0
M  V30 18494 H 1675.7 0.15312 -4.0441 0
M  V30 18495 H 1674.27 0.580684 -3.07159 0
M  V30 18496 H 1673.49 -1.87311 -3.46855 0
M  V30 18497 H 1674.78 -1.99614 -4.68008 0
M  V30 18498 H 1674.18 1.06196 -5.55643 0
M  V30 18499 H 1672.73 0.843951 -6.46313 0
M  V30 18500 N 1676.17 1.23705 -0.976463 0
M  V30 18501 C 1677.1 2.24297 -0.471538 0
M  V30 18502 C 1678.11 1.57169 0.424484 0
M  V30 18503 O 1679.3 1.77022 0.229252 0
M  V30 18504 C 1676.4 3.37214 0.337621 0
M  V30 18505 C 1675.57 4.33921 -0.550586 0
M  V30 18506 C 1674.63 5.25804 0.204053 0
M  V30 18507 O 1673.66 5.67757 -0.404995 0
M  V30 18508 N 1674.86 5.61021 1.49116 0
M  V30 18509 H 1677.62 2.68252 -1.33645 0
M  V30 18510 H 1675.19 1.37836 -0.849281 0
M  V30 18511 H 1677.18 3.95658 0.850714 0
M  V30 18512 H 1675.75 2.92474 1.10351 0
M  V30 18513 H 1674.97 3.74038 -1.24455 0
M  V30 18514 H 1676.26 4.95493 -1.15604 0
M  V30 18515 H 1675.65 5.28879 2.00757 0
M  V30 18516 H 1674.21 6.21954 1.94978 0
M  V30 18517 N 1677.64 0.747635 1.38738 0
M  V30 18518 C 1678.57 0.131317 2.3313 0
M  V30 18519 C 1679.55 -0.710229 1.54563 0
M  V30 18520 O 1680.74 -0.652631 1.82905 0
M  V30 18521 C 1677.87 -0.767168 3.38721 0
M  V30 18522 C 1676.82 -0.0288124 4.2799 0
M  V30 18523 C 1676.15 -1.04515 5.24386 0
M  V30 18524 C 1677.45 1.13608 5.09795 0
M  V30 18525 H 1679.14 0.91981 2.84921 0
M  V30 18526 H 1676.69 0.443764 1.36992 0
M  V30 18527 H 1678.64 -1.20796 4.03716 0
M  V30 18528 H 1677.37 -1.58792 2.85399 0
M  V30 18529 H 1676.03 0.392491 3.64493 0
M  V30 18530 H 1675.67 -1.8598 4.67355 0
M  V30 18531 H 1675.37 -0.555813 5.84965 0
M  V30 18532 H 1676.9 -1.48538 5.92257 0
M  V30 18533 H 1678.31 0.773129 5.68063 0
M  V30 18534 H 1676.71 1.55589 5.79579 0
M  V30 18535 H 1677.78 1.95182 4.43883 0
M  V30 18536 N 1679.12 -1.49583 0.496242 0
M  V30 18537 C 1680.05 -2.26936 -0.321366 0
M  V30 18538 C 1681.07 -1.33282 -0.934863 0
M  V30 18539 O 1682.26 -1.58602 -0.819008 0
M  V30 18540 C 1679.36 -3.05503 -1.467 0
M  V30 18541 C 1678.53 -4.26697 -0.961687 0
M  V30 18542 C 1677.59 -4.8735 -1.98436 0
M  V30 18543 O 1676.61 -5.47553 -1.55482 0
M  V30 18544 N 1677.82 -4.76577 -3.31443 0
M  V30 18545 H 1680.58 -2.97744 0.341884 0
M  V30 18546 H 1678.14 -1.58532 0.328504 0
M  V30 18547 H 1680.13 -3.42954 -2.1486 0
M  V30 18548 H 1678.7 -2.37334 -2.03449 0
M  V30 18549 H 1677.92 -3.9406 -0.105143 0
M  V30 18550 H 1679.21 -5.05221 -0.602405 0
M  V30 18551 H 1678.61 -4.28756 -3.69032 0
M  V30 18552 H 1677.17 -5.18226 -3.95329 0
M  V30 18553 N 1680.6 -0.229873 -1.55915 0
M  V30 18554 C 1681.51 0.687953 -2.24286 0
M  V30 18555 C 1682.53 1.20705 -1.25325 0
M  V30 18556 O 1683.7 1.2469 -1.58159 0
M  V30 18557 C 1680.77 1.87563 -2.91584 0
M  V30 18558 C 1679.83 1.39769 -4.0591 0
M  V30 18559 C 1679.06 2.52876 -4.69989 0
M  V30 18560 O 1679.28 3.71208 -4.33083 0
M  V30 18561 O 1678.22 2.23603 -5.58825 0
M  V30 18562 H 1682.04 0.135464 -3.03398 0
M  V30 18563 H 1679.63 0.000925172 -1.494 0
M  V30 18564 H 1681.51 2.56907 -3.34031 0
M  V30 18565 H 1680.19 2.41606 -2.15426 0
M  V30 18566 H 1679.09 0.672029 -3.68014 0
M  V30 18567 H 1680.43 0.903543 -4.83836 0
M  V30 18568 N 1682.08 1.5754 0.0434337 0
M  V30 18569 C 1683.02 2.0561 1.04848 0
M  V30 18570 C 1683.99 0.942299 1.36784 0
M  V30 18571 O 1685.18 1.21191 1.47368 0
M  V30 18572 C 1682.32 2.52844 2.3487 0
M  V30 18573 C 1681.43 3.77958 2.09218 0
M  V30 18574 C 1680.57 4.13859 3.33007 0
M  V30 18575 C 1679.61 5.31932 3.02845 0
M  V30 18576 N 1678.74 5.63335 4.19045 0
M  V30 18577 H 1683.58 2.9123 0.631591 0
M  V30 18578 H 1681.12 1.44003 0.300258 0
M  V30 18579 H 1683.08 2.78291 3.10822 0
M  V30 18580 H 1681.71 1.70161 2.74308 0
M  V30 18581 H 1680.76 3.59681 1.23828 0
M  V30 18582 H 1682.07 4.64034 1.82958 0
M  V30 18583 H 1681.23 4.40358 4.17336 0
M  V30 18584 H 1679.97 3.26406 3.62368 0
M  V30 18585 H 1678.97 5.052 2.16916 0
M  V30 18586 H 1680.2 6.21027 2.74777 0
M  V30 18587 H 1678.14 4.7884 4.48384 0
M  V30 18588 H 1678.06 6.4389 3.96158 0
M  V30 18589 H 1679.33 5.94402 5.04289 0
M  V30 18590 N 1683.56 -0.31543 1.54411 0
M  V30 18591 C 1684.49 -1.4098 1.80713 0
M  V30 18592 C 1685.5 -1.47481 0.689435 0
M  V30 18593 O 1686.69 -1.50058 0.966682 0
M  V30 18594 C 1683.79 -2.79459 1.91718 0
M  V30 18595 C 1682.96 -2.96064 3.2197 0
M  V30 18596 C 1682.02 -4.14954 3.23573 0
M  V30 18597 O 1681.05 -4.07726 3.97175 0
M  V30 18598 N 1682.25 -5.24889 2.47935 0
M  V30 18599 H 1685.01 -1.18778 2.75158 0
M  V30 18600 H 1682.58 -0.50545 1.53808 0
M  V30 18601 H 1684.57 -3.57215 1.90209 0
M  V30 18602 H 1683.14 -2.94675 1.04333 0
M  V30 18603 H 1682.36 -2.05541 3.36372 0
M  V30 18604 H 1683.65 -3.0406 4.07952 0
M  V30 18605 H 1683.04 -5.33638 1.87741 0
M  V30 18606 H 1681.6 -6.01033 2.52195 0
M  V30 18607 N 1685.03 -1.46622 -0.577906 0
M  V30 18608 C 1685.97 -1.53587 -1.70128 0
M  V30 18609 C 1686.98 -0.423789 -1.57187 0
M  V30 18610 O 1688.17 -0.692392 -1.64524 0
M  V30 18611 C 1685.27 -1.40459 -3.08422 0
M  V30 18612 C 1684.44 -2.65872 -3.47319 0
M  V30 18613 C 1683.5 -2.46875 -4.64693 0
M  V30 18614 O 1682.53 -3.20617 -4.70312 0
M  V30 18615 N 1683.73 -1.53352 -5.59878 0
M  V30 18616 H 1686.49 -2.50449 -1.64606 0
M  V30 18617 H 1684.05 -1.42739 -0.764014 0
M  V30 18618 H 1686.05 -1.25516 -3.84744 0
M  V30 18619 H 1684.62 -0.517603 -3.08285 0
M  V30 18620 H 1683.84 -2.95724 -2.60655 0
M  V30 18621 H 1685.12 -3.49173 -3.70075 0
M  V30 18622 H 1684.52 -0.925526 -5.58078 0
M  V30 18623 H 1683.08 -1.4437 -6.3561 0
M  V30 18624 N 1686.51 0.822941 -1.34408 0
M  V30 18625 C 1687.44 1.94142 -1.21826 0
M  V30 18626 C 1688.46 1.6215 -0.145353 0
M  V30 18627 O 1689.65 1.74025 -0.397205 0
M  V30 18628 C 1686.75 3.28077 -0.849619 0
M  V30 18629 C 1685.92 3.88092 -2.0175 0
M  V30 18630 C 1684.98 5.00406 -1.62726 0
M  V30 18631 O 1684 5.18703 -2.34383 0
M  V30 18632 N 1685.21 5.7797 -0.541413 0
M  V30 18633 H 1687.97 2.05467 -2.18182 0
M  V30 18634 H 1685.53 0.999521 -1.27362 0
M  V30 18635 H 1687.52 4.00661 -0.57035 0
M  V30 18636 H 1686.09 3.12591 0.0237499 0
M  V30 18637 H 1685.31 3.07902 -2.46151 0
M  V30 18638 H 1686.6 4.24921 -2.79856 0
M  V30 18639 H 1686 5.65674 0.0542929 0
M  V30 18640 H 1684.56 6.51005 -0.321874 0
M  V30 18641 N 1687.99 1.18137 1.04314 0
M  V30 18642 C 1688.92 0.929593 2.14198 0
M  V30 18643 C 1689.9 -0.131766 1.69589 0
M  V30 18644 O 1691.09 0.0203104 1.94189 0
M  V30 18645 C 1688.22 0.451799 3.44349 0
M  V30 18646 C 1687.17 1.45336 4.02569 0
M  V30 18647 C 1686.5 0.833176 5.28169 0
M  V30 18648 C 1687.8 2.8293 4.39031 0
M  V30 18649 H 1689.49 1.84856 2.35518 0
M  V30 18650 H 1687.04 0.890217 1.13186 0
M  V30 18651 H 1688.99 0.26303 4.20578 0
M  V30 18652 H 1687.71 -0.502725 3.22708 0
M  V30 18653 H 1686.37 1.62902 3.28418 0
M  V30 18654 H 1686.02 -0.128459 5.02836 0
M  V30 18655 H 1685.72 1.50185 5.68083 0
M  V30 18656 H 1687.24 0.654881 6.07078 0
M  V30 18657 H 1688.66 2.6903 5.06257 0
M  V30 18658 H 1687.06 3.46458 4.89987 0
M  V30 18659 H 1688.13 3.3667 3.48972 0
M  V30 18660 N 1689.47 -1.23186 0.98301 0
M  V30 18661 C 1690.4 -2.27054 0.544858 0
M  V30 18662 C 1691.38 -1.64749 -0.423281 0
M  V30 18663 O 1692.56 -1.91611 -0.316075 0
M  V30 18664 C 1689.69 -3.46972 -0.150976 0
M  V30 18665 C 1688.65 -4.21647 0.734707 0
M  V30 18666 C 1687.97 -5.34618 -0.0934874 0
M  V30 18667 C 1689.27 -4.81372 2.02679 0
M  V30 18668 H 1690.97 -2.63957 1.41305 0
M  V30 18669 H 1688.51 -1.26885 0.680895 0
M  V30 18670 H 1690.47 -4.18784 -0.468825 0
M  V30 18671 H 1689.19 -3.09137 -1.05364 0
M  V30 18672 H 1687.85 -3.51655 1.03605 0
M  V30 18673 H 1687.5 -4.93025 -0.996768 0
M  V30 18674 H 1687.2 -5.85503 0.496019 0
M  V30 18675 H 1688.72 -6.09251 -0.405658 0
M  V30 18676 H 1690.14 -5.45178 1.77353 0
M  V30 18677 H 1688.53 -5.42554 2.56429 0
M  V30 18678 H 1689.6 -4.01972 2.71194 0
M  V30 18679 N 1690.95 -0.754982 -1.38339 0
M  V30 18680 C 1691.89 -0.117579 -2.32303 0
M  V30 18681 C 1692.89 0.703759 -1.5409 0
M  V30 18682 O 1694.09 0.602701 -1.6961 0
M  V30 18683 H 1690.47 -0.0192276 -0.751754 0
M  V30 18684 H 1692.44 -0.926113 -2.83665 0
M  V30 18685 C 1691.19 0.760239 -3.39287 0
M  V30 18686 H 1690.51 0.137619 -3.99563 0
M  V30 18687 H 1691.95 1.17349 -4.07437 0
M  V30 18688 C 1690.41 1.90347 -2.77974 0
M  V30 18689 O 1690.94 2.99773 -2.67393 0
M  V30 18690 N 1689.15 1.69895 -2.35763 0
M  V30 18691 H 1688.69 0.808926 -2.44569 0
M  V30 18692 H 1688.65 2.46557 -1.95082 0
M  V30 18693 N 1692.42 1.49318 -0.504168 0
M  V30 18694 C 1693.67 2.02762 0.0392846 0
M  V30 18695 C 1694 1.38282 1.36352 0
M  V30 18696 O 1693.28 0.519587 1.87431 0
M  V30 18697 C 1693.56 3.59606 0.188507 0
M  V30 18698 C 1693.41 4.3461 -1.15908 0
M  V30 18699 C 1694.73 4.30213 0.927641 0
M  V30 18700 H 1691.85 0.736889 0.0128028 0
M  V30 18701 H 1694.49 1.78309 -0.656193 0
M  V30 18702 H 1692.64 3.80572 0.780861 0
M  V30 18703 H 1694.32 4.25132 -1.79055 0
M  V30 18704 H 1692.56 3.97043 -1.74756 0
M  V30 18705 H 1693.23 5.4272 -1.00794 0
M  V30 18706 H 1695.71 4.13922 0.425228 0
M  V30 18707 H 1694.58 5.39697 1.0009 0
M  V30 18708 H 1694.84 3.95678 1.97209 0
M  V30 18709 N 1693.9 0.238138 1.5579 0
M  V30 18710 C 1694.83 -0.697701 2.18323 0
M  V30 18711 C 1695.85 -1.1453 1.15701 0
M  V30 18712 O 1697.04 -1.07359 1.42605 0
M  V30 18713 C 1694.14 -1.95895 2.76547 0
M  V30 18714 C 1693.31 -1.66422 4.04503 0
M  V30 18715 C 1692.37 -2.77419 4.4713 0
M  V30 18716 O 1691.39 -2.45179 5.13689 0
M  V30 18717 N 1692.6 -4.06731 4.14187 0
M  V30 18718 H 1695.36 -0.162705 2.99258 0
M  V30 18719 H 1692.92 0.0577602 1.61797 0
M  V30 18720 H 1694.91 -2.69374 3.02026 0
M  V30 18721 H 1693.48 -2.40398 1.99819 0
M  V30 18722 H 1692.7 -0.76505 3.86705 0
M  V30 18723 H 1693.99 -1.44183 4.87943 0
M  V30 18724 H 1693.39 -4.3576 3.60735 0
M  V30 18725 H 1691.95 -4.76701 4.44521 0
M  V30 18726 N 1695.38 -1.57561 -0.0350783 0
M  V30 18727 C 1696.29 -2.09558 -1.05464 0
M  V30 18728 C 1697.31 -1.03288 -1.40027 0
M  V30 18729 O 1698.48 -1.34987 -1.49467 0
M  V30 18730 C 1695.55 -2.55966 -2.33842 0
M  V30 18731 C 1694.61 -3.76693 -2.05915 0
M  V30 18732 C 1693.84 -4.20878 -3.28172 0
M  V30 18733 O 1694.06 -3.64634 -4.38632 0
M  V30 18734 O 1693 -5.13367 -3.14225 0
M  V30 18735 H 1696.82 -2.9682 -0.642771 0
M  V30 18736 H 1694.41 -1.47265 -0.251668 0
M  V30 18737 H 1696.29 -2.86173 -3.09327 0
M  V30 18738 H 1694.97 -1.71818 -2.74336 0
M  V30 18739 H 1693.87 -3.51514 -1.28018 0
M  V30 18740 H 1695.21 -4.61807 -1.70281 0
M  V30 18741 N 1696.86 0.307236 -1.54576 0
M  V30 18742 C 1697.77 1.4014 -1.88143 0
M  V30 18743 C 1698.78 1.5579 -0.774952 0
M  V30 18744 O 1699.96 1.70574 -1.07082 0
M  V30 18745 C 1697.03 2.74613 -2.11633 0
M  V30 18746 C 1696.09 2.68001 -3.35371 0
M  V30 18747 C 1695.32 3.96061 -3.57731 0
M  V30 18748 O 1695.54 4.95119 -2.83219 0
M  V30 18749 O 1694.48 3.98331 -4.51238 0
M  V30 18750 H 1698.3 1.14677 -2.81217 0
M  V30 18751 H 1695.89 0.502739 -1.40687 0
M  V30 18752 H 1697.77 3.54186 -2.2832 0
M  V30 18753 H 1696.44 2.99933 -1.21746 0
M  V30 18754 H 1695.35 1.86922 -3.24054 0
M  V30 18755 H 1696.68 2.47635 -4.25368 0
M  V30 18756 N 1698.34 1.46926 0.570122 0
M  V30 18757 C 1699.27 1.52969 1.69339 0
M  V30 18758 C 1700.25 0.382791 1.5803 0
M  V30 18759 O 1701.43 0.58875 1.7907 0
M  V30 18760 C 1698.56 1.42009 3.07492 0
M  V30 18761 C 1697.6 2.61039 3.37285 0
M  V30 18762 S 1698.44 4.23321 3.27963 0
M  V30 18763 C 1699.59 4.14892 4.68631 0
M  V30 18764 H 1699.83 2.48003 1.63957 0
M  V30 18765 H 1697.36 1.34966 0.749898 0
M  V30 18766 H 1699.32 1.36374 3.87185 0
M  V30 18767 H 1697.98 0.48382 3.10351 0
M  V30 18768 H 1697.17 2.49399 4.37968 0
M  V30 18769 H 1696.77 2.6373 2.65184 0
M  V30 18770 H 1699.07 3.82349 5.59299 0
M  V30 18771 H 1700.01 5.15618 4.85329 0
M  V30 18772 H 1700.42 3.45948 4.46072 0
M  V30 18773 N 1699.82 -0.815801 1.34842 0
M  V30 18774 C 1701.04 -1.60915 1.30848 0
M  V30 18775 C 1701.47 -1.87758 -0.113345 0
M  V30 18776 O 1700.82 -1.4582 -1.07732 0
M  V30 18777 C 1700.87 -2.92284 2.11192 0
M  V30 18778 O 1699.98 -3.84685 1.48632 0
M  V30 18779 H 1699.32 -0.48913 0.449052 0
M  V30 18780 H 1701.85 -1.01322 1.7775 0
M  V30 18781 H 1701.86 -3.41789 2.2281 0
M  V30 18782 H 1700.53 -2.72071 3.14563 0
M  V30 18783 H 1699.11 -3.43215 1.458 0
M  V30 18784 N 1701.29 -1.18689 -1.03686 0
M  V30 18785 C 1702.2 -0.932473 -2.15272 0
M  V30 18786 C 1703.22 0.104751 -1.73684 0
M  V30 18787 O 1704.4 -0.0780471 -2.01249 0
M  V30 18788 C 1701.46 -0.465807 -3.43557 0
M  V30 18789 C 1700.52 -1.57146 -3.99504 0
M  V30 18790 C 1699.75 -1.12696 -5.21666 0
M  V30 18791 O 1699.98 0.0127657 -5.70399 0
M  V30 18792 O 1698.91 -1.92627 -5.70244 0
M  V30 18793 H 1702.74 -1.86626 -2.39592 0
M  V30 18794 H 1700.32 -0.969029 -1.13711 0
M  V30 18795 H 1702.2 -0.213819 -4.20857 0
M  V30 18796 H 1700.88 0.43964 -3.20701 0
M  V30 18797 H 1699.79 -1.8775 -3.23575 0
M  V30 18798 H 1701.12 -2.45317 -4.26709 0
M  V30 18799 N 1702.77 1.22662 -0.989529 0
M  V30 18800 C 1703.7 2.23052 -0.481994 0
M  V30 18801 C 1704.68 1.56078 0.455885 0
M  V30 18802 O 1705.87 1.84584 0.382214 0
M  V30 18803 C 1702.99 3.37354 0.301658 0
M  V30 18804 C 1702.04 4.22514 -0.581711 0
M  V30 18805 S 1702.87 4.95326 -2.03501 0
M  V30 18806 C 1704.03 6.13071 -1.26075 0
M  V30 18807 H 1704.26 2.65757 -1.33268 0
M  V30 18808 H 1701.79 1.32286 -0.796233 0
M  V30 18809 H 1703.75 4.03632 0.747763 0
M  V30 18810 H 1702.41 2.93163 1.12758 0
M  V30 18811 H 1701.61 5.03996 0.0210757 0
M  V30 18812 H 1701.21 3.61351 -0.964439 0
M  V30 18813 H 1703.5 6.7545 -0.526687 0
M  V30 18814 H 1704.44 6.77754 -2.05072 0
M  V30 18815 H 1704.85 5.59147 -0.775524 0
M  V30 18816 N 1704.25 0.762308 1.37937 0
M  V30 18817 C 1705.18 0.100528 2.28979 0
M  V30 18818 C 1706.19 -0.674409 1.48174 0
M  V30 18819 O 1707.38 -0.514059 1.70938 0
M  V30 18820 C 1704.48 -0.881478 3.27236 0
M  V30 18821 C 1703.66 -0.162349 4.37099 0
M  V30 18822 C 1702.72 -1.05636 5.15488 0
M  V30 18823 O 1701.74 -0.523636 5.66786 0
M  V30 18824 N 1702.94 -2.3836 5.29306 0
M  V30 18825 H 1705.71 0.882451 2.86414 0
M  V30 18826 H 1703.27 0.613839 1.49812 0
M  V30 18827 H 1705.26 -1.48278 3.76558 0
M  V30 18828 H 1703.83 -1.56443 2.70637 0
M  V30 18829 H 1703.05 0.61976 3.89298 0
M  V30 18830 H 1704.34 0.334928 5.07696 0
M  V30 18831 H 1703.74 -2.84087 4.89194 0
M  V30 18832 H 1702.29 -2.9352 5.8197 0
M  V30 18833 N 1705.73 -1.49049 0.51208 0
M  V30 18834 C 1706.67 -2.29326 -0.260408 0
M  V30 18835 C 1707.64 -1.36232 -0.950265 0
M  V30 18836 O 1708.83 -1.65193 -0.954777 0
M  V30 18837 C 1705.97 -3.19177 -1.31225 0
M  V30 18838 C 1705.08 -4.27336 -0.63305 0
M  V30 18839 C 1704.22 -5.04389 -1.66628 0
M  V30 18840 C 1703.26 -6.04372 -0.969561 0
M  V30 18841 N 1702.39 -6.74549 -1.94751 0
M  V30 18842 H 1707.23 -2.94876 0.430384 0
M  V30 18843 H 1704.77 -1.45383 0.224086 0
M  V30 18844 H 1706.73 -3.69655 -1.9342 0
M  V30 18845 H 1705.36 -2.55588 -1.97166 0
M  V30 18846 H 1704.41 -3.80262 0.102433 0
M  V30 18847 H 1705.72 -4.98727 -0.0851363 0
M  V30 18848 H 1704.88 -5.58791 -2.36299 0
M  V30 18849 H 1703.62 -4.32797 -2.24807 0
M  V30 18850 H 1702.62 -5.49191 -0.25869 0
M  V30 18851 H 1703.85 -6.77955 -0.394125 0
M  V30 18852 H 1701.79 -6.0572 -2.5187 0
M  V30 18853 H 1701.71 -7.41954 -1.45055 0
M  V30 18854 H 1702.98 -7.3355 -2.63675 0
M  V30 18855 N 1707.21 -0.246397 -1.55662 0
M  V30 18856 C 1708.15 0.653368 -2.21359 0
M  V30 18857 C 1709.12 1.1717 -1.1773 0
M  V30 18858 O 1710.31 1.22626 -1.46176 0
M  V30 18859 C 1707.45 1.84484 -2.9165 0
M  V30 18860 C 1706.56 1.36308 -4.09932 0
M  V30 18861 C 1705.7 2.51407 -4.6794 0
M  V30 18862 C 1704.73 2.0009 -5.78472 0
M  V30 18863 N 1703.87 3.08555 -6.30665 0
M  V30 18864 H 1708.71 0.0864458 -2.97875 0
M  V30 18865 H 1706.25 0.0309074 -1.47068 0
M  V30 18866 H 1708.21 2.54476 -3.30602 0
M  V30 18867 H 1706.84 2.38425 -2.17609 0
M  V30 18868 H 1705.89 0.557224 -3.76297 0
M  V30 18869 H 1707.2 0.946988 -4.89728 0
M  V30 18870 H 1706.35 3.29442 -5.09463 0
M  V30 18871 H 1705.09 2.96318 -3.87359 0
M  V30 18872 H 1704.1 1.20526 -5.36427 0
M  V30 18873 H 1705.32 1.5615 -6.60904 0
M  V30 18874 H 1703.27 3.529 -5.52989 0
M  V30 18875 H 1703.19 2.71274 -7.05653 0
M  V30 18876 H 1704.45 3.8665 -6.76847 0
M  V30 18877 N 1708.68 1.57577 0.026722 0
M  V30 18878 C 1709.93 1.8856 0.716115 0
M  V30 18879 C 1710.25 0.845223 1.76395 0
M  V30 18880 O 1711.45 1.04435 2.5061 0
M  V30 18881 C 1709.91 3.34631 1.32476 0
M  V30 18882 C 1709.52 4.46904 0.313149 0
M  V30 18883 C 1711.26 3.74759 1.9939 0
M  V30 18884 C 1709.17 5.84038 0.930274 0
M  V30 18885 H 1708.1 0.703531 0.271221 0
M  V30 18886 H 1710.75 1.83476 -0.0294388 0
M  V30 18887 H 1709.13 3.34466 2.1201 0
M  V30 18888 H 1710.3 4.58542 -0.455647 0
M  V30 18889 H 1708.62 4.15624 -0.254028 0
M  V30 18890 H 1711.22 4.74534 2.46418 0
M  V30 18891 H 1711.56 3.06875 2.81307 0
M  V30 18892 H 1712.09 3.77108 1.26628 0
M  V30 18893 H 1708.83 6.55327 0.150466 0
M  V30 18894 H 1708.35 5.76116 1.66886 0
M  V30 18895 H 1710.03 6.30842 1.43692 0
M  V30 18896 N 1710.16 -0.299034 1.54737 0
M  V30 18897 C 1711.11 -1.38889 1.86581 0
M  V30 18898 C 1712.1 -1.52396 0.739723 0
M  V30 18899 O 1713.31 -1.5449 0.92374 0
M  V30 18900 H 1709.68 -0.463969 0.591808 0
M  V30 18901 H 1711.66 -1.09268 2.77674 0
M  V30 18902 C 1710.4 -2.74702 2.13152 0
M  V30 18903 H 1709.73 -2.65092 2.99277 0
M  V30 18904 H 1711.17 -3.49967 2.39372 0
M  V30 18905 C 1709.63 -3.23789 0.930706 0
M  V30 18906 O 1710.16 -4.01412 0.152193 0
M  V30 18907 N 1708.36 -2.81137 0.735545 0
M  V30 18908 H 1707.91 -2.1813 1.37029 0
M  V30 18909 H 1707.87 -3.1433 -0.0663452 0
M  V30 18910 N 1711.64 -1.47227 -0.562322 0
M  V30 18911 C 1712.55 -1.61953 -1.69731 0
M  V30 18912 C 1713.57 -0.502478 -1.66587 0
M  V30 18913 O 1714.74 -0.769335 -1.86127 0
M  V30 18914 C 1711.81 -1.62539 -3.06238 0
M  V30 18915 C 1710.87 -2.85632 -3.20489 0
M  V30 18916 C 1710.1 -2.86181 -4.50485 0
M  V30 18917 O 1710.32 -1.96099 -5.35632 0
M  V30 18918 O 1709.26 -3.7798 -4.68417 0
M  V30 18919 H 1713.08 -2.5798 -1.6025 0
M  V30 18920 H 1710.67 -1.30253 -0.73174 0
M  V30 18921 H 1712.55 -1.65634 -3.87483 0
M  V30 18922 H 1711.23 -0.696779 -3.16112 0
M  V30 18923 H 1710.13 -2.88084 -2.3866 0
M  V30 18924 H 1711.47 -3.7777 -3.15517 0
M  V30 18925 N 1713.12 0.808639 -1.35273 0
M  V30 18926 C 1714.37 1.56071 -1.27768 0
M  V30 18927 C 1714.68 1.9505 0.146545 0
M  V30 18928 O 1715.89 2.69314 0.343855 0
M  V30 18929 C 1714.34 2.81648 -2.24059 0
M  V30 18930 C 1713.95 2.49915 -3.71815 0
M  V30 18931 C 1715.69 3.59658 -2.25492 0
M  V30 18932 C 1713.6 3.7177 -4.59936 0
M  V30 18933 H 1712.53 0.585811 -0.474701 0
M  V30 18934 H 1715.18 0.889051 -1.60525 0
M  V30 18935 H 1713.56 3.50514 -1.84271 0
M  V30 18936 H 1714.74 1.89068 -4.20226 0
M  V30 18937 H 1713.05 1.85154 -3.72971 0
M  V30 18938 H 1715.65 4.50162 -2.88545 0
M  V30 18939 H 1715.99 3.96835 -1.2581 0
M  V30 18940 H 1716.53 2.97751 -2.63798 0
M  V30 18941 H 1713.26 3.39704 -5.60608 0
M  V30 18942 H 1712.78 4.3185 -4.16252 0
M  V30 18943 H 1714.46 4.39022 -4.75256 0
M  V30 18944 N 1714.6 1.19237 1.03055 0
M  V30 18945 C 1715.51 0.943876 2.14775 0
M  V30 18946 C 1716.52 -0.0955384 1.73738 0
M  V30 18947 O 1717.7 0.0887187 2.01204 0
M  V30 18948 C 1714.76 0.48402 3.43305 0
M  V30 18949 C 1713.82 1.59262 3.98665 0
M  V30 18950 C 1713.06 1.15461 5.21061 0
M  V30 18951 O 1713.28 0.0174841 5.70397 0
M  V30 18952 O 1712.21 1.95648 5.69215 0
M  V30 18953 H 1716.04 1.87894 2.38599 0
M  V30 18954 H 1713.63 0.975046 1.13195 0
M  V30 18955 H 1715.51 0.236135 4.20738 0
M  V30 18956 H 1714.18 -0.422626 3.20929 0
M  V30 18957 H 1713.09 1.89464 3.22574 0
M  V30 18958 H 1714.42 2.47576 4.25402 0
M  V30 18959 N 1716.07 -1.22136 0.99602 0
M  V30 18960 C 1717.02 -2.262 0.541868 0
M  V30 18961 C 1718.02 -1.64387 -0.409047 0
M  V30 18962 O 1719.22 -1.7779 -0.281224 0
M  V30 18963 H 1715.6 -0.73546 0.156851 0
M  V30 18964 H 1717.57 -2.61853 1.43092 0
M  V30 18965 C 1716.32 -3.47476 -0.124723 0
M  V30 18966 H 1715.64 -3.95303 0.597934 0
M  V30 18967 H 1717.08 -4.22053 -0.405902 0
M  V30 18968 C 1715.54 -3.08183 -1.36105 0
M  V30 18969 O 1716.07 -3.17862 -2.45615 0
M  V30 18970 N 1714.28 -2.62936 -1.23746 0
M  V30 18971 H 1713.82 -2.5526 -0.346394 0
M  V30 18972 H 1713.78 -2.37014 -2.06572 0
M  V30 18973 N 1717.55 -0.769612 -1.37531 0
M  V30 18974 C 1718.48 -0.168389 -2.32892 0
M  V30 18975 C 1719.46 0.685549 -1.55673 0
M  V30 18976 O 1720.65 0.62345 -1.8392 0
M  V30 18977 C 1717.78 0.713183 -3.39898 0
M  V30 18978 C 1716.73 -0.0392808 -4.27982 0
M  V30 18979 C 1716.06 0.961596 -5.25982 0
M  V30 18980 C 1717.36 -1.21704 -5.07923 0
M  V30 18981 H 1719.05 -0.965022 -2.83421 0
M  V30 18982 H 1716.6 -0.465502 -1.36268 0
M  V30 18983 H 1718.55 1.14358 -4.05586 0
M  V30 18984 H 1717.28 1.54231 -2.87889 0
M  V30 18985 H 1715.93 -0.450429 -3.63822 0
M  V30 18986 H 1715.58 1.78522 -4.70254 0
M  V30 18987 H 1715.28 0.462679 -5.85776 0
M  V30 18988 H 1716.81 1.39097 -5.94545 0
M  V30 18989 H 1718.22 -0.863405 -5.66761 0
M  V30 18990 H 1716.62 -1.6479 -5.77031 0
M  V30 18991 H 1717.69 -2.02219 -4.40722 0
M  V30 18992 N 1719.03 1.48775 -0.519977 0
M  V30 18993 C 1719.98 2.29461 0.248242 0
M  V30 18994 C 1720.95 1.36734 0.943027 0
M  V30 18995 O 1722.13 1.65697 0.946003 0
M  V30 18996 C 1719.27 3.19868 1.29531 0
M  V30 18997 C 1718.39 4.27666 0.610379 0
M  V30 18998 C 1717.52 5.05266 1.63951 0
M  V30 18999 C 1716.56 6.04878 0.937496 0
M  V30 19000 N 1715.7 6.75573 1.91171 0
M  V30 19001 H 1720.54 2.94643 -0.446016 0
M  V30 19002 H 1718.07 1.45262 -0.231792 0
M  V30 19003 H 1720.03 3.70675 1.91456 0
M  V30 19004 H 1718.66 2.5663 1.95808 0
M  V30 19005 H 1717.71 3.80202 -0.122598 0
M  V30 19006 H 1719.03 4.98765 0.0586864 0
M  V30 19007 H 1718.18 5.60037 2.33332 0
M  V30 19008 H 1716.92 4.33983 2.22509 0
M  V30 19009 H 1715.92 5.49321 0.229562 0
M  V30 19010 H 1717.15 6.78155 0.358166 0
M  V30 19011 H 1715.09 6.07048 2.48655 0
M  V30 19012 H 1715.01 7.42712 1.41118 0
M  V30 19013 H 1716.28 7.34938 2.59781 0
M  V30 19014 N 1720.51 0.254649 1.55529 0
M  V30 19015 C 1721.46 -0.657787 2.23105 0
M  V30 19016 C 1722.45 -1.17402 1.22119 0
M  V30 19017 O 1723.66 -1.13002 1.40109 0
M  V30 19018 H 1720.03 -0.230628 0.715762 0
M  V30 19019 H 1722 -0.0647759 2.9833 0
M  V30 19020 C 1720.75 -1.84018 2.95013 0
M  V30 19021 H 1720.07 -1.45211 3.72497 0
M  V30 19022 H 1721.51 -2.45568 3.45648 0
M  V30 19023 C 1719.97 -2.7161 1.99322 0
M  V30 19024 O 1720.5 -3.7137 1.53125 0
M  V30 19025 N 1718.71 -2.38342 1.66258 0
M  V30 19026 H 1718.26 -1.57268 2.04021 0
M  V30 19027 H 1718.21 -2.97222 1.025 0
M  V30 19028 N 1721.99 -1.57589 -0.0183649 0
M  V30 19029 C 1722.9 -2.10665 -1.03235 0
M  V30 19030 C 1723.91 -1.04767 -1.38924 0
M  V30 19031 O 1725.09 -1.36565 -1.48027 0
M  V30 19032 C 1722.15 -2.58432 -2.31114 0
M  V30 19033 C 1721.21 -3.78856 -2.01908 0
M  V30 19034 C 1720.45 -4.24335 -3.2369 0
M  V30 19035 O 1720.67 -3.69266 -4.3474 0
M  V30 19036 O 1719.6 -5.16671 -3.08763 0
M  V30 19037 H 1723.43 -2.97485 -0.611254 0
M  V30 19038 H 1721.02 -1.47524 -0.236035 0
M  V30 19039 H 1722.9 -2.89438 -3.06274 0
M  V30 19040 H 1721.57 -1.74718 -2.72498 0
M  V30 19041 H 1720.48 -3.52852 -1.24282 0
M  V30 19042 H 1721.81 -4.63587 -1.65373 0
M  V30 19043 N 1723.46 0.290824 -1.54893 0
M  V30 19044 C 1724.39 1.36354 -1.89551 0
M  V30 19045 C 1725.38 1.52403 -0.75546 0
M  V30 19046 O 1726.56 1.65743 -1.01208 0
M  V30 19047 C 1723.69 2.72609 -2.15178 0
M  V30 19048 C 1722.64 2.71313 -3.31019 0
M  V30 19049 C 1721.97 4.10952 -3.42085 0
M  V30 19050 C 1723.27 2.32153 -4.6787 0
M  V30 19051 H 1724.96 1.07597 -2.79398 0
M  V30 19052 H 1722.51 0.516154 -1.34432 0
M  V30 19053 H 1724.46 3.47749 -2.3801 0
M  V30 19054 H 1723.19 3.02913 -1.22112 0
M  V30 19055 H 1721.85 1.9863 -3.08126 0
M  V30 19056 H 1721.49 4.38449 -2.46518 0
M  V30 19057 H 1721.19 4.10984 -4.1996 0
M  V30 19058 H 1722.72 4.87857 -3.67189 0
M  V30 19059 H 1724.13 2.97011 -4.90364 0
M  V30 19060 H 1722.53 2.4338 -5.48531 0
M  V30 19061 H 1723.6 1.27279 -4.67897 0
M  V30 19062 N 1724.94 1.47523 0.554506 0
M  V30 19063 C 1725.89 1.60213 1.66134 0
M  V30 19064 C 1726.86 0.445051 1.60027 0
M  V30 19065 O 1728.04 0.665449 1.7882 0
M  V30 19066 C 1725.18 1.62491 3.04452 0
M  V30 19067 C 1724.3 2.89134 3.20976 0
M  V30 19068 C 1723.43 2.82731 4.49707 0
M  V30 19069 C 1722.47 4.04187 4.59673 0
M  V30 19070 N 1721.61 3.96004 5.79763 0
M  V30 19071 H 1726.45 2.54744 1.54626 0
M  V30 19072 H 1723.99 1.26355 0.753189 0
M  V30 19073 H 1725.94 1.61795 3.84549 0
M  V30 19074 H 1724.57 0.714698 3.14789 0
M  V30 19075 H 1723.63 2.99685 2.34292 0
M  V30 19076 H 1724.94 3.79069 3.24203 0
M  V30 19077 H 1724.09 2.80299 5.38068 0
M  V30 19078 H 1722.83 1.90483 4.48963 0
M  V30 19079 H 1721.84 4.06921 3.69724 0
M  V30 19080 H 1723.06 4.97565 4.62175 0
M  V30 19081 H 1721.01 3.06561 5.79962 0
M  V30 19082 H 1720.92 4.7962 5.8438 0
M  V30 19083 H 1722.19 3.97593 6.70478 0
M  V30 19084 N 1726.42 -0.801453 1.357 0
M  V30 19085 C 1727.37 -1.93495 1.29083 0
M  V30 19086 C 1728.36 -1.68389 0.184806 0
M  V30 19087 O 1729.57 -1.76543 0.351097 0
M  V30 19088 H 1725.94 -0.635809 0.40156 0
M  V30 19089 H 1727.91 -1.96195 2.24833 0
M  V30 19090 C 1726.66 -3.30342 1.08487 0
M  V30 19091 H 1725.99 -3.50221 1.92835 0
M  V30 19092 H 1727.43 -4.10041 1.079 0
M  V30 19093 C 1725.89 -3.36238 -0.211057 0
M  V30 19094 O 1726.42 -3.83198 -1.20508 0
M  V30 19095 N 1724.62 -2.89509 -0.251599 0
M  V30 19096 H 1724.17 -2.51486 0.557916 0
M  V30 19097 H 1724.13 -2.93836 -1.11839 0
M  V30 19098 N 1727.9 -1.19782 -1.02421 0
M  V30 19099 C 1728.85 -0.93978 -2.108 0
M  V30 19100 C 1729.82 0.12716 -1.65613 0
M  V30 19101 O 1731 -0.0159669 -1.90793 0
M  V30 19102 C 1728.14 -0.489656 -3.41609 0
M  V30 19103 C 1727.25 -1.62389 -4.00317 0
M  V30 19104 C 1726.39 -1.12483 -5.19154 0
M  V30 19105 C 1725.43 -2.23266 -5.69929 0
M  V30 19106 N 1724.56 -1.74633 -6.80035 0
M  V30 19107 H 1729.4 -1.8677 -2.32209 0
M  V30 19108 H 1726.94 -0.931082 -1.13883 0
M  V30 19109 H 1728.9 -0.210049 -4.16671 0
M  V30 19110 H 1727.53 0.40127 -3.20296 0
M  V30 19111 H 1726.58 -2.0186 -3.22423 0
M  V30 19112 H 1727.89 -2.45836 -4.34011 0
M  V30 19113 H 1727.05 -0.800737 -6.01393 0
M  V30 19114 H 1725.79 -0.260155 -4.87006 0
M  V30 19115 H 1724.79 -2.56501 -4.863 0
M  V30 19116 H 1726.02 -3.10197 -6.04115 0
M  V30 19117 H 1723.96 -0.904804 -6.4973 0
M  V30 19118 H 1723.88 -2.51666 -7.12882 0
M  V30 19119 H 1725.15 -1.45201 -7.65857 0
M  V30 19120 N 1729.38 1.21606 -1.00248 0
M  V30 19121 C 1730.29 2.2757 -0.570004 0
M  V30 19122 C 1731.3 1.69669 0.385788 0
M  V30 19123 O 1732.48 1.99839 0.250246 0
M  V30 19124 C 1729.54 3.46558 0.0990566 0
M  V30 19125 C 1728.61 4.19741 -0.9009 0
M  V30 19126 C 1727.84 5.33048 -0.263673 0
M  V30 19127 O 1728.06 5.62599 0.940131 0
M  V30 19128 O 1727 5.93978 -0.973342 0
M  V30 19129 H 1730.82 2.66751 -1.45182 0
M  V30 19130 H 1728.41 1.27955 -0.771224 0
M  V30 19131 H 1730.29 4.18733 0.47339 0
M  V30 19132 H 1728.96 3.09283 0.955285 0
M  V30 19133 H 1727.87 3.49798 -1.32634 0
M  V30 19134 H 1729.2 4.60921 -1.72664 0
M  V30 19135 N 1730.86 0.776895 1.37121 0
M  V30 19136 C 1731.79 0.180738 2.32799 0
M  V30 19137 C 1732.77 -0.677284 1.56035 0
M  V30 19138 O 1733.95 -0.613687 1.84249 0
M  V30 19139 C 1731.08 -0.695148 3.40272 0
M  V30 19140 C 1730.04 0.0619772 4.27955 0
M  V30 19141 C 1729.36 -0.933688 5.26485 0
M  V30 19142 C 1730.66 1.24396 5.0727 0
M  V30 19143 H 1732.36 0.980039 2.82906 0
M  V30 19144 H 1729.9 0.472722 1.3602 0
M  V30 19145 H 1731.85 -1.12205 4.06187 0
M  V30 19146 H 1730.58 -1.52702 2.88703 0
M  V30 19147 H 1729.24 0.469717 3.63578 0
M  V30 19148 H 1728.89 -1.76025 4.71194 0
M  V30 19149 H 1728.59 -0.431608 5.86013 0
M  V30 19150 H 1730.11 -1.35942 5.95275 0
M  V30 19151 H 1731.52 0.89345 5.66295 0
M  V30 19152 H 1729.92 1.67848 5.76149 0
M  V30 19153 H 1730.99 2.04553 4.39643 0
M  V30 19154 N 1732.33 -1.48497 0.527859 0
M  V30 19155 C 1733.56 -2.069 -0.00302594 0
M  V30 19156 C 1733.98 -1.38469 -1.28342 0
M  V30 19157 O 1733.33 -0.471524 -1.76303 0
M  V30 19158 C 1733.38 -3.60749 -0.232871 0
M  V30 19159 O 1733.11 -4.26609 0.996797 0
M  V30 19160 C 1734.61 -4.35941 -0.804376 0
M  V30 19161 H 1731.83 -0.67021 0.0325559 0
M  V30 19162 H 1734.37 -1.90916 0.732897 0
M  V30 19163 H 1732.53 -3.76346 -0.918837 0
M  V30 19164 H 1732.94 -5.18725 0.776217 0
M  V30 19165 H 1734.41 -5.4437 -0.914635 0
M  V30 19166 H 1734.89 -4.00225 -1.80876 0
M  V30 19167 H 1735.5 -4.25017 -0.155041 0
M  V30 19168 N 1733.81 -0.262893 -1.55392 0
M  V30 19169 C 1734.74 0.623732 -2.25015 0
M  V30 19170 C 1735.72 1.16865 -1.23598 0
M  V30 19171 O 1736.91 1.20505 -1.5229 0
M  V30 19172 C 1734.04 1.81353 -2.9619 0
M  V30 19173 C 1732.99 1.40069 -4.04431 0
M  V30 19174 C 1732.32 2.67261 -4.63115 0
M  V30 19175 C 1733.62 0.559905 -5.1929 0
M  V30 19176 H 1735.31 0.0431306 -2.99369 0
M  V30 19177 H 1732.86 0.0193043 -1.43987 0
M  V30 19178 H 1734.81 2.43958 -3.43602 0
M  V30 19179 H 1733.53 2.41977 -2.1935 0
M  V30 19180 H 1732.19 0.797905 -3.57811 0
M  V30 19181 H 1731.84 3.26117 -3.82958 0
M  V30 19182 H 1731.54 2.40354 -5.36194 0
M  V30 19183 H 1733.07 3.30735 -5.1327 0
M  V30 19184 H 1734.48 1.09064 -5.6283 0
M  V30 19185 H 1732.88 0.386234 -5.98856 0
M  V30 19186 H 1733.95 -0.424199 -4.83041 0
M  V30 19187 N 1735.29 1.57597 0.0100073 0
M  V30 19188 C 1736.2 2.11209 1.02117 0
M  V30 19189 C 1737.22 1.05503 1.38366 0
M  V30 19190 O 1738.39 1.37348 1.47301 0
M  V30 19191 C 1735.46 2.59654 2.2974 0
M  V30 19192 C 1734.52 3.79921 1.99896 0
M  V30 19193 C 1733.75 4.26046 3.21435 0
M  V30 19194 O 1733.97 3.71566 4.32775 0
M  V30 19195 O 1732.91 5.18301 3.06018 0
M  V30 19196 H 1736.73 2.97805 0.595469 0
M  V30 19197 H 1734.32 1.47647 0.228208 0
M  V30 19198 H 1736.2 2.91058 3.04735 0
M  V30 19199 H 1734.88 1.76161 2.71568 0
M  V30 19200 H 1733.78 3.53506 1.22409 0
M  V30 19201 H 1735.12 4.64457 1.62912 0
M  V30 19202 N 1736.77 -0.282606 1.55045 0
M  V30 19203 C 1737.72 -1.35115 1.83652 0
M  V30 19204 C 1738.7 -1.45126 0.694788 0
M  V30 19205 O 1739.89 -1.48968 0.955898 0
M  V30 19206 C 1737.02 -2.71309 2.10348 0
M  V30 19207 C 1736.11 -2.65447 3.30755 0
M  V30 19208 N 1736.5 -2.29202 4.50888 0
M  V30 19209 C 1734.8 -2.96523 3.33152 0
M  V30 19210 C 1735.5 -2.33094 5.32956 0
M  V30 19211 N 1734.47 -2.71185 4.71126 0
M  V30 19212 H 1738.28 -1.06085 2.74086 0
M  V30 19213 H 1735.79 -0.491228 1.54792 0
M  V30 19214 H 1737.79 -3.48378 2.28995 0
M  V30 19215 H 1736.45 -3.01235 1.21192 0
M  V30 19216 H 1737.46 -2.01343 4.7716 0
M  V30 19217 H 1734.14 -3.31224 2.54159 0
M  V30 19218 H 1735.53 -2.07714 6.38987 0
M  V30 19219 N 1738.25 -1.47815 -0.546675 0
M  V30 19220 C 1739.18 -1.55643 -1.66884 0
M  V30 19221 C 1740.16 -0.407884 -1.57401 0
M  V30 19222 O 1741.34 -0.617164 -1.7811 0
M  V30 19223 C 1738.47 -1.46883 -3.05193 0
M  V30 19224 C 1737.51 -2.66372 -3.33089 0
M  V30 19225 S 1738.35 -4.28485 -3.21187 0
M  V30 19226 C 1739.5 -4.22295 -4.61971 0
M  V30 19227 H 1739.74 -2.5058 -1.59991 0
M  V30 19228 H 1737.27 -1.36142 -0.728331 0
M  V30 19229 H 1739.23 -1.42516 -3.84967 0
M  V30 19230 H 1737.89 -0.533133 -3.09542 0
M  V30 19231 H 1737.08 -2.56335 -4.33945 0
M  V30 19232 H 1736.68 -2.67915 -2.60955 0
M  V30 19233 H 1738.97 -3.91199 -5.53145 0
M  V30 19234 H 1739.92 -5.23274 -4.77064 0
M  V30 19235 H 1740.33 -3.53001 -4.40512 0
M  V30 19236 N 1739.72 0.794246 -1.36123 0
M  V30 19237 C 1740.63 1.93807 -1.32197 0
M  V30 19238 C 1741.65 1.7254 -0.2249 0
M  V30 19239 O 1742.83 1.9616 -0.456431 0
M  V30 19240 C 1739.89 3.28593 -1.10578 0
M  V30 19241 C 1738.95 3.6267 -2.29715 0
M  V30 19242 C 1738.18 4.91025 -2.09118 0
M  V30 19243 O 1738.41 5.6039 -1.06389 0
M  V30 19244 O 1737.34 5.23647 -2.96779 0
M  V30 19245 H 1741.17 2.00068 -2.28487 0
M  V30 19246 H 1738.75 0.933808 -1.16621 0
M  V30 19247 H 1740.63 4.0926 -1.0042 0
M  V30 19248 H 1739.31 3.23235 -0.17347 0
M  V30 19249 H 1738.22 2.82329 -2.4544 0
M  V30 19250 H 1739.55 3.72747 -3.21435 0
M  V30 19251 N 1741.2 1.20323 1.01785 0
M  V30 19252 C 1742.43 1.03821 1.78966 0
M  V30 19253 C 1742.84 -0.412622 1.84236 0
M  V30 19254 O 1742.2 -1.2865 1.29443 0
M  V30 19255 C 1742.25 1.61352 3.23493 0
M  V30 19256 O 1741.97 3.00758 3.18553 0
M  V30 19257 C 1743.47 1.49786 4.17228 0
M  V30 19258 H 1740.69 0.365291 0.562853 0
M  V30 19259 H 1743.24 1.59383 1.2813 0
M  V30 19260 H 1741.39 1.09913 3.71481 0
M  V30 19261 H 1741.81 3.28034 4.09261 0
M  V30 19262 H 1743.28 1.94802 5.16484 0
M  V30 19263 H 1743.76 0.450143 4.36887 0
M  V30 19264 H 1744.36 2.00409 3.75122 0
M  V30 19265 N 1742.68 -1.21073 1.00892 0
M  V30 19266 C 1743.59 -2.27265 0.582065 0
M  V30 19267 C 1744.61 -1.69872 -0.376785 0
M  V30 19268 O 1745.78 -1.99969 -0.239644 0
M  V30 19269 C 1742.85 -3.46606 -0.0806764 0
M  V30 19270 C 1741.91 -4.19257 0.923147 0
M  V30 19271 C 1741.14 -5.32901 0.291938 0
M  V30 19272 O 1741.36 -5.6309 -0.910282 0
M  V30 19273 O 1740.3 -5.93453 1.00483 0
M  V30 19274 H 1744.12 -2.65977 1.46594 0
M  V30 19275 H 1741.71 -1.27544 0.777999 0
M  V30 19276 H 1743.59 -4.18978 -0.451177 0
M  V30 19277 H 1742.27 -3.09785 -0.93887 0
M  V30 19278 H 1741.17 -3.4909 1.34488 0
M  V30 19279 H 1742.51 -4.59999 1.75106 0
M  V30 19280 N 1744.16 -0.784156 -1.36707 0
M  V30 19281 C 1745.57 -0.465219 -1.52669 0
M  V30 19282 C 1745.77 1.01729 -1.73935 0
M  V30 19283 O 1744.83 1.80289 -1.76783 0
M  V30 19284 C 1746.14 -1.29109 -2.71572 0
M  V30 19285 C 1747.69 -1.28424 -2.8544 0
M  V30 19286 C 1748.17 -2.09373 -4.07341 0
M  V30 19287 N 1749.66 -2.06792 -4.14477 0
M  V30 19288 C 1750.39 -2.66199 -5.07864 0
M  V30 19289 N 1749.89 -3.34445 -6.06728 0
M  V30 19290 N 1751.68 -2.55962 -5.0044 0
M  V30 19291 H 1743.83 -1.74456 -1.21156 0
M  V30 19292 H 1746.1 -0.741286 -0.59093 0
M  V30 19293 H 1745.8 -2.34219 -2.62363 0
M  V30 19294 H 1745.68 -0.928764 -3.65587 0
M  V30 19295 H 1748.06 -0.241077 -2.94114 0
M  V30 19296 H 1748.14 -1.68629 -1.92348 0
M  V30 19297 H 1747.79 -3.13718 -3.99429 0
M  V30 19298 H 1747.72 -1.66542 -4.99571 0
M  V30 19299 H 1750.21 -1.57118 -3.43689 0
M  V30 19300 H 1750.52 -3.77118 -6.74538 0
M  V30 19301 H 1748.87 -3.38546 -6.06969 0
M  V30 19302 H 1752.06 -2.02251 -4.22152 0
M  V30 19303 H 1752.23 -3.02553 -5.73032 0
M  V30 19304 N 1745.64 1.48215 -0.535727 0
M  V30 19305 C 1746.57 2.3253 0.212562 0
M  V30 19306 C 1747.55 1.42454 0.929568 0
M  V30 19307 O 1748.73 1.71334 0.914228 0
M  V30 19308 C 1745.86 3.23777 1.25641 0
M  V30 19309 C 1744.82 4.22924 0.657191 0
M  V30 19310 C 1744.14 5.03345 1.80411 0
M  V30 19311 C 1745.44 5.20953 -0.374902 0
M  V30 19312 H 1747.14 2.95341 -0.491301 0
M  V30 19313 H 1744.68 1.42024 -0.237718 0
M  V30 19314 H 1746.64 3.81592 1.78789 0
M  V30 19315 H 1745.36 2.58978 1.98993 0
M  V30 19316 H 1744.02 3.66304 0.147184 0
M  V30 19317 H 1743.67 4.34965 2.52615 0
M  V30 19318 H 1743.37 5.70455 1.40906 0
M  V30 19319 H 1744.89 5.64013 2.33926 0
M  V30 19320 H 1746.3 5.73258 0.0697072 0
M  V30 19321 H 1744.7 5.96147 -0.687646 0
M  V30 19322 H 1745.77 4.67739 -1.27861 0
M  V30 19323 N 1747.11 0.27113 1.5525 0
M  V30 19324 C 1748.02 -0.628245 2.26031 0
M  V30 19325 C 1749.04 -1.17339 1.28481 0
M  V30 19326 O 1750.22 -1.20453 1.61409 0
M  V30 19327 C 1747.28 -1.79766 2.96454 0
M  V30 19328 C 1746.34 -1.28958 4.09473 0
M  V30 19329 C 1745.58 -2.40326 4.76528 0
M  V30 19330 O 1745.8 -3.59595 4.42772 0
M  V30 19331 O 1744.73 -2.08708 5.64557 0
M  V30 19332 H 1748.56 -0.0549756 3.0365 0
M  V30 19333 H 1746.14 0.0386859 1.4935 0
M  V30 19334 H 1748.03 -2.4796 3.40725 0
M  V30 19335 H 1746.7 -2.35809 2.21756 0
M  V30 19336 H 1745.61 -0.57422 3.69667 0
M  V30 19337 H 1746.94 -0.774945 4.86061 0
M  V30 19338 N 1748.59 -1.576 -0.00164943 0
M  V30 19339 C 1749.52 -2.11354 -0.992554 0
M  V30 19340 C 1750.5 -1.0223 -1.35952 0
M  V30 19341 O 1751.69 -1.29904 -1.44356 0
M  V30 19342 C 1748.82 -2.61549 -2.28494 0
M  V30 19343 C 1747.77 -3.75185 -2.05962 0
M  V30 19344 C 1747.1 -4.11688 -3.412 0
M  V30 19345 C 1748.4 -5.02526 -1.42355 0
M  V30 19346 H 1750.09 -2.94398 -0.544986 0
M  V30 19347 H 1747.64 -1.4162 -0.260702 0
M  V30 19348 H 1749.59 -2.97782 -2.98168 0
M  V30 19349 H 1748.32 -1.75625 -2.75361 0
M  V30 19350 H 1746.97 -3.39343 -1.38714 0
M  V30 19351 H 1746.62 -3.22789 -3.85767 0
M  V30 19352 H 1746.32 -4.88246 -3.2694 0
M  V30 19353 H 1747.85 -4.50478 -4.12192 0
M  V30 19354 H 1749.26 -5.3654 -2.01984 0
M  V30 19355 H 1747.66 -5.83878 -1.38589 0
M  V30 19356 H 1748.73 -4.83308 -0.392565 0
M  V30 19357 N 1750.07 0.274379 -1.55193 0
M  V30 19358 C 1751.03 1.32237 -1.87206 0
M  V30 19359 C 1752.03 1.4242 -0.74654 0
M  V30 19360 O 1753.22 1.41595 -1.01472 0
M  V30 19361 C 1750.36 2.7039 -2.0761 0
M  V30 19362 H 1751.55 1.05083 -2.80887 0
M  V30 19363 H 1749.1 0.512375 -1.47663 0
M  V30 19364 H 1749.84 3.02727 -1.16306 0
M  V30 19365 H 1749.62 2.64385 -2.89556 0
M  V30 19366 H 1751.11 3.46114 -2.33655 0
M  V30 19367 N 1751.55 1.48103 0.538828 0
M  V30 19368 C 1752.48 1.58044 1.65996 0
M  V30 19369 C 1753.49 0.465316 1.56009 0
M  V30 19370 O 1754.68 0.735769 1.62631 0
M  V30 19371 C 1751.78 1.48587 3.0459 0
M  V30 19372 C 1750.96 2.74987 3.40148 0
M  V30 19373 C 1750.01 2.59109 4.57984 0
M  V30 19374 O 1749.04 3.32974 4.61646 0
M  V30 19375 N 1750.24 1.68143 5.55615 0
M  V30 19376 H 1753.01 2.54726 1.57908 0
M  V30 19377 H 1750.57 1.44715 0.725901 0
M  V30 19378 H 1752.56 1.35673 3.81281 0
M  V30 19379 H 1751.13 0.599157 3.06804 0
M  V30 19380 H 1750.35 3.02531 2.52723 0
M  V30 19381 H 1751.64 3.58862 3.60687 0
M  V30 19382 H 1751.04 1.07317 5.55427 0
M  V30 19383 H 1749.59 1.61171 6.31559 0
M  V30 19384 N 1753.03 -0.787016 1.36542 0
M  V30 19385 C 1753.97 -1.89975 1.31065 0
M  V30 19386 C 1754.94 -1.65134 0.178905 0
M  V30 19387 O 1756.13 -1.8726 0.36581 0
M  V30 19388 C 1753.27 -3.26822 1.10821 0
M  V30 19389 C 1752.38 -3.6372 2.33091 0
M  V30 19390 C 1751.52 -4.89697 2.0584 0
M  V30 19391 C 1750.56 -5.1928 3.24059 0
M  V30 19392 N 1749.69 -6.36441 2.96457 0
M  V30 19393 H 1754.53 -1.93993 2.2621 0
M  V30 19394 H 1752.07 -0.948631 1.12425 0
M  V30 19395 H 1754.03 -4.05741 0.971091 0
M  V30 19396 H 1752.66 -3.22221 0.193302 0
M  V30 19397 H 1751.71 -2.79906 2.57598 0
M  V30 19398 H 1753.02 -3.81529 3.21305 0
M  V30 19399 H 1752.18 -5.76486 1.89072 0
M  V30 19400 H 1750.91 -4.73962 1.14941 0
M  V30 19401 H 1749.92 -4.30973 3.41383 0
M  V30 19402 H 1751.14 -5.36934 4.15787 0
M  V30 19403 H 1749.09 -6.22093 2.08172 0
M  V30 19404 H 1749.01 -6.54594 3.78209 0
M  V30 19405 H 1750.28 -7.26207 2.83273 0
M  V30 19406 N 1754.5 -1.20861 -1.01145 0
M  V30 19407 C 1755.43 -0.986058 -2.11658 0
M  V30 19408 C 1756.42 0.0867558 -1.69879 0
M  V30 19409 O 1757.6 -0.0717892 -1.94067 0
M  V30 19410 C 1754.73 -0.542938 -3.4303 0
M  V30 19411 C 1753.68 -1.55958 -3.98574 0
M  V30 19412 C 1753.01 -0.972917 -5.25774 0
M  V30 19413 C 1754.31 -2.94471 -4.31375 0
M  V30 19414 H 1756 -1.91035 -2.30534 0
M  V30 19415 H 1753.55 -0.919914 -1.10786 0
M  V30 19416 H 1755.5 -0.374446 -4.19733 0
M  V30 19417 H 1754.23 0.416988 -3.23927 0
M  V30 19418 H 1752.89 -1.71552 -3.23984 0
M  V30 19419 H 1752.53 -0.00490446 -5.03 0
M  V30 19420 H 1752.23 -1.65194 -5.63901 0
M  V30 19421 H 1753.76 -0.815607 -6.05128 0
M  V30 19422 H 1755.17 -2.82358 -4.98946 0
M  V30 19423 H 1753.57 -3.59327 -4.80629 0
M  V30 19424 H 1754.64 -3.45804 -3.39923 0
M  V30 19425 N 1755.98 1.20536 -1.01532 0
M  V30 19426 C 1756.93 2.2531 -0.577786 0
M  V30 19427 C 1757.92 1.65017 0.382843 0
M  V30 19428 O 1759.13 1.78214 0.252904 0
M  V30 19429 H 1755.51 0.732872 -0.168532 0
M  V30 19430 H 1757.48 2.59544 -1.4724 0
M  V30 19431 C 1756.23 3.47631 0.0694263 0
M  V30 19432 H 1755.55 3.94302 -0.660748 0
M  V30 19433 H 1756.99 4.22645 0.338706 0
M  V30 19434 C 1755.45 3.1031 1.31185 0
M  V30 19435 O 1755.98 3.21729 2.40527 0
M  V30 19436 N 1754.18 2.64871 1.19547 0
M  V30 19437 H 1753.73 2.55779 0.305741 0
M  V30 19438 H 1753.69 2.4027 2.02775 0
M  V30 19439 N 1757.46 0.791395 1.36289 0
M  V30 19440 C 1758.37 0.192362 2.3381 0
M  V30 19441 C 1759.39 -0.656556 1.61138 0
M  V30 19442 O 1760.56 -0.571877 1.9311 0
M  V30 19443 C 1757.63 -0.661283 3.40335 0
M  V30 19444 C 1756.69 0.206361 4.28804 0
M  V30 19445 C 1755.92 -0.606636 5.30241 0
M  V30 19446 O 1756.14 -1.84247 5.39823 0
M  V30 19447 O 1755.08 -0.00549116 6.019 0
M  V30 19448 H 1758.9 0.998723 2.86809 0
M  V30 19449 H 1756.49 0.552889 1.38793 0
M  V30 19450 H 1758.37 -1.148 4.05461 0
M  V30 19451 H 1757.05 -1.4455 2.89632 0
M  V30 19452 H 1755.95 0.739877 3.66711 0
M  V30 19453 H 1757.29 0.954142 4.82863 0
M  V30 19454 N 1758.94 -1.47929 0.54358 0
M  V30 19455 C 1759.89 -2.3151 -0.224935 0
M  V30 19456 C 1760.88 -1.4208 -0.922473 0
M  V30 19457 O 1762.09 -1.58917 -0.845309 0
M  V30 19458 H 1758.46 -0.746424 -0.0914091 0
M  V30 19459 H 1760.43 -2.94192 0.499381 0
M  V30 19460 C 1759.18 -3.24439 -1.25038 0
M  V30 19461 H 1758.51 -3.93207 -0.723059 0
M  V30 19462 H 1759.95 -3.8578 -1.75927 0
M  V30 19463 C 1758.4 -2.46998 -2.29115 0
M  V30 19464 O 1758.93 -2.20457 -3.358 0
M  V30 19465 N 1757.14 -2.08249 -2.02684 0
M  V30 19466 H 1756.69 -2.30034 -1.15941 0
M  V30 19467 H 1756.65 -1.56748 -2.72539 0
M  V30 19468 N 1760.42 -0.27936 -1.55104 0
M  V30 19469 C 1761.65 0.338937 -2.03801 0
M  V30 19470 C 1762.06 1.49699 -1.15702 0
M  V30 19471 O 1761.4 1.82906 -0.170589 0
M  V30 19472 C 1761.46 0.878265 -3.48607 0
M  V30 19473 C 1761.12 -0.151698 -4.56748 0
M  V30 19474 C 1762.12 -0.972688 -5.1072 0
M  V30 19475 C 1759.81 -0.287161 -5.01478 0
M  V30 19476 C 1761.8 -1.91529 -6.07944 0
M  V30 19477 C 1759.49 -1.23323 -5.98527 0
M  V30 19478 C 1760.49 -2.04579 -6.51641 0
M  V30 19479 O 1760.17 -2.97586 -7.46792 0
M  V30 19480 H 1759.91 0.080791 -0.671155 0
M  V30 19481 H 1762.46 -0.410483 -2.01257 0
M  V30 19482 H 1760.69 1.67783 -3.48405 0
M  V30 19483 H 1762.38 1.41011 -3.80619 0
M  V30 19484 H 1763.14 -0.878791 -4.76972 0
M  V30 19485 H 1759.02 0.33531 -4.59779 0
M  V30 19486 H 1762.57 -2.54993 -6.49326 0
M  V30 19487 H 1758.46 -1.32793 -6.31693 0
M  V30 19488 H 1759.23 -2.92316 -7.64522 0
M  V30 19489 N 1761.9 1.57599 -0.0067085 0
M  V30 19490 C 1762.81 2.1228 0.998709 0
M  V30 19491 C 1763.82 1.06964 1.37239 0
M  V30 19492 O 1765 1.38902 1.45836 0
M  V30 19493 C 1762.06 2.62076 2.26973 0
M  V30 19494 C 1761.12 3.8202 1.95855 0
M  V30 19495 C 1760.36 4.29431 3.16898 0
M  V30 19496 O 1760.58 3.76136 4.2881 0
M  V30 19497 O 1759.51 5.21518 3.00504 0
M  V30 19498 H 1763.34 2.9842 0.563849 0
M  V30 19499 H 1760.92 1.47881 0.212535 0
M  V30 19500 H 1762.81 2.94274 3.01631 0
M  V30 19501 H 1761.48 1.79031 2.69684 0
M  V30 19502 H 1760.39 3.54785 1.18653 0
M  V30 19503 H 1761.72 4.66159 1.57977 0
M  V30 19504 N 1763.37 -0.266145 1.55336 0
M  V30 19505 C 1764.28 -1.35103 1.91793 0
M  V30 19506 C 1765.3 -1.5368 0.815985 0
M  V30 19507 O 1766.48 -1.67675 1.11567 0
M  V30 19508 C 1763.54 -2.68905 2.1884 0
M  V30 19509 C 1762.6 -2.59015 3.42359 0
M  V30 19510 C 1761.83 -3.86437 3.68106 0
M  V30 19511 O 1762.06 -4.87436 2.96247 0
M  V30 19512 O 1760.99 -3.86227 4.61641 0
M  V30 19513 H 1764.82 -1.07181 2.84158 0
M  V30 19514 H 1762.4 -0.465262 1.41971 0
M  V30 19515 H 1764.28 -3.48008 2.3763 0
M  V30 19516 H 1762.96 -2.96599 1.29656 0
M  V30 19517 H 1761.87 -1.78264 3.28896 0
M  V30 19518 H 1763.2 -2.3627 4.31784 0
M  V30 19519 N 1764.85 -1.48386 -0.530967 0
M  V30 19520 C 1766.1 -1.56585 -1.28875 0
M  V30 19521 C 1766.43 -0.238583 -1.92729 0
M  V30 19522 O 1765.71 0.75533 -1.79235 0
M  V30 19523 C 1765.99 -2.70338 -2.37886 0
M  V30 19524 C 1765.84 -4.12766 -1.78729 0
M  V30 19525 C 1767.16 -2.79857 -3.39659 0
M  V30 19526 H 1764.28 -0.569986 -0.46721 0
M  V30 19527 H 1766.92 -1.80555 -0.591596 0
M  V30 19528 H 1765.07 -2.50031 -2.9735 0
M  V30 19529 H 1766.74 -4.4451 -1.23324 0
M  V30 19530 H 1764.99 -4.19813 -1.09269 0
M  V30 19531 H 1765.66 -4.88178 -2.57655 0
M  V30 19532 H 1768.13 -2.9825 -2.90149 0
M  V30 19533 H 1767.01 -3.61179 -4.13329 0
M  V30 19534 H 1767.27 -1.87974 -4.00148 0
M  V30 19535 N 1766.33 0.779763 -1.36958 0
M  V30 19536 C 1767.28 1.89278 -1.32071 0
M  V30 19537 C 1768.25 1.65037 -0.18766 0
M  V30 19538 O 1769.43 1.87064 -0.375736 0
M  V30 19539 C 1766.57 3.2623 -1.12552 0
M  V30 19540 C 1765.68 3.62479 -2.35017 0
M  V30 19541 C 1764.82 4.88599 -2.08434 0
M  V30 19542 C 1763.86 5.17555 -3.26808 0
M  V30 19543 N 1763 6.3486 -2.99828 0
M  V30 19544 H 1767.84 1.9279 -2.27235 0
M  V30 19545 H 1765.37 0.942656 -1.12927 0
M  V30 19546 H 1767.33 4.0522 -0.992595 0
M  V30 19547 H 1765.96 3.22114 -0.210387 0
M  V30 19548 H 1765.01 2.78536 -2.59079 0
M  V30 19549 H 1766.32 3.7982 -3.23324 0
M  V30 19550 H 1765.48 5.75476 -1.92127 0
M  V30 19551 H 1764.22 4.73346 -1.17453 0
M  V30 19552 H 1763.22 4.29156 -3.43664 0
M  V30 19553 H 1764.45 5.34721 -4.18629 0
M  V30 19554 H 1762.39 6.20981 -2.11468 0
M  V30 19555 H 1762.31 6.52579 -3.81676 0
M  V30 19556 H 1763.58 7.24695 -2.8712 0
M  V30 19557 N 1767.81 1.21396 1.00503 0
M  V30 19558 C 1769.03 1.05791 1.7839 0
M  V30 19559 C 1769.46 -0.387921 1.84056 0
M  V30 19560 O 1768.82 -1.27983 1.28413 0
M  V30 19561 C 1768.86 1.65967 3.20137 0
M  V30 19562 O 1767.97 0.905123 4.02345 0
M  V30 19563 H 1767.31 0.372331 0.549787 0
M  V30 19564 H 1769.84 1.60938 1.26334 0
M  V30 19565 H 1769.85 1.70186 3.70811 0
M  V30 19566 H 1768.52 2.71185 3.15327 0
M  V30 19567 H 1767.1 0.938019 3.60909 0
M  V30 19568 N 1769.29 -1.19996 1.0217 0
M  V30 19569 C 1770.53 -1.88818 0.709281 0
M  V30 19570 C 1770.85 -1.80032 -0.764702 0
M  V30 19571 O 1772.05 -2.44037 -1.18988 0
M  V30 19572 C 1770.51 -3.38652 1.2183 0
M  V30 19573 C 1770.12 -3.56012 2.71955 0
M  V30 19574 C 1771.86 -4.12996 0.981542 0
M  V30 19575 C 1769.77 -4.997 3.16313 0
M  V30 19576 H 1768.7 -0.70716 0.261613 0
M  V30 19577 H 1771.35 -1.35715 1.23506 0
M  V30 19578 H 1769.73 -3.91109 0.620478 0
M  V30 19579 H 1770.91 -3.13918 3.37331 0
M  V30 19580 H 1769.22 -2.95046 2.93831 0
M  V30 19581 H 1771.82 -5.18948 1.28831 0
M  V30 19582 H 1772.16 -4.1622 -0.0818616 0
M  V30 19583 H 1772.69 -3.66656 1.543 0
M  V30 19584 H 1769.43 -5.01635 4.21951 0
M  V30 19585 H 1768.95 -5.42585 2.5566 0
M  V30 19586 H 1770.63 -5.68312 3.09242 0
M  V30 19587 N 1770.76 -0.798611 -1.35867 0
M  V30 19588 C 1771.99 -0.387479 -2.03239 0
M  V30 19589 C 1772.41 0.999052 -1.60201 0
M  V30 19590 O 1771.76 1.64237 -0.795763 0
M  V30 19591 C 1771.81 -0.452101 -3.58662 0
M  V30 19592 O 1771.54 -1.78396 -4.00133 0
M  V30 19593 C 1773.04 -0.0327638 -4.43288 0
M  V30 19594 H 1770.26 -0.15845 -0.652024 0
M  V30 19595 H 1772.8 -1.08002 -1.73655 0
M  V30 19596 H 1770.96 0.192107 -3.86923 0
M  V30 19597 H 1771.37 -1.74118 -4.94756 0
M  V30 19598 H 1772.84 -0.129106 -5.51849 0
M  V30 19599 H 1773.32 1.02098 -4.27168 0
M  V30 19600 H 1773.93 -0.649817 -4.20306 0
M  V30 19601 N 1772.24 1.47639 -0.551417 0
M  V30 19602 C 1773.19 2.29936 0.199514 0
M  V30 19603 C 1774.16 1.38704 0.913811 0
M  V30 19604 O 1775.34 1.67666 0.910643 0
M  V30 19605 C 1772.48 3.22544 1.22717 0
M  V30 19606 C 1771.6 4.28865 0.519527 0
M  V30 19607 C 1770.73 5.0863 1.53197 0
M  V30 19608 C 1769.77 6.06731 0.808981 0
M  V30 19609 N 1768.91 6.79476 1.76798 0
M  V30 19610 H 1773.75 2.93631 -0.508414 0
M  V30 19611 H 1771.28 1.44738 -0.262553 0
M  V30 19612 H 1773.24 3.74653 1.83551 0
M  V30 19613 H 1771.87 2.60726 1.9032 0
M  V30 19614 H 1770.92 3.79857 -0.203217 0
M  V30 19615 H 1772.24 4.98778 -0.0471224 0
M  V30 19616 H 1771.39 5.6486 2.214 0
M  V30 19617 H 1770.13 4.38605 2.13253 0
M  V30 19618 H 1769.13 5.49684 0.112991 0
M  V30 19619 H 1770.36 6.78762 0.214239 0
M  V30 19620 H 1768.31 6.12185 2.35722 0
M  V30 19621 H 1768.22 7.45539 1.25333 0
M  V30 19622 H 1769.49 7.40283 2.44133 0
M  V30 19623 N 1773.72 0.287581 1.54954 0
M  V30 19624 C 1774.63 -0.604236 2.26685 0
M  V30 19625 C 1775.65 -1.1597 1.29719 0
M  V30 19626 O 1776.82 -1.18735 1.62678 0
M  V30 19627 C 1773.89 -1.76612 2.98344 0
M  V30 19628 C 1772.95 -1.24608 4.10818 0
M  V30 19629 C 1772.18 -2.35258 4.7905 0
M  V30 19630 O 1772.4 -3.54879 4.46561 0
M  V30 19631 O 1771.34 -2.02709 5.66739 0
M  V30 19632 H 1775.16 -0.0227663 3.03691 0
M  V30 19633 H 1772.75 0.0545243 1.493 0
M  V30 19634 H 1774.63 -2.44332 3.43336 0
M  V30 19635 H 1773.31 -2.33444 2.24244 0
M  V30 19636 H 1772.21 -0.53498 3.70255 0
M  V30 19637 H 1773.55 -0.723348 4.86856 0
M  V30 19638 N 1775.2 -1.57593 0.0150662 0
M  V30 19639 C 1776.61 -1.5591 -0.341189 0
M  V30 19640 C 1776.81 -1.01927 -1.73819 0
M  V30 19641 O 1775.87 -0.659752 -2.43728 0
M  V30 19642 C 1777.18 -3.00016 -0.202639 0
M  V30 19643 C 1778.73 -3.11777 -0.276457 0
M  V30 19644 C 1779.21 -4.57696 -0.166859 0
M  V30 19645 N 1780.7 -4.62657 -0.224287 0
M  V30 19646 C 1781.43 -5.73168 -0.163053 0
M  V30 19647 N 1780.93 -6.92781 -0.0515442 0
M  V30 19648 N 1782.72 -5.61685 -0.216018 0
M  V30 19649 H 1774.87 -1.91018 0.92876 0
M  V30 19650 H 1777.14 -0.878048 0.3574 0
M  V30 19651 H 1776.84 -3.43409 0.759136 0
M  V30 19652 H 1776.72 -3.64285 -0.978599 0
M  V30 19653 H 1779.1 -2.68305 -1.22868 0
M  V30 19654 H 1779.18 -2.50257 0.529637 0
M  V30 19655 H 1778.83 -5.01846 0.781888 0
M  V30 19656 H 1778.76 -5.17179 -0.991635 0
M  V30 19657 H 1781.25 -3.76617 -0.311188 0
M  V30 19658 H 1781.56 -7.72799 -0.0111287 0
M  V30 19659 H 1779.91 -6.94998 -0.0169584 0
M  V30 19660 H 1783.1 -4.67128 -0.301435 0
M  V30 19661 H 1783.27 -6.4779 -0.164834 0
M  V30 19662 N 1776.68 0.257904 -1.55475 0
M  V30 19663 C 1777.62 1.31912 -1.89388 0
M  V30 19664 C 1778.59 1.48358 -0.746927 0
M  V30 19665 O 1779.78 1.62521 -0.999584 0
M  V30 19666 C 1776.92 2.67162 -2.18446 0
M  V30 19667 C 1776.03 2.58814 -3.45889 0
M  V30 19668 C 1775.17 3.86343 -3.64571 0
M  V30 19669 C 1774.21 3.72567 -4.85654 0
M  V30 19670 N 1773.34 4.91964 -5.00915 0
M  V30 19671 H 1778.18 1.02291 -2.79894 0
M  V30 19672 H 1775.72 0.493864 -1.38562 0
M  V30 19673 H 1777.68 3.45874 -2.33296 0
M  V30 19674 H 1776.31 2.94954 -1.31157 0
M  V30 19675 H 1775.36 1.7173 -3.39431 0
M  V30 19676 H 1776.67 2.4454 -4.34743 0
M  V30 19677 H 1775.83 4.73498 -3.79321 0
M  V30 19678 H 1774.56 4.03501 -2.7393 0
M  V30 19679 H 1773.57 2.83795 -4.70893 0
M  V30 19680 H 1774.79 3.56914 -5.77745 0
M  V30 19681 H 1772.74 5.09505 -4.13208 0
M  V30 19682 H 1772.66 4.80279 -5.83839 0
M  V30 19683 H 1773.93 5.80649 -5.20064 0
M  V30 19684 N 1778.15 1.48666 0.52309 0
M  V30 19685 C 1779.4 1.57267 1.28043 0
M  V30 19686 C 1779.73 0.248801 1.926 0
M  V30 19687 O 1779.01 -0.745814 1.79633 0
M  V30 19688 C 1779.29 2.71595 2.36449 0
M  V30 19689 C 1779.14 4.13708 1.76538 0
M  V30 19690 C 1780.46 2.81654 3.3817 0
M  V30 19691 H 1777.58 0.572455 0.464181 0
M  V30 19692 H 1780.22 1.80866 0.582013 0
M  V30 19693 H 1778.37 2.51604 2.9602 0
M  V30 19694 H 1780.05 4.45158 1.20964 0
M  V30 19695 H 1778.29 4.20386 1.07041 0
M  V30 19696 H 1778.96 4.89538 2.55062 0
M  V30 19697 H 1781.44 2.99784 2.88563 0
M  V30 19698 H 1780.31 3.63366 4.11408 0
M  V30 19699 H 1780.57 1.90093 3.99145 0
M  V30 19700 N 1779.63 -0.772489 1.37369 0
M  V30 19701 C 1780.56 -1.89969 1.35772 0
M  V30 19702 C 1781.54 -1.68586 0.226452 0
M  V30 19703 O 1782.73 -1.89454 0.426692 0
M  V30 19704 C 1779.86 -3.27242 1.16319 0
M  V30 19705 C 1778.81 -3.63187 2.2645 0
M  V30 19706 C 1778.14 -4.98992 1.92121 0
M  V30 19707 C 1779.44 -3.70013 3.6863 0
M  V30 19708 H 1781.13 -1.91564 2.30095 0
M  V30 19709 H 1778.68 -0.920241 1.10759 0
M  V30 19710 H 1780.63 -4.05734 1.13832 0
M  V30 19711 H 1779.36 -3.26078 0.184513 0
M  V30 19712 H 1778.01 -2.87001 2.28091 0
M  V30 19713 H 1777.66 -4.94368 0.927848 0
M  V30 19714 H 1777.36 -5.24012 2.65867 0
M  V30 19715 H 1778.89 -5.79886 1.91219 0
M  V30 19716 H 1780.3 -4.38659 3.69122 0
M  V30 19717 H 1778.7 -4.06529 4.41423 0
M  V30 19718 H 1779.77 -2.70694 4.02309 0
M  V30 19719 N 1781.11 -1.21927 -0.998575 0
M  V30 19720 C 1782.06 -0.984283 -2.08759 0
M  V30 19721 C 1783.03 0.0920029 -1.65845 0
M  V30 19722 O 1784.21 -0.0564334 -1.90717 0
M  V30 19723 C 1781.35 -0.562006 -3.40493 0
M  V30 19724 C 1780.47 -1.70844 -3.96783 0
M  V30 19725 C 1779.6 -1.2347 -5.16651 0
M  V30 19726 C 1778.64 -2.35305 -5.65065 0
M  V30 19727 N 1777.78 -1.89018 -6.76178 0
M  V30 19728 H 1782.62 -1.91653 -2.28195 0
M  V30 19729 H 1780.15 -0.955028 -1.11882 0
M  V30 19730 H 1782.11 -0.298383 -4.16132 0
M  V30 19731 H 1780.74 0.33324 -3.21075 0
M  V30 19732 H 1779.79 -2.08653 -3.18069 0
M  V30 19733 H 1781.11 -2.54987 -4.28699 0
M  V30 19734 H 1780.26 -0.928121 -5.99559 0
M  V30 19735 H 1779 -0.363397 -4.86344 0
M  V30 19736 H 1778 -2.66758 -4.8075 0
M  V30 19737 H 1779.23 -3.22941 -5.97399 0
M  V30 19738 H 1777.17 -1.04242 -6.47665 0
M  V30 19739 H 1777.09 -2.66731 -7.07383 0
M  V30 19740 H 1778.36 -1.61413 -7.62605 0
M  V30 19741 N 1782.59 1.19452 -1.02805 0
M  V30 19742 C 1783.5 2.2631 -0.618147 0
M  V30 19743 C 1784.51 1.70449 0.349712 0
M  V30 19744 O 1785.69 2.00325 0.207801 0
M  V30 19745 C 1782.76 3.46691 0.0255242 0
M  V30 19746 C 1781.82 4.17735 -0.98973 0
M  V30 19747 C 1781.05 5.32369 -0.376681 0
M  V30 19748 O 1781.27 5.64467 0.820584 0
M  V30 19749 O 1780.21 5.9178 -1.09911 0
M  V30 19750 H 1784.03 2.63611 -1.50807 0
M  V30 19751 H 1781.62 1.2629 -0.798192 0
M  V30 19752 H 1783.5 4.19643 0.384464 0
M  V30 19753 H 1782.17 3.1124 0.889467 0
M  V30 19754 H 1781.08 3.46906 -1.40024 0
M  V30 19755 H 1782.41 4.57155 -1.82402 0
M  V30 19756 N 1784.07 0.805805 1.35442 0
M  V30 19757 C 1785 0.230077 2.32364 0
M  V30 19758 C 1785.98 -0.644034 1.57436 0
M  V30 19759 O 1787.16 -0.574467 1.85509 0
M  V30 19760 C 1784.29 -0.622814 3.4167 0
M  V30 19761 C 1783.25 0.152739 4.27727 0
M  V30 19762 C 1782.57 -0.821803 5.28347 0
M  V30 19763 C 1783.87 1.35128 5.04517 0
M  V30 19764 H 1785.57 1.03983 2.80763 0
M  V30 19765 H 1783.11 0.501467 1.34986 0
M  V30 19766 H 1785.07 -1.03564 4.08476 0
M  V30 19767 H 1783.79 -1.46544 2.91877 0
M  V30 19768 H 1782.45 0.546732 3.625 0
M  V30 19769 H 1782.1 -1.65991 4.74822 0
M  V30 19770 H 1781.8 -0.307209 5.86796 0
M  V30 19771 H 1783.32 -1.23285 5.98024 0
M  V30 19772 H 1784.73 1.01337 5.64273 0
M  V30 19773 H 1783.13 1.80031 5.72459 0
M  V30 19774 H 1784.2 2.13833 4.35205 0
M  V30 19775 N 1785.54 -1.47344 0.559239 0
M  V30 19776 C 1786.48 -2.28095 -0.224826 0
M  V30 19777 C 1787.49 -1.37127 -0.877492 0
M  V30 19778 O 1788.68 -1.61933 -0.751002 0
M  V30 19779 C 1785.78 -3.1145 -1.33611 0
M  V30 19780 C 1784.95 -4.30392 -0.779845 0
M  V30 19781 C 1784.01 -4.95327 -1.77587 0
M  V30 19782 O 1783.04 -5.53654 -1.32119 0
M  V30 19783 N 1784.24 -4.90206 -3.10931 0
M  V30 19784 H 1787 -2.96026 0.46786 0
M  V30 19785 H 1784.56 -1.56996 0.395448 0
M  V30 19786 H 1786.56 -3.51758 -2.00121 0
M  V30 19787 H 1785.13 -2.45749 -1.932 0
M  V30 19788 H 1784.35 -3.94151 0.0620861 0
M  V30 19789 H 1785.63 -5.07322 -0.387581 0
M  V30 19790 H 1785.03 -4.44022 -3.50515 0
M  V30 19791 H 1783.59 -5.34527 -3.72994 0
M  V30 19792 N 1787.02 -0.295795 -1.54799 0
M  V30 19793 C 1787.97 0.582614 -2.23325 0
M  V30 19794 C 1788.94 1.13365 -1.21398 0
M  V30 19795 O 1790.12 1.17914 -1.50003 0
M  V30 19796 C 1787.26 1.75112 -2.97371 0
M  V30 19797 C 1786.38 1.23197 -4.14061 0
M  V30 19798 C 1785.51 2.36393 -4.75701 0
M  V30 19799 C 1784.55 1.81585 -5.84545 0
M  V30 19800 N 1783.69 2.88334 -6.40162 0
M  V30 19801 H 1788.53 -0.00836451 -2.97999 0
M  V30 19802 H 1786.07 -0.0158966 -1.47091 0
M  V30 19803 H 1788.02 2.4383 -3.38531 0
M  V30 19804 H 1786.65 2.31381 -2.25084 0
M  V30 19805 H 1785.71 0.437226 -3.77879 0
M  V30 19806 H 1787.02 0.790706 -4.92493 0
M  V30 19807 H 1786.17 3.13067 -5.19687 0
M  V30 19808 H 1784.91 2.83844 -3.9659 0
M  V30 19809 H 1783.92 1.03399 -5.3999 0
M  V30 19810 H 1785.14 1.35045 -6.65537 0
M  V30 19811 H 1783.09 3.35129 -5.63937 0
M  V30 19812 H 1783 2.48687 -7.13926 0
M  V30 19813 H 1784.27 3.64921 -6.88805 0
M  V30 19814 N 1788.5 1.57583 -0.0234236 0
M  V30 19815 C 1789.73 1.96267 0.670371 0
M  V30 19816 C 1790.15 0.899586 1.65194 0
M  V30 19817 O 1789.51 -0.140079 1.80758 0
M  V30 19818 C 1789.56 3.34049 1.35806 0
M  V30 19819 O 1788.66 3.3001 2.4732 0
M  V30 19820 H 1788 0.640097 0.176557 0
M  V30 19821 H 1790.53 2.04429 -0.0835829 0
M  V30 19822 H 1790.54 3.70151 1.71616 0
M  V30 19823 H 1789.22 4.10969 0.63852 0
M  V30 19824 H 1787.79 3.05618 2.13664 0
M  V30 19825 N 1789.98 -0.249655 1.5561 0
M  V30 19826 C 1791.23 -0.97808 1.77313 0
M  V30 19827 C 1791.55 -1.85423 0.587253 0
M  V30 19828 O 1790.81 -1.90928 -0.429527 0
M  V30 19829 C 1791.11 -1.87138 3.0449 0
M  V30 19830 C 1790.77 -1.15081 4.35967 0
M  V30 19831 C 1789.44 -0.95166 4.71696 0
M  V30 19832 C 1791.79 -0.639877 5.17257 0
M  V30 19833 C 1789.12 -0.229227 5.86252 0
M  V30 19834 C 1791.47 0.0690756 6.32562 0
M  V30 19835 C 1790.13 0.279731 6.66914 0
M  V30 19836 H 1789.4 -0.357905 0.648834 0
M  V30 19837 H 1792.05 -0.248402 1.89882 0
M  V30 19838 H 1790.35 -2.66802 2.86921 0
M  V30 19839 H 1792.05 -2.43662 3.18481 0
M  V30 19840 H 1788.64 -1.31597 4.07897 0
M  V30 19841 H 1792.83 -0.78129 4.90112 0
M  V30 19842 H 1788.08 -0.0555172 6.11375 0
M  V30 19843 H 1792.26 0.472628 6.94794 0
M  V30 19844 H 1789.88 0.841482 7.55528 0
M  V30 19845 N 1791.46 -1.48941 -0.515198 0
M  V30 19846 C 1792.37 -1.67271 -1.64492 0
M  V30 19847 C 1793.38 -0.555222 -1.64904 0
M  V30 19848 O 1794.56 -0.828161 -1.83585 0
M  V30 19849 C 1791.62 -1.722 -3.00912 0
M  V30 19850 C 1790.69 -2.95683 -3.11239 0
M  V30 19851 C 1789.92 -3.00368 -4.41152 0
M  V30 19852 O 1790.14 -2.13041 -5.29122 0
M  V30 19853 O 1789.08 -3.92691 -4.56155 0
M  V30 19854 H 1792.9 -2.62947 -1.51962 0
M  V30 19855 H 1790.49 -1.32515 -0.68993 0
M  V30 19856 H 1792.37 -1.77877 -3.82018 0
M  V30 19857 H 1791.04 -0.796995 -3.13735 0
M  V30 19858 H 1789.95 -2.95531 -2.29374 0
M  V30 19859 H 1791.28 -3.87617 -3.03338 0
M  V30 19860 N 1792.94 0.765193 -1.37777 0
M  V30 19861 C 1794.16 1.55436 -1.36556 0
M  V30 19862 C 1794.58 1.8874 0.0475187 0
M  V30 19863 O 1793.94 1.51933 1.01107 0
M  V30 19864 C 1793.99 2.86063 -2.21021 0
M  V30 19865 O 1793.71 2.54183 -3.56823 0
M  V30 19866 C 1795.21 3.80261 -2.27851 0
M  V30 19867 H 1792.43 0.481331 -0.467506 0
M  V30 19868 H 1794.97 0.947906 -1.81204 0
M  V30 19869 H 1793.13 3.43114 -1.79864 0
M  V30 19870 H 1793.54 3.37879 -4.01171 0
M  V30 19871 H 1795.02 4.68904 -2.91261 0
M  V30 19872 H 1795.49 4.19865 -1.28881 0
M  V30 19873 H 1796.1 3.29137 -2.69349 0
M  V30 19874 N 1794.41 1.22455 0.992094 0
M  V30 19875 C 1795.32 1.01173 2.11663 0
M  V30 19876 C 1796.34 -0.0402168 1.73954 0
M  V30 19877 O 1797.52 0.152685 2.0082 0
M  V30 19878 C 1794.58 0.592995 3.41591 0
M  V30 19879 C 1793.64 1.71865 3.93397 0
M  V30 19880 C 1792.87 1.3198 5.17124 0
M  V30 19881 O 1793.1 0.198943 5.70053 0
M  V30 19882 O 1792.03 2.13658 5.62702 0
M  V30 19883 H 1795.86 1.9539 2.32501 0
M  V30 19884 H 1793.44 1.01056 1.10036 0
M  V30 19885 H 1795.32 0.36987 4.19774 0
M  V30 19886 H 1794 -0.320311 3.22111 0
M  V30 19887 H 1792.91 1.9963 3.16384 0
M  V30 19888 H 1794.24 2.60985 4.1731 0
M  V30 19889 N 1795.89 -1.18905 1.03437 0
M  V30 19890 C 1797.31 -1.4075 0.752444 0
M  V30 19891 C 1797.51 -1.90361 -0.660679 0
M  V30 19892 O 1796.56 -2.08389 -1.42584 0
M  V30 19893 C 1797.88 -2.4138 1.79321 0
M  V30 19894 C 1799.42 -2.55118 1.81339 0
M  V30 19895 C 1799.9 -3.59007 2.8439 0
M  V30 19896 N 1801.39 -3.66508 2.83242 0
M  V30 19897 C 1802.13 -4.46602 3.59631 0
M  V30 19898 N 1801.62 -5.30355 4.45753 0
M  V30 19899 N 1803.41 -4.41304 3.48148 0
M  V30 19900 H 1795.57 -0.850259 1.94639 0
M  V30 19901 H 1797.83 -0.435962 0.841808 0
M  V30 19902 H 1797.53 -2.11963 2.80651 0
M  V30 19903 H 1797.41 -3.40636 1.62008 0
M  V30 19904 H 1799.8 -2.83856 0.806847 0
M  V30 19905 H 1799.88 -1.55996 2.02728 0
M  V30 19906 H 1799.52 -3.31011 3.8522 0
M  V30 19907 H 1799.45 -4.57792 2.60258 0
M  V30 19908 H 1801.94 -3.06697 2.20784 0
M  V30 19909 H 1802.25 -5.88603 5.00766 0
M  V30 19910 H 1800.6 -5.29797 4.49823 0
M  V30 19911 H 1803.79 -3.74918 2.80275 0
M  V30 19912 H 1803.96 -5.03483 4.07932 0
M  V30 19913 N 1797.37 -0.812977 -1.35013 0
M  V30 19914 C 1798.65 -0.319343 -1.92976 0
M  V30 19915 C 1799.03 1.19196 -1.74228 0
M  V30 19916 O 1798.37 1.99445 -1.11507 0
M  V30 19917 C 1798.58 -0.737753 -3.41113 0
M  V30 19918 C 1799.93 -0.730889 -4.18262 0
M  V30 19919 O 1800.96 -0.679701 -3.49655 0
M  V30 19920 O 1799.82 -0.795045 -5.40686 0
M  V30 19921 H 1796.91 -0.0850284 -0.822617 0
M  V30 19922 H 1799.46 -0.897102 -1.44049 0
M  V30 19923 H 1798.23 -1.77911 -3.48516 0
M  V30 19924 H 1797.85 -0.135148 -3.9737 0
M  V30 19925 N 1798.85 1.47045 -0.567045 0
M  V30 19926 C 1799.8 2.27158 0.195716 0
M  V30 19927 C 1800.78 1.34943 0.876307 0
M  V30 19928 O 1801.97 1.59229 0.772989 0
M  V30 19929 C 1799.1 3.20936 1.21882 0
M  V30 19930 C 1798.19 4.20633 0.54114 0
M  V30 19931 N 1798.58 5.0426 -0.394396 0
M  V30 19932 C 1796.88 4.38878 0.793847 0
M  V30 19933 C 1797.58 5.76324 -0.788986 0
M  V30 19934 N 1796.55 5.43416 -0.141613 0
M  V30 19935 H 1800.36 2.89201 -0.523432 0
M  V30 19936 H 1797.87 1.57705 -0.387691 0
M  V30 19937 H 1799.87 3.77023 1.77931 0
M  V30 19938 H 1798.53 2.60451 1.93895 0
M  V30 19939 H 1799.54 5.12158 -0.769095 0
M  V30 19940 H 1796.22 3.89556 1.50175 0
M  V30 19941 H 1797.61 6.5358 -1.55829 0
M  V30 19942 N 1800.33 0.304 1.5464 0
M  V30 19943 C 1801.26 -0.563854 2.2659 0
M  V30 19944 C 1802.24 -1.13547 1.26653 0
M  V30 19945 O 1803.42 -1.16425 1.55431 0
M  V30 19946 C 1800.55 -1.73437 3.00894 0
M  V30 19947 C 1799.51 -1.29297 4.08003 0
M  V30 19948 C 1798.83 -2.54888 4.70038 0
M  V30 19949 C 1800.13 -0.422027 5.20592 0
M  V30 19950 H 1801.83 0.0362569 2.99378 0
M  V30 19951 H 1799.37 0.0188781 1.43988 0
M  V30 19952 H 1801.32 -2.34762 3.4995 0
M  V30 19953 H 1800.05 -2.36076 2.25689 0
M  V30 19954 H 1798.71 -0.702757 3.59801 0
M  V30 19955 H 1798.36 -3.15848 3.9147 0
M  V30 19956 H 1798.06 -2.26054 5.42378 0
M  V30 19957 H 1799.58 -3.17011 5.21859 0
M  V30 19958 H 1800.99 -0.941036 5.65524 0
M  V30 19959 H 1799.39 -0.227323 5.99669 0
M  V30 19960 H 1800.46 0.55212 4.81746 0
M  V30 19961 N 1801.8 -1.57568 0.0317802 0
M  V30 19962 C 1803.22 -1.56264 -0.324633 0
M  V30 19963 C 1803.42 -1.03765 -1.72728 0
M  V30 19964 O 1802.48 -0.685566 -2.43015 0
M  V30 19965 C 1803.79 -3.00214 -0.170806 0
M  V30 19966 C 1805.34 -3.12052 -0.243373 0
M  V30 19967 C 1805.81 -4.57847 -0.118304 0
M  V30 19968 N 1807.3 -4.62869 -0.175203 0
M  V30 19969 C 1808.04 -5.73309 -0.102252 0
M  V30 19970 N 1807.53 -6.92797 0.0219373 0
M  V30 19971 N 1809.33 -5.61882 -0.156432 0
M  V30 19972 H 1801.48 -1.90022 0.948968 0
M  V30 19973 H 1803.74 -0.874208 0.366693 0
M  V30 19974 H 1803.45 -3.42585 0.795517 0
M  V30 19975 H 1803.32 -3.65302 -0.939907 0
M  V30 19976 H 1805.71 -2.69593 -1.20016 0
M  V30 19977 H 1805.79 -2.49681 0.55615 0
M  V30 19978 H 1805.43 -5.00988 0.835072 0
M  V30 19979 H 1805.36 -5.18202 -0.936726 0
M  V30 19980 H 1807.85 -3.76925 -0.271225 0
M  V30 19981 H 1808.17 -7.72768 0.0708376 0
M  V30 19982 H 1806.51 -6.94977 0.0567564 0
M  V30 19983 H 1809.7 -4.67422 -0.251873 0
M  V30 19984 H 1809.88 -6.47929 -0.0961177 0
M  V30 19985 N 1803.28 0.241399 -1.5574 0
M  V30 19986 C 1804.53 0.96675 -1.77478 0
M  V30 19987 C 1804.85 1.85644 -0.596757 0
M  V30 19988 O 1804.12 1.92035 0.387236 0
M  V30 19989 H 1802.7 0.35995 -0.654557 0
M  V30 19990 H 1805.36 0.258023 -1.93185 0
M  V30 19991 H 1804.46 1.58524 -2.68843 0
M  V30 19992 N 1804.76 1.49212 0.507292 0
M  V30 19993 C 1805.99 1.61845 1.28412 0
M  V30 19994 C 1806.4 0.286619 1.87016 0
M  V30 19995 O 1805.74 -0.737169 1.6826 0
M  V30 19996 C 1805.8 2.62374 2.45764 0
M  V30 19997 C 1805.47 4.06882 2.08077 0
M  V30 19998 C 1806.46 4.93879 1.62418 0
M  V30 19999 C 1804.15 4.52574 2.17904 0
M  V30 20000 C 1806.14 6.24603 1.27082 0
M  V30 20001 C 1803.83 5.83313 1.8218 0
M  V30 20002 C 1804.83 6.69151 1.36843 0
M  V30 20003 O 1804.52 7.97454 1.01598 0
M  V30 20004 H 1804.25 0.547926 0.395921 0
M  V30 20005 H 1806.8 1.95937 0.616255 0
M  V30 20006 H 1805.03 2.23449 3.15606 0
M  V30 20007 H 1806.72 2.64603 3.07799 0
M  V30 20008 H 1807.49 4.59808 1.54277 0
M  V30 20009 H 1803.37 3.85932 2.52146 0
M  V30 20010 H 1806.91 6.91557 0.91623 0
M  V30 20011 H 1802.81 6.16913 1.89969 0
M  V30 20012 H 1803.58 8.10409 1.148 0
M  V30 20013 N 1806.24 -0.757876 1.38181 0
M  V30 20014 C 1807.49 -1.51222 1.33472 0
M  V30 20015 C 1807.8 -1.9546 -0.0740525 0
M  V30 20016 O 1809.01 -2.70404 -0.243664 0
M  V30 20017 C 1807.46 -2.73138 2.34358 0
M  V30 20018 C 1807.07 -2.35943 3.80835 0
M  V30 20019 C 1808.81 -3.51041 2.38685 0
M  V30 20020 C 1806.72 -3.54444 4.73417 0
M  V30 20021 H 1805.65 -0.567789 0.496116 0
M  V30 20022 H 1808.3 -0.828861 1.63714 0
M  V30 20023 H 1806.68 -3.43433 1.97153 0
M  V30 20024 H 1807.86 -1.73341 4.26954 0
M  V30 20025 H 1806.17 -1.71184 3.79585 0
M  V30 20026 H 1808.77 -4.39143 3.05054 0
M  V30 20027 H 1809.11 -3.91892 1.40451 0
M  V30 20028 H 1809.65 -2.87755 2.74667 0
M  V30 20029 H 1806.39 -3.18663 5.7283 0
M  V30 20030 H 1805.91 -4.16103 4.31993 0
M  V30 20031 H 1807.58 -4.21081 4.91223 0
M  V30 20032 N 1807.72 -1.22979 -0.985586 0
M  V30 20033 C 1809.13 -0.991329 -1.25079 0
M  V30 20034 C 1809.33 0.310701 -1.9909 0
M  V30 20035 O 1808.39 1.03147 -2.30471 0
M  V30 20036 C 1809.7 -2.19483 -2.05542 0
M  V30 20037 C 1811.25 -2.23918 -2.187 0
M  V30 20038 C 1811.72 -3.43841 -3.02552 0
M  V30 20039 N 1813.22 -3.44048 -3.10137 0
M  V30 20040 C 1813.95 -4.33493 -3.75328 0
M  V30 20041 N 1813.45 -5.33167 -4.42385 0
M  V30 20042 N 1815.24 -4.2125 -3.72163 0
M  V30 20043 H 1807.39 -2.0668 -0.489617 0
M  V30 20044 H 1809.65 -0.906048 -0.278892 0
M  V30 20045 H 1809.36 -3.13945 -1.5853 0
M  V30 20046 H 1809.23 -2.20144 -3.06295 0
M  V30 20047 H 1811.62 -1.3 -2.64923 0
M  V30 20048 H 1811.7 -2.27293 -1.17353 0
M  V30 20049 H 1811.35 -4.38063 -2.57027 0
M  V30 20050 H 1811.28 -3.37707 -4.04056 0
M  V30 20051 H 1813.77 -2.71927 -2.6242 0
M  V30 20052 H 1814.08 -5.97684 -4.89892 0
M  V30 20053 H 1812.42 -5.37073 -4.4111 0
M  V30 20054 H 1815.62 -3.42629 -3.18941 0
M  V30 20055 H 1815.79 -4.91162 -4.22687 0
M  V30 20056 N 1809.19 1.18355 -1.04066 0
M  V30 20057 C 1810.1 2.25641 -0.642115 0
M  V30 20058 C 1811.12 1.70811 0.331614 0
M  V30 20059 O 1812.3 2.00534 0.186542 0
M  V30 20060 C 1809.36 3.46698 -0.0112485 0
M  V30 20061 C 1808.42 4.16662 -1.03398 0
M  V30 20062 C 1807.66 5.3194 -0.433125 0
M  V30 20063 O 1807.88 5.65305 0.760669 0
M  V30 20064 O 1806.81 5.90581 -1.16182 0
M  V30 20065 H 1810.64 2.61997 -1.53595 0
M  V30 20066 H 1808.22 1.25437 -0.811542 0
M  V30 20067 H 1810.11 4.20027 0.339934 0
M  V30 20068 H 1808.78 3.12166 0.856405 0
M  V30 20069 H 1807.69 3.45402 -1.43696 0
M  V30 20070 H 1809.02 4.55194 -1.8724 0
M  V30 20071 N 1810.67 0.820125 1.3458 0
M  V30 20072 C 1811.92 0.403287 1.97627 0
M  V30 20073 C 1812.23 -1.0385 1.65754 0
M  V30 20074 O 1813.44 -1.55911 2.2227 0
M  V30 20075 C 1811.9 0.670161 3.53606 0
M  V30 20076 C 1811.5 2.12538 3.94375 0
M  V30 20077 C 1813.25 0.31935 4.23297 0
M  V30 20078 C 1811.16 2.3373 5.43254 0
M  V30 20079 H 1810.09 0.147062 0.739519 0
M  V30 20080 H 1812.74 1.00609 1.53461 0
M  V30 20081 H 1811.12 -0.00276896 3.96 0
M  V30 20082 H 1812.29 2.83724 3.63094 0
M  V30 20083 H 1810.61 2.43736 3.37612 0
M  V30 20084 H 1813.2 0.45555 5.32756 0
M  V30 20085 H 1813.55 -0.735875 4.09745 0
M  V30 20086 H 1814.08 0.946743 3.8637 0
M  V30 20087 H 1810.82 3.37747 5.61789 0
M  V30 20088 H 1810.34 1.67084 5.76058 0
M  V30 20089 H 1812.02 2.1595 6.09897 0
M  V30 20090 N 1812.15 -1.46743 0.574835 0
M  V30 20091 C 1813.06 -2.34015 -0.16559 0
M  V30 20092 C 1814.08 -1.49273 -0.894064 0
M  V30 20093 O 1815.25 -1.82162 -0.859013 0
M  V30 20094 C 1812.32 -3.26313 -1.17136 0
M  V30 20095 C 1811.38 -4.26952 -0.448413 0
M  V30 20096 C 1810.61 -5.1484 -1.40627 0
M  V30 20097 O 1810.83 -5.05508 -2.6423 0
M  V30 20098 O 1809.77 -5.9481 -0.921143 0
M  V30 20099 H 1813.59 -2.98664 0.550754 0
M  V30 20100 H 1811.18 -1.45589 0.335297 0
M  V30 20101 H 1813.06 -3.83276 -1.75149 0
M  V30 20102 H 1811.74 -2.64269 -1.86931 0
M  V30 20103 H 1810.64 -3.73698 0.17336 0
M  V30 20104 H 1811.98 -4.91759 0.208419 0
M  V30 20105 N 1813.63 -0.312197 -1.54477 0
M  V30 20106 C 1814.59 0.54612 -2.22599 0
M  V30 20107 C 1815.59 1.05252 -1.21568 0
M  V30 20108 O 1816.78 0.946756 -1.46226 0
M  V30 20109 C 1813.91 1.75733 -2.92114 0
M  V30 20110 H 1815.11 -0.0492216 -2.9986 0
M  V30 20111 H 1812.66 -0.063149 -1.56172 0
M  V30 20112 H 1813.39 2.39221 -2.18961 0
M  V30 20113 H 1813.18 1.40175 -3.66188 0
M  V30 20114 H 1814.67 2.36685 -3.44049 0
M  V30 20115 N 1815.11 1.57549 -0.040136 0
M  V30 20116 C 1816.33 1.96557 0.645986 0
M  V30 20117 C 1816.75 0.91717 1.65026 0
M  V30 20118 O 1816.11 -0.0998395 1.82227 0
M  V30 20119 C 1816.16 3.35641 1.34266 0
M  V30 20120 O 1815.88 4.36461 0.378616 0
M  V30 20121 C 1817.38 3.89344 2.11957 0
M  V30 20122 H 1814.6 0.64713 0.177379 0
M  V30 20123 H 1817.14 2.0424 -0.103167 0
M  V30 20124 H 1815.3 3.29143 2.04312 0
M  V30 20125 H 1815.71 5.17157 0.874592 0
M  V30 20126 H 1817.19 4.88975 2.5614 0
M  V30 20127 H 1817.66 3.24178 2.96319 0
M  V30 20128 H 1818.27 3.99145 1.46845 0
M  V30 20129 N 1816.58 -0.233136 1.55866 0
M  V30 20130 C 1817.83 -0.957324 1.77988 0
M  V30 20131 C 1818.15 -1.85325 0.606593 0
M  V30 20132 O 1817.42 -1.92237 -0.377047 0
M  V30 20133 H 1816 -0.356474 0.656457 0
M  V30 20134 H 1818.67 -0.247774 1.93319 0
M  V30 20135 H 1817.76 -1.57096 2.6968 0
M  V30 20136 N 1818.06 -1.49479 -0.499372 0
M  V30 20137 C 1818.99 -1.69182 -1.60934 0
M  V30 20138 C 1819.97 -0.54053 -1.61283 0
M  V30 20139 O 1821.16 -0.776554 -1.77998 0
M  V30 20140 C 1818.29 -1.75985 -2.99411 0
M  V30 20141 C 1817.24 -2.9092 -3.13926 0
M  V30 20142 C 1816.57 -2.82837 -4.5377 0
M  V30 20143 C 1817.87 -4.31833 -2.93799 0
M  V30 20144 H 1819.56 -2.62112 -1.44699 0
M  V30 20145 H 1817.11 -1.26135 -0.694688 0
M  V30 20146 H 1819.06 -1.88354 -3.76962 0
M  V30 20147 H 1817.79 -0.796557 -3.16737 0
M  V30 20148 H 1816.45 -2.78155 -2.388 0
M  V30 20149 H 1816.09 -1.84412 -4.67976 0
M  V30 20150 H 1815.79 -3.59979 -4.64423 0
M  V30 20151 H 1817.32 -2.97217 -5.3338 0
M  V30 20152 H 1818.73 -4.45271 -3.61119 0
M  V30 20153 H 1817.13 -5.10209 -3.15922 0
M  V30 20154 H 1818.2 -4.46165 -1.89908 0
M  V30 20155 N 1819.54 0.750537 -1.38581 0
M  V30 20156 C 1820.47 1.87411 -1.31946 0
M  V30 20157 C 1821.49 1.61151 -0.231101 0
M  V30 20158 O 1822.68 1.71674 -0.488893 0
M  V30 20159 C 1819.78 3.23112 -1.02233 0
M  V30 20160 C 1818.95 3.76852 -2.22039 0
M  V30 20161 C 1818.01 4.91077 -1.89023 0
M  V30 20162 O 1817.03 5.0555 -2.61549 0
M  V30 20163 N 1818.24 5.74287 -0.847021 0
M  V30 20164 H 1821 1.93613 -2.28767 0
M  V30 20165 H 1818.56 0.930603 -1.32482 0
M  V30 20166 H 1820.55 3.97074 -0.78193 0
M  V30 20167 H 1819.12 3.12277 -0.141981 0
M  V30 20168 H 1818.34 2.94421 -2.62126 0
M  V30 20169 H 1819.63 4.09489 -3.01987 0
M  V30 20170 H 1819.03 5.65166 -0.245635 0
M  V30 20171 H 1817.59 6.48383 -0.666505 0
M  V30 20172 N 1821.02 1.235 0.979051 0
M  V30 20173 C 1822.25 1.09462 1.75572 0
M  V30 20174 C 1822.66 -0.3538 1.85455 0
M  V30 20175 O 1822.02 -1.24467 1.3347 0
M  V30 20176 C 1822.07 1.71562 3.18196 0
M  V30 20177 O 1821.79 3.1074 3.08824 0
M  V30 20178 C 1823.29 1.62984 4.12251 0
M  V30 20179 H 1820.51 0.383013 0.550946 0
M  V30 20180 H 1823.06 1.63378 1.22995 0
M  V30 20181 H 1821.21 1.21676 3.67796 0
M  V30 20182 H 1821.63 3.40888 3.98617 0
M  V30 20183 H 1823.1 2.11135 5.10025 0
M  V30 20184 H 1823.58 0.588907 4.35234 0
M  V30 20185 H 1824.18 2.12242 3.68556 0
M  V30 20186 N 1822.5 -1.17802 1.04693 0
M  V30 20187 C 1823.44 -2.21648 0.643478 0
M  V30 20188 C 1824.41 -1.6233 -0.351858 0
M  V30 20189 O 1825.6 -1.89228 -0.244414 0
M  V30 20190 C 1822.74 -3.45095 0.019145 0
M  V30 20191 C 1821.85 -4.18725 1.06271 0
M  V30 20192 C 1820.99 -5.29644 0.406224 0
M  V30 20193 C 1820.03 -5.95055 1.43444 0
M  V30 20194 N 1819.16 -6.97499 0.802482 0
M  V30 20195 H 1824 -2.55513 1.53352 0
M  V30 20196 H 1821.54 -1.25518 0.767051 0
M  V30 20197 H 1823.5 -4.15642 -0.36023 0
M  V30 20198 H 1822.13 -3.1183 -0.834386 0
M  V30 20199 H 1821.18 -3.46943 1.55996 0
M  V30 20200 H 1822.49 -4.63486 1.84342 0
M  V30 20201 H 1821.65 -6.06694 -0.027012 0
M  V30 20202 H 1820.39 -4.86003 -0.406525 0
M  V30 20203 H 1819.39 -5.1674 1.87775 0
M  V30 20204 H 1820.62 -6.40778 2.249 0
M  V30 20205 H 1818.56 -6.55999 0.010153 0
M  V30 20206 H 1818.48 -7.40545 1.52081 0
M  V30 20207 H 1819.75 -7.78504 0.393852 0
M  V30 20208 N 1823.98 -0.827251 -1.34143 0
M  V30 20209 C 1824.89 -0.254285 -2.33218 0
M  V30 20210 C 1825.9 0.613602 -1.62822 0
M  V30 20211 O 1827.08 0.520477 -1.94558 0
M  V30 20212 C 1824.14 0.570817 -3.41969 0
M  V30 20213 C 1823.2 -0.319978 -4.28106 0
M  V30 20214 C 1822.44 0.465839 -5.31663 0
M  V30 20215 O 1822.66 1.6987 -5.44518 0
M  V30 20216 O 1821.59 -0.154094 -6.01703 0
M  V30 20217 H 1825.42 -1.07441 -2.8406 0
M  V30 20218 H 1823 -0.589493 -1.37278 0
M  V30 20219 H 1824.89 1.04009 -4.08363 0
M  V30 20220 H 1823.56 1.3682 -2.93363 0
M  V30 20221 H 1822.47 -0.836843 -3.6462 0
M  V30 20222 H 1823.8 -1.08183 -4.80164 0
M  V30 20223 N 1825.45 1.46436 -0.582609 0
M  V30 20224 C 1826.36 2.34099 0.153178 0
M  V30 20225 C 1827.38 1.49745 0.886135 0
M  V30 20226 O 1828.56 1.82615 0.849341 0
M  V30 20227 C 1825.62 3.26929 1.15404 0
M  V30 20228 C 1824.68 4.27183 0.425764 0
M  V30 20229 C 1823.91 5.15578 1.37895 0
M  V30 20230 O 1824.14 5.06903 2.61545 0
M  V30 20231 O 1823.07 5.9529 0.889585 0
M  V30 20232 H 1826.9 2.98368 -0.566585 0
M  V30 20233 H 1824.48 1.45409 -0.343013 0
M  V30 20234 H 1826.36 3.842 1.73114 0
M  V30 20235 H 1825.04 2.65257 1.85527 0
M  V30 20236 H 1823.95 3.73601 -0.193175 0
M  V30 20237 H 1825.28 4.91641 -0.234496 0
M  V30 20238 N 1826.93 0.320385 1.54309 0
M  V30 20239 C 1827.86 -0.539789 2.27175 0
M  V30 20240 C 1828.84 -1.12198 1.2785 0
M  V30 20241 O 1830.03 -1.1477 1.56657 0
M  V30 20242 C 1827.16 -1.70236 3.02716 0
M  V30 20243 C 1826.11 -1.24962 4.09351 0
M  V30 20244 C 1825.44 -2.49888 4.72715 0
M  V30 20245 C 1826.74 -0.366788 5.21011 0
M  V30 20246 H 1828.43 0.0680079 2.99323 0
M  V30 20247 H 1825.98 0.0341488 1.4396 0
M  V30 20248 H 1827.93 -2.31037 3.5242 0
M  V30 20249 H 1826.65 -2.33669 2.2818 0
M  V30 20250 H 1825.31 -0.664556 3.60526 0
M  V30 20251 H 1824.96 -3.11679 3.94798 0
M  V30 20252 H 1824.66 -2.20288 5.44745 0
M  V30 20253 H 1826.19 -3.11458 5.25192 0
M  V30 20254 H 1827.6 -0.881001 5.6649 0
M  V30 20255 H 1826 -0.163707 5.99877 0
M  V30 20256 H 1827.07 0.603185 4.81134 0
M  V30 20257 N 1828.41 -1.57525 0.0484906 0
M  V30 20258 C 1829.36 -2.11374 -0.926816 0
M  V30 20259 C 1830.33 -1.02045 -1.31058 0
M  V30 20260 O 1831.51 -1.29577 -1.40052 0
M  V30 20261 C 1828.65 -2.66107 -2.19729 0
M  V30 20262 C 1827.76 -3.89513 -1.86826 0
M  V30 20263 C 1826.9 -4.32571 -3.08312 0
M  V30 20264 C 1825.94 -5.48684 -2.71317 0
M  V30 20265 N 1825.08 -5.86808 -3.85488 0
M  V30 20266 H 1829.92 -2.94417 -0.460721 0
M  V30 20267 H 1827.45 -1.45509 -0.215789 0
M  V30 20268 H 1829.41 -2.95939 -2.94068 0
M  V30 20269 H 1828.04 -1.85865 -2.63921 0
M  V30 20270 H 1827.09 -3.66289 -1.02647 0
M  V30 20271 H 1828.4 -4.73912 -1.55592 0
M  V30 20272 H 1827.56 -4.63941 -3.90952 0
M  V30 20273 H 1826.3 -3.46978 -3.42721 0
M  V30 20274 H 1825.3 -5.16988 -1.87092 0
M  V30 20275 H 1826.53 -6.35991 -2.38102 0
M  V30 20276 H 1824.47 -5.04168 -4.19703 0
M  V30 20277 H 1824.39 -6.65892 -3.57944 0
M  V30 20278 H 1825.66 -6.22792 -4.68776 0
M  V30 20279 N 1829.89 0.224867 -1.55988 0
M  V30 20280 C 1831.14 0.947776 -1.78045 0
M  V30 20281 C 1831.45 1.85632 -0.616454 0
M  V30 20282 O 1832.66 2.61763 -0.720579 0
M  V30 20283 C 1831.11 1.73546 -3.15293 0
M  V30 20284 C 1830.72 0.873219 -4.39407 0
M  V30 20285 C 1832.46 2.44978 -3.46679 0
M  V30 20286 C 1830.37 1.65806 -5.67682 0
M  V30 20287 H 1829.3 0.357623 -0.663793 0
M  V30 20288 H 1831.95 0.201754 -1.82388 0
M  V30 20289 H 1830.33 2.52426 -3.05118 0
M  V30 20290 H 1831.51 0.125187 -4.6063 0
M  V30 20291 H 1829.82 0.271179 -4.15516 0
M  V30 20292 H 1832.42 3.04192 -4.3974 0
M  V30 20293 H 1832.76 3.17699 -2.69023 0
M  V30 20294 H 1833.3 1.7309 -3.58168 0
M  V30 20295 H 1830.03 0.974191 -6.4822 0
M  V30 20296 H 1829.55 2.38079 -5.50526 0
M  V30 20297 H 1831.23 2.21959 -6.07736 0
M  V30 20298 N 1831.37 1.49742 0.491438 0
M  V30 20299 C 1832.33 1.66587 1.57421 0
M  V30 20300 C 1833.33 0.537281 1.51558 0
M  V30 20301 O 1834.52 0.803928 1.5454 0
M  V30 20302 C 1831.65 1.67217 2.97071 0
M  V30 20303 H 1832.84 2.63171 1.4381 0
M  V30 20304 H 1830.4 1.38917 0.716368 0
M  V30 20305 H 1831.13 0.722529 3.16149 0
M  V30 20306 H 1830.92 2.49187 3.02734 0
M  V30 20307 H 1832.41 1.82274 3.75721 0
M  V30 20308 N 1832.84 -0.743177 1.38977 0
M  V30 20309 C 1833.79 -1.84801 1.33539 0
M  V30 20310 C 1834.78 -1.5942 0.217733 0
M  V30 20311 O 1835.97 -1.71063 0.454585 0
M  V30 20312 C 1833.1 -3.22635 1.1731 0
M  V30 20313 C 1832.19 -3.53872 2.33741 0
M  V30 20314 N 1832.58 -3.56099 3.59204 0
M  V30 20315 C 1830.87 -3.84193 2.26521 0
M  V30 20316 C 1831.58 -3.849 4.3615 0
M  V30 20317 N 1830.55 -4.02259 3.65634 0
M  V30 20318 H 1834.35 -1.84816 2.28518 0
M  V30 20319 H 1831.87 -0.941033 1.32357 0
M  V30 20320 H 1833.86 -4.01714 1.11497 0
M  V30 20321 H 1832.52 -3.23865 0.232735 0
M  V30 20322 H 1833.54 -3.37607 3.92736 0
M  V30 20323 H 1830.21 -3.93077 1.40701 0
M  V30 20324 H 1831.6 -3.93158 5.44863 0
M  V30 20325 N 1834.32 -1.24018 -0.972487 0
M  V30 20326 C 1835.57 -1.07105 -1.70913 0
M  V30 20327 C 1835.88 0.390908 -1.91654 0
M  V30 20328 O 1837.09 0.68013 -2.62843 0
M  V30 20329 C 1835.55 -1.86823 -3.07612 0
M  V30 20330 C 1835.15 -3.37399 -2.94731 0
M  V30 20331 C 1836.9 -1.78425 -3.85182 0
M  V30 20332 C 1834.81 -4.09479 -4.2671 0
M  V30 20333 H 1833.74 -0.397184 -0.640907 0
M  V30 20334 H 1836.39 -1.48056 -1.08405 0
M  V30 20335 H 1834.77 -1.38683 -3.70922 0
M  V30 20336 H 1835.94 -3.93084 -2.40462 0
M  V30 20337 H 1834.26 -3.46697 -2.3063 0
M  V30 20338 H 1836.85 -2.29584 -4.82903 0
M  V30 20339 H 1837.2 -0.748555 -4.09515 0
M  V30 20340 H 1837.73 -2.24219 -3.28589 0
M  V30 20341 H 1834.47 -5.13387 -4.07571 0
M  V30 20342 H 1833.99 -3.5858 -4.80812 0
M  V30 20343 H 1835.67 -4.16212 -4.95355 0
M  V30 20344 N 1835.8 1.17245 -1.05316 0
M  V30 20345 C 1836.75 2.19256 -0.62538 0
M  V30 20346 C 1837.73 1.57293 0.338793 0
M  V30 20347 O 1838.93 1.76313 0.155822 0
M  V30 20348 C 1836.06 3.433 -0.0029214 0
M  V30 20349 C 1835.14 4.12359 -0.990997 0
M  V30 20350 N 1835.53 4.57224 -2.16287 0
M  V30 20351 C 1833.83 4.38402 -0.819748 0
M  V30 20352 C 1834.53 5.10531 -2.78806 0
M  V30 20353 N 1833.51 5.02811 -2.06595 0
M  V30 20354 H 1837.31 2.51649 -1.51823 0
M  V30 20355 H 1834.82 1.33588 -0.923471 0
M  V30 20356 H 1836.82 4.1566 0.321315 0
M  V30 20357 H 1835.48 3.12398 0.885303 0
M  V30 20358 H 1836.49 4.51272 -2.54115 0
M  V30 20359 H 1833.17 4.17496 0.0173221 0
M  V30 20360 H 1834.56 5.55357 -3.78191 0
M  V30 20361 N 1837.28 0.834353 1.33702 0
M  V30 20362 C 1838.21 0.279313 2.31823 0
M  V30 20363 C 1839.19 -0.610495 1.58767 0
M  V30 20364 O 1840.37 -0.534989 1.86686 0
M  V30 20365 C 1837.5 -0.550201 3.42914 0
M  V30 20366 C 1836.46 0.243432 4.27307 0
M  V30 20367 C 1835.78 -0.709548 5.29971 0
M  V30 20368 C 1837.08 1.45799 5.01537 0
M  V30 20369 H 1838.78 1.09915 2.78494 0
M  V30 20370 H 1836.32 0.529987 1.33892 0
M  V30 20371 H 1838.28 -0.948764 4.10581 0
M  V30 20372 H 1837 -1.4032 2.9492 0
M  V30 20373 H 1835.66 0.6235 3.61259 0
M  V30 20374 H 1835.31 -1.55882 4.78236 0
M  V30 20375 H 1835.01 -0.182671 5.87316 0
M  V30 20376 H 1836.53 -1.10572 6.00505 0
M  V30 20377 H 1837.95 1.13283 5.61996 0
M  V30 20378 H 1836.34 1.92133 5.68511 0
M  V30 20379 H 1837.41 2.23016 4.30571 0
M  V30 20380 N 1838.76 -1.46125 0.590367 0
M  V30 20381 C 1839.7 -2.30384 -0.138481 0
M  V30 20382 C 1840.67 -1.41078 -0.876715 0
M  V30 20383 O 1841.86 -1.70022 -0.86587 0
M  V30 20384 C 1839 -3.25684 -1.14122 0
M  V30 20385 C 1838.11 -4.30091 -0.405639 0
M  V30 20386 C 1837.25 -5.12513 -1.39657 0
M  V30 20387 C 1836.29 -6.08662 -0.647833 0
M  V30 20388 N 1835.42 -6.83924 -1.5872 0
M  V30 20389 H 1840.26 -2.9218 0.586086 0
M  V30 20390 H 1837.8 -1.43991 0.300835 0
M  V30 20391 H 1839.76 -3.79388 -1.73553 0
M  V30 20392 H 1838.39 -2.6568 -1.8334 0
M  V30 20393 H 1837.44 -3.79184 0.303858 0
M  V30 20394 H 1838.75 -4.98477 0.179348 0
M  V30 20395 H 1837.91 -5.70531 -2.06346 0
M  V30 20396 H 1836.64 -4.44105 -2.01549 0
M  V30 20397 H 1835.65 -5.4979 0.0327878 0
M  V30 20398 H 1836.87 -6.79091 -0.0342018 0
M  V30 20399 H 1834.82 -6.1822 -2.19408 0
M  V30 20400 H 1834.74 -7.48599 -1.05522 0
M  V30 20401 H 1836.01 -7.46496 -2.2442 0
M  V30 20402 N 1840.23 -0.328564 -1.54137 0
M  V30 20403 C 1841.14 0.543922 -2.28207 0
M  V30 20404 C 1842.16 1.1249 -1.32748 0
M  V30 20405 O 1843.34 1.1438 -1.65769 0
M  V30 20406 C 1840.4 1.6864 -3.02922 0
M  V30 20407 C 1839.46 1.13672 -4.13977 0
M  V30 20408 C 1838.7 2.22474 -4.85119 0
M  V30 20409 O 1838.92 3.42914 -4.55813 0
M  V30 20410 O 1837.85 1.87611 -5.71914 0
M  V30 20411 H 1841.68 -0.0577601 -3.03645 0
M  V30 20412 H 1839.26 -0.0940895 -1.49103 0
M  V30 20413 H 1841.15 2.35143 -3.49693 0
M  V30 20414 H 1839.82 2.27417 -2.30355 0
M  V30 20415 H 1838.73 0.436625 -3.71543 0
M  V30 20416 H 1840.06 0.594012 -4.88602 0
M  V30 20417 N 1841.71 1.57497 -0.0568439 0
M  V30 20418 C 1842.66 2.08377 0.925369 0
M  V30 20419 C 1843.65 0.990152 1.26826 0
M  V30 20420 O 1844.84 1.25342 1.24973 0
M  V30 20421 C 1841.97 2.6369 2.19824 0
M  V30 20422 C 1841.05 3.8003 1.88249 0
M  V30 20423 N 1841.44 4.89581 1.27059 0
M  V30 20424 C 1839.74 3.89043 2.18087 0
M  V30 20425 C 1840.44 5.70571 1.13241 0
M  V30 20426 N 1839.42 5.1836 1.63718 0
M  V30 20427 H 1843.22 2.9047 0.447693 0
M  V30 20428 H 1840.74 1.61729 0.147457 0
M  V30 20429 H 1842.73 2.98447 2.91093 0
M  V30 20430 H 1841.39 1.83037 2.68193 0
M  V30 20431 H 1842.4 5.09259 0.942087 0
M  V30 20432 H 1839.08 3.19342 2.68937 0
M  V30 20433 H 1840.47 6.68681 0.656898 0
M  V30 20434 N 1843.19 -0.216591 1.56105 0
M  V30 20435 C 1844.12 -1.29202 1.89313 0
M  V30 20436 C 1845.14 -1.42798 0.781832 0
M  V30 20437 O 1846.32 -1.43607 1.06016 0
M  V30 20438 C 1843.42 -2.66701 2.09102 0
M  V30 20439 C 1842.6 -2.74989 3.40147 0
M  V30 20440 C 1841.66 -3.93536 3.49308 0
M  V30 20441 O 1840.68 -3.81642 4.22301 0
M  V30 20442 N 1841.88 -5.08059 2.80814 0
M  V30 20443 H 1844.65 -1.01038 2.82155 0
M  V30 20444 H 1842.21 -0.406611 1.56711 0
M  V30 20445 H 1844.2 -3.44396 2.12541 0
M  V30 20446 H 1842.77 -2.87443 1.22862 0
M  V30 20447 H 1841.99 -1.83733 3.48763 0
M  V30 20448 H 1843.28 -2.775 4.26464 0
M  V30 20449 H 1842.68 -5.20618 2.21299 0
M  V30 20450 H 1841.24 -5.83778 2.89908 0
M  V30 20451 N 1844.67 -1.5 -0.48349 0
M  V30 20452 C 1845.58 -1.70722 -1.60907 0
M  V30 20453 C 1846.59 -0.590075 -1.63689 0
M  V30 20454 O 1847.77 -0.866915 -1.81787 0
M  V30 20455 C 1844.84 -1.78544 -2.97192 0
M  V30 20456 C 1843.9 -3.02218 -3.04898 0
M  V30 20457 C 1843.13 -3.09658 -4.34681 0
M  V30 20458 O 1843.35 -2.24216 -5.24484 0
M  V30 20459 O 1842.29 -4.02278 -4.47723 0
M  V30 20460 H 1846.11 -2.66111 -1.4635 0
M  V30 20461 H 1843.7 -1.33949 -0.661666 0
M  V30 20462 H 1845.58 -1.85941 -3.78159 0
M  V30 20463 H 1844.25 -0.863364 -3.11974 0
M  V30 20464 H 1843.16 -3.00329 -2.23054 0
M  V30 20465 H 1844.49 -3.93964 -2.95048 0
M  V30 20466 N 1846.15 0.735796 -1.39369 0
M  V30 20467 C 1847.37 1.52504 -1.39822 0
M  V30 20468 C 1847.79 1.88799 0.00747346 0
M  V30 20469 O 1847.15 1.54044 0.978611 0
M  V30 20470 C 1847.2 2.8131 -2.27039 0
M  V30 20471 O 1846.92 2.46557 -3.62134 0
M  V30 20472 C 1848.42 3.75343 -2.35866 0
M  V30 20473 H 1845.64 0.471306 -0.47761 0
M  V30 20474 H 1848.18 0.909257 -1.83174 0
M  V30 20475 H 1846.34 3.39222 -1.87102 0
M  V30 20476 H 1846.75 3.29294 -4.08247 0
M  V30 20477 H 1848.23 4.6262 -3.01142 0
M  V30 20478 H 1848.7 4.17036 -1.37758 0
M  V30 20479 H 1849.31 3.2335 -2.7627 0
M  V30 20480 N 1847.63 1.24532 0.965897 0
M  V30 20481 C 1848.87 1.0801 1.70343 0
M  V30 20482 C 1849.19 -0.380738 1.91859 0
M  V30 20483 O 1850.39 -0.666181 2.632 0
M  V30 20484 C 1848.85 1.88452 3.06617 0
M  V30 20485 C 1848.46 3.38957 2.92937 0
M  V30 20486 C 1850.2 1.80465 3.8423 0
M  V30 20487 C 1848.11 4.11736 4.24532 0
M  V30 20488 H 1847.04 0.400577 0.638791 0
M  V30 20489 H 1849.69 1.48629 1.07618 0
M  V30 20490 H 1848.07 1.40648 3.70181 0
M  V30 20491 H 1849.25 3.94353 2.38374 0
M  V30 20492 H 1847.56 3.47915 2.28788 0
M  V30 20493 H 1850.16 2.32142 4.81679 0
M  V30 20494 H 1850.5 0.770262 4.09112 0
M  V30 20495 H 1851.03 2.25958 3.27395 0
M  V30 20496 H 1847.77 5.15541 4.04842 0
M  V30 20497 H 1847.29 3.61125 4.78904 0
M  V30 20498 H 1848.97 4.18833 4.93141 0
M  V30 20499 N 1849.1 -1.16685 1.05936 0
M  V30 20500 C 1850.38 -1.8312 0.6875 0
M  V30 20501 C 1850.76 -1.94035 -0.831474 0
M  V30 20502 O 1850.11 -1.48067 -1.74036 0
M  V30 20503 C 1850.32 -3.20331 1.38524 0
M  V30 20504 C 1851.67 -3.96149 1.52811 0
M  V30 20505 O 1852.69 -3.29837 1.34485 0
M  V30 20506 O 1851.55 -5.15005 1.82845 0
M  V30 20507 H 1848.64 -0.790513 0.242937 0
M  V30 20508 H 1851.19 -1.23918 1.15941 0
M  V30 20509 H 1849.96 -3.074 2.42118 0
M  V30 20510 H 1849.58 -3.87206 0.903164 0
M  V30 20511 N 1850.58 -0.841432 -1.33258 0
M  V30 20512 C 1851.49 -0.279006 -2.32935 0
M  V30 20513 C 1852.51 0.596298 -1.63463 0
M  V30 20514 O 1853.68 0.499812 -1.951 0
M  V30 20515 C 1850.75 0.534514 -3.42555 0
M  V30 20516 C 1849.81 -0.365366 -4.27742 0
M  V30 20517 C 1849.04 0.409423 -5.32127 0
M  V30 20518 O 1849.27 1.64085 -5.4629 0
M  V30 20519 O 1848.2 -0.217904 -6.01505 0
M  V30 20520 H 1852.03 -1.10448 -2.82904 0
M  V30 20521 H 1849.61 -0.60402 -1.36645 0
M  V30 20522 H 1851.49 0.996723 -4.09443 0
M  V30 20523 H 1850.17 1.33701 -2.94798 0
M  V30 20524 H 1849.07 -0.875469 -3.63712 0
M  V30 20525 H 1850.41 -1.1327 -4.78989 0
M  V30 20526 N 1852.06 1.4581 -0.598108 0
M  V30 20527 C 1852.99 2.33223 0.113747 0
M  V30 20528 C 1853.97 1.46268 0.868312 0
M  V30 20529 O 1855.16 1.75058 0.840737 0
M  V30 20530 C 1852.29 3.28815 1.11795 0
M  V30 20531 C 1851.24 4.25331 0.477223 0
M  V30 20532 C 1850.57 5.10544 1.589 0
M  V30 20533 C 1851.87 5.18894 -0.595518 0
M  V30 20534 H 1853.56 2.92992 -0.616123 0
M  V30 20535 H 1851.11 1.40888 -0.297741 0
M  V30 20536 H 1853.06 3.88832 1.62443 0
M  V30 20537 H 1851.78 2.67185 1.87829 0
M  V30 20538 H 1850.44 3.66599 -0.00831044 0
M  V30 20539 H 1850.09 4.45288 2.33939 0
M  V30 20540 H 1849.79 5.75918 1.16584 0
M  V30 20541 H 1851.31 5.73427 2.09794 0
M  V30 20542 H 1852.73 5.73037 -0.173494 0
M  V30 20543 H 1851.12 5.92694 -0.939873 0
M  V30 20544 H 1852.19 4.61895 -1.47584 0
M  V30 20545 N 1853.54 0.336733 1.53961 0
M  V30 20546 C 1854.95 -0.0154439 1.59593 0
M  V30 20547 C 1855.15 -1.49328 1.35291 0
M  V30 20548 O 1854.21 -2.25107 1.14381 0
M  V30 20549 C 1855.52 0.414613 2.97828 0
M  V30 20550 C 1857.07 0.36638 3.10848 0
M  V30 20551 C 1857.55 0.7718 4.5145 0
M  V30 20552 N 1859.04 0.725719 4.5748 0
M  V30 20553 C 1859.77 1.01145 5.64409 0
M  V30 20554 N 1859.27 1.36499 6.7922 0
M  V30 20555 N 1861.06 0.936141 5.5425 0
M  V30 20556 H 1853.21 1.29944 1.68012 0
M  V30 20557 H 1855.47 0.529259 0.786504 0
M  V30 20558 H 1855.18 1.44476 3.20655 0
M  V30 20559 H 1855.05 -0.21367 3.76594 0
M  V30 20560 H 1857.44 -0.65458 2.87749 0
M  V30 20561 H 1857.52 1.02978 2.34157 0
M  V30 20562 H 1857.17 1.79074 4.75284 0
M  V30 20563 H 1857.1 0.0859543 5.2653 0
M  V30 20564 H 1859.59 0.464858 3.7503 0
M  V30 20565 H 1859.9 1.56805 7.56725 0
M  V30 20566 H 1858.25 1.40338 6.80684 0
M  V30 20567 H 1861.44 0.659334 4.63433 0
M  V30 20568 H 1861.61 1.16217 6.37493 0
M  V30 20569 N 1855.02 -1.57465 0.0651956 0
M  V30 20570 C 1856.43 -1.56917 -0.291414 0
M  V30 20571 C 1856.63 -1.07405 -1.70489 0
M  V30 20572 O 1855.69 -0.736958 -2.41506 0
M  V30 20573 C 1857 -3.00509 -0.107088 0
M  V30 20574 C 1858.55 -3.12498 -0.177127 0
M  V30 20575 C 1859.02 -4.57995 -0.0211616 0
M  V30 20576 N 1860.51 -4.63136 -0.0769824 0
M  V30 20577 C 1861.25 -5.73397 0.0193783 0
M  V30 20578 N 1860.75 -6.92594 0.168885 0
M  V30 20579 N 1862.54 -5.62088 -0.0372133 0
M  V30 20580 H 1854.69 -1.87966 0.989061 0
M  V30 20581 H 1856.95 -0.866234 0.385154 0
M  V30 20582 H 1856.66 -3.4082 0.868005 0
M  V30 20583 H 1856.53 -3.67214 -0.86221 0
M  V30 20584 H 1858.92 -2.72078 -1.1427 0
M  V30 20585 H 1859 -2.48445 0.608986 0
M  V30 20586 H 1858.64 -4.99104 0.941151 0
M  V30 20587 H 1858.57 -5.20072 -0.826597 0
M  V30 20588 H 1861.07 -3.77416 -0.191213 0
M  V30 20589 H 1861.38 -7.72443 0.234737 0
M  V30 20590 H 1859.72 -6.947 0.204159 0
M  V30 20591 H 1862.91 -4.67851 -0.152669 0
M  V30 20592 H 1863.09 -6.47987 0.0413392 0
M  V30 20593 N 1856.49 0.20831 -1.56217 0
M  V30 20594 C 1857.72 0.951404 -1.84291 0
M  V30 20595 C 1858.14 1.76616 -0.647168 0
M  V30 20596 O 1857.5 1.7674 0.404081 0
M  V30 20597 C 1857.55 1.83403 -3.10477 0
M  V30 20598 O 1856.65 2.93113 -2.90101 0
M  V30 20599 H 1855.99 0.268668 -0.607218 0
M  V30 20600 H 1858.52 0.217618 -2.03439 0
M  V30 20601 H 1858.53 2.24127 -3.40927 0
M  V30 20602 H 1857.21 1.23528 -3.97132 0
M  V30 20603 H 1855.79 2.5624 -2.70916 0
M  V30 20604 N 1857.97 1.50255 0.475528 0
M  V30 20605 C 1859.22 1.61261 1.22975 0
M  V30 20606 C 1859.55 0.309949 1.91711 0
M  V30 20607 O 1858.83 -0.688288 1.81914 0
M  V30 20608 C 1859.11 2.7898 2.27688 0
M  V30 20609 C 1858.96 4.19115 1.63287 0
M  V30 20610 C 1860.28 2.9227 3.29038 0
M  V30 20611 H 1857.4 0.586933 0.445734 0
M  V30 20612 H 1860.04 1.82626 0.524177 0
M  V30 20613 H 1858.19 2.60894 2.87865 0
M  V30 20614 H 1859.86 4.48781 1.06741 0
M  V30 20615 H 1858.11 4.23579 0.936127 0
M  V30 20616 H 1858.78 4.97405 2.39359 0
M  V30 20617 H 1861.25 3.08813 2.78879 0
M  V30 20618 H 1860.13 3.7627 3.9964 0
M  V30 20619 H 1860.39 2.02696 3.92895 0
M  V30 20620 N 1859.45 -0.728395 1.39758 0
M  V30 20621 C 1860.67 -1.52268 1.40816 0
M  V30 20622 C 1861.1 -1.88099 0.00629167 0
M  V30 20623 O 1860.46 -1.52376 -0.982402 0
M  V30 20624 C 1860.51 -2.78262 2.29353 0
M  V30 20625 O 1859.61 -3.74453 1.72796 0
M  V30 20626 H 1858.95 -0.459582 0.47925 0
M  V30 20627 H 1861.48 -0.898132 1.83833 0
M  V30 20628 H 1861.49 -3.26927 2.44096 0
M  V30 20629 H 1860.17 -2.51515 3.31229 0
M  V30 20630 H 1858.74 -3.33248 1.67332 0
M  V30 20631 N 1860.93 -1.25042 -0.959279 0
M  V30 20632 C 1861.84 -1.06749 -2.08906 0
M  V30 20633 C 1862.85 -0.00591805 -1.73999 0
M  V30 20634 O 1864.03 -0.205876 -2.00345 0
M  V30 20635 C 1861.09 -0.683353 -3.39899 0
M  V30 20636 C 1860.16 -1.82235 -3.88702 0
M  V30 20637 C 1859.39 -1.45644 -5.13443 0
M  V30 20638 O 1859.61 -0.350012 -5.69325 0
M  V30 20639 O 1858.55 -2.28502 -5.5684 0
M  V30 20640 H 1862.37 -2.01485 -2.27238 0
M  V30 20641 H 1859.96 -1.03938 -1.07318 0
M  V30 20642 H 1861.84 -0.481036 -4.18645 0
M  V30 20643 H 1860.51 0.234796 -3.22847 0
M  V30 20644 H 1859.42 -2.07948 -3.10979 0
M  V30 20645 H 1860.75 -2.71957 -4.10244 0
M  V30 20646 N 1862.41 1.16121 -1.06553 0
M  V30 20647 C 1863.35 2.20597 -0.678659 0
M  V30 20648 C 1864.32 1.6287 0.325988 0
M  V30 20649 O 1865.51 1.89593 0.214278 0
M  V30 20650 C 1862.65 3.45021 -0.0740442 0
M  V30 20651 C 1861.76 4.16981 -1.12919 0
M  V30 20652 C 1860.9 5.28931 -0.490435 0
M  V30 20653 C 1859.94 5.92697 -1.52893 0
M  V30 20654 N 1859.07 6.96134 -0.913346 0
M  V30 20655 H 1863.91 2.53041 -1.57398 0
M  V30 20656 H 1861.45 1.24282 -0.786923 0
M  V30 20657 H 1863.41 4.16162 0.294059 0
M  V30 20658 H 1862.04 3.13118 0.784671 0
M  V30 20659 H 1861.09 3.44417 -1.61496 0
M  V30 20660 H 1862.4 4.60495 -1.91693 0
M  V30 20661 H 1861.56 6.0666 -0.0695112 0
M  V30 20662 H 1860.29 4.86588 0.329154 0
M  V30 20663 H 1859.3 5.13688 -1.95972 0
M  V30 20664 H 1860.52 6.37119 -2.35066 0
M  V30 20665 H 1858.47 6.559 -0.114515 0
M  V30 20666 H 1858.39 7.38032 -1.63843 0
M  V30 20667 H 1859.66 7.77779 -0.517655 0
M  V30 20668 N 1863.88 0.848487 1.3281 0
M  V30 20669 C 1865.11 0.462643 2.01661 0
M  V30 20670 C 1865.53 -0.938906 1.63799 0
M  V30 20671 O 1864.88 -1.61171 0.85617 0
M  V30 20672 C 1864.94 0.584905 3.56737 0
M  V30 20673 O 1864.66 1.93124 3.93236 0
M  V30 20674 C 1866.16 0.197265 4.42861 0
M  V30 20675 H 1863.38 0.18254 0.645694 0
M  V30 20676 H 1865.92 1.14372 1.69527 0
M  V30 20677 H 1864.08 -0.0483701 3.8737 0
M  V30 20678 H 1864.49 1.92361 4.87952 0
M  V30 20679 H 1865.96 0.333833 5.5099 0
M  V30 20680 H 1866.44 -0.861732 4.30663 0
M  V30 20681 H 1867.05 0.805363 4.17605 0
M  V30 20682 N 1865.36 -1.4549 0.605832 0
M  V30 20683 C 1866.33 -2.28964 -0.104089 0
M  V30 20684 C 1867.33 -1.39671 -0.796791 0
M  V30 20685 O 1868.52 -1.6181 -0.645221 0
M  V30 20686 C 1865.65 -3.20647 -1.1575 0
M  V30 20687 H 1866.84 -2.93213 0.629776 0
M  V30 20688 H 1864.39 -1.51983 0.3648 0
M  V30 20689 H 1865.13 -2.61194 -1.92219 0
M  V30 20690 H 1864.91 -3.86419 -0.665025 0
M  V30 20691 H 1866.4 -3.83416 -1.65474 0
M  V30 20692 N 1866.84 -0.344893 -1.5378 0
M  V30 20693 C 1867.77 0.545646 -2.2261 0
M  V30 20694 C 1868.79 1.06288 -1.23315 0
M  V30 20695 O 1869.97 0.972802 -1.49662 0
M  V30 20696 C 1867.07 1.76379 -2.89385 0
M  V30 20697 C 1866.25 1.38162 -4.15006 0
M  V30 20698 C 1865.31 2.45958 -4.65179 0
M  V30 20699 O 1864.33 2.0921 -5.29358 0
M  V30 20700 N 1865.53 3.77232 -4.41221 0
M  V30 20701 H 1868.3 -0.043834 -2.99668 0
M  V30 20702 H 1865.86 -0.169081 -1.61015 0
M  V30 20703 H 1867.85 2.47928 -3.19865 0
M  V30 20704 H 1866.42 2.26061 -2.15905 0
M  V30 20705 H 1865.64 0.496839 -3.91056 0
M  V30 20706 H 1866.93 1.10227 -4.96717 0
M  V30 20707 H 1866.33 4.09875 -3.89896 0
M  V30 20708 H 1864.89 4.44947 -4.76304 0
M  V30 20709 N 1868.32 1.57428 -0.0735454 0
M  V30 20710 C 1869.57 1.92732 0.594748 0
M  V30 20711 C 1869.88 0.955693 1.70663 0
M  V30 20712 O 1871.09 1.20162 2.43461 0
M  V30 20713 C 1869.54 3.42379 1.10927 0
M  V30 20714 C 1869.15 4.47991 0.0283008 0
M  V30 20715 C 1870.89 3.8668 1.75153 0
M  V30 20716 C 1868.8 5.88771 0.556965 0
M  V30 20717 H 1867.73 0.719355 0.22593 0
M  V30 20718 H 1870.38 1.82918 -0.146063 0
M  V30 20719 H 1868.76 3.47272 1.9031 0
M  V30 20720 H 1869.94 4.54716 -0.74634 0
M  V30 20721 H 1868.25 4.13168 -0.517835 0
M  V30 20722 H 1870.85 4.89244 2.15741 0
M  V30 20723 H 1871.19 3.24144 2.61221 0
M  V30 20724 H 1871.73 3.84397 1.02389 0
M  V30 20725 H 1868.47 6.54958 -0.266602 0
M  V30 20726 H 1867.99 5.85563 1.29909 0
M  V30 20727 H 1869.66 6.38703 1.03281 0
M  V30 20728 N 1869.8 -0.200022 1.56326 0
M  V30 20729 C 1871.05 -0.919331 1.7953 0
M  V30 20730 C 1871.36 -1.84628 0.645908 0
M  V30 20731 O 1872.56 -2.60584 0.762132 0
M  V30 20732 C 1871.02 -1.68508 3.18014 0
M  V30 20733 C 1870.63 -0.803202 4.40741 0
M  V30 20734 C 1872.37 -2.39432 3.50532 0
M  V30 20735 C 1870.28 -1.56753 5.70248 0
M  V30 20736 H 1869.21 -0.347018 0.669399 0
M  V30 20737 H 1871.86 -0.172713 1.82685 0
M  V30 20738 H 1870.24 -2.4754 3.09095 0
M  V30 20739 H 1871.42 -0.0518889 4.60771 0
M  V30 20740 H 1869.73 -0.205039 4.15895 0
M  V30 20741 H 1872.33 -2.97158 4.44524 0
M  V30 20742 H 1872.67 -3.13378 2.74043 0
M  V30 20743 H 1873.2 -1.6737 3.60877 0
M  V30 20744 H 1869.94 -0.870942 6.49688 0
M  V30 20745 H 1869.46 -2.29291 5.54243 0
M  V30 20746 H 1871.14 -2.12262 6.11191 0
M  V30 20747 N 1871.27 -1.50505 -0.467553 0
M  V30 20748 C 1872.22 -1.70158 -1.58584 0
M  V30 20749 C 1873.22 -0.567469 -1.59613 0
M  V30 20750 O 1874.42 -0.748063 -1.63719 0
M  V30 20751 H 1870.8 -0.537137 -0.526296 0
M  V30 20752 H 1872.77 -2.63959 -1.39171 0
M  V30 20753 C 1871.52 -1.81617 -2.96497 0
M  V30 20754 H 1870.84 -2.68276 -2.96425 0
M  V30 20755 H 1872.28 -1.99393 -3.74191 0
M  V30 20756 C 1870.74 -0.56862 -3.32067 0
M  V30 20757 O 1871.27 0.29061 -4.00647 0
M  V30 20758 N 1869.48 -0.421597 -2.87526 0
M  V30 20759 H 1869.02 -1.12184 -2.31889 0
M  V30 20760 H 1868.98 0.411959 -3.11689 0
M  V30 20761 N 1872.75 0.720973 -1.40142 0
M  V30 20762 C 1873.98 1.51012 -1.41431 0
M  V30 20763 C 1874.4 1.88796 -0.0125516 0
M  V30 20764 O 1873.75 1.55073 0.962217 0
M  V30 20765 C 1873.8 2.78886 -2.3001 0
M  V30 20766 O 1873.52 2.42703 -3.64729 0
M  V30 20767 C 1875.03 3.7282 -2.39834 0
M  V30 20768 H 1872.25 0.466214 -0.482582 0
M  V30 20769 H 1874.79 0.889777 -1.84128 0
M  V30 20770 H 1872.94 3.37219 -1.90689 0
M  V30 20771 H 1873.36 3.24945 -4.11717 0
M  V30 20772 H 1874.83 4.594 -3.06032 0
M  V30 20773 H 1875.31 4.15552 -1.42173 0
M  V30 20774 H 1875.92 3.20402 -2.79684 0
M  V30 20775 N 1874.23 1.25549 0.952634 0
M  V30 20776 C 1875.16 1.01898 2.05304 0
M  V30 20777 C 1876.18 -0.0167609 1.62791 0
M  V30 20778 O 1877.36 0.222021 1.77114 0
M  V30 20779 C 1874.46 0.518856 3.34905 0
M  V30 20780 C 1873.64 1.62121 4.06246 0
M  V30 20781 C 1872.7 1.12111 5.14118 0
M  V30 20782 O 1871.72 1.81591 5.39456 0
M  V30 20783 N 1872.92 -0.0365454 5.80488 0
M  V30 20784 H 1875.69 1.96648 2.26163 0
M  V30 20785 H 1873.25 1.16782 1.12132 0
M  V30 20786 H 1875.24 0.168729 4.04348 0
M  V30 20787 H 1873.81 -0.334763 3.10802 0
M  V30 20788 H 1873.03 2.14282 3.30873 0
M  V30 20789 H 1874.32 2.36173 4.50666 0
M  V30 20790 H 1873.72 -0.617055 5.62325 0
M  V30 20791 H 1872.28 -0.327688 6.50976 0
M  V30 20792 N 1875.71 -1.15554 1.07168 0
M  V30 20793 C 1876.99 -1.8238 0.706884 0
M  V30 20794 C 1877.37 -1.94906 -0.810848 0
M  V30 20795 O 1876.71 -1.49905 -1.72455 0
M  V30 20796 C 1876.92 -3.18844 1.41913 0
M  V30 20797 C 1878.27 -3.94506 1.57004 0
M  V30 20798 O 1879.3 -3.28392 1.37976 0
M  V30 20799 O 1878.15 -5.13036 1.88297 0
M  V30 20800 H 1875.25 -0.787892 0.251307 0
M  V30 20801 H 1877.79 -1.22681 1.17249 0
M  V30 20802 H 1876.57 -3.04814 2.45365 0
M  V30 20803 H 1876.19 -3.86227 0.944182 0
M  V30 20804 N 1877.19 -0.855519 -1.32358 0
M  V30 20805 C 1878.12 -0.316159 -2.3135 0
M  V30 20806 C 1879.1 0.585159 -1.59718 0
M  V30 20807 O 1880.28 0.505221 -1.87513 0
M  V30 20808 C 1877.41 0.495577 -3.43746 0
M  V30 20809 C 1876.37 -0.311382 -4.26866 0
M  V30 20810 C 1875.69 0.625144 -5.31033 0
M  V30 20811 C 1876.99 -1.5376 -4.99154 0
M  V30 20812 H 1878.69 -1.14331 -2.7671 0
M  V30 20813 H 1876.23 -0.551221 -1.33032 0
M  V30 20814 H 1878.19 0.883325 -4.12038 0
M  V30 20815 H 1876.91 1.3561 -2.97115 0
M  V30 20816 H 1875.57 -0.680895 -3.60221 0
M  V30 20817 H 1875.22 1.48254 -4.80656 0
M  V30 20818 H 1874.92 0.0892112 -5.87532 0
M  V30 20819 H 1876.44 1.01005 -6.02188 0
M  V30 20820 H 1877.86 -1.2221 -5.60123 0
M  V30 20821 H 1876.25 -2.01153 -5.65382 0
M  V30 20822 H 1877.32 -2.29838 -4.26969 0
M  V30 20823 N 1878.67 1.45167 -0.61354 0
M  V30 20824 C 1879.58 2.34372 0.103487 0
M  V30 20825 C 1880.59 1.51591 0.854172 0
M  V30 20826 O 1881.77 1.84375 0.810414 0
M  V30 20827 C 1878.83 3.29304 1.08443 0
M  V30 20828 C 1877.89 4.2799 0.335056 0
M  V30 20829 C 1877.13 5.18387 1.26928 0
M  V30 20830 O 1877.35 5.12336 2.50734 0
M  V30 20831 O 1876.28 5.97043 0.763115 0
M  V30 20832 H 1880.11 2.97099 -0.629746 0
M  V30 20833 H 1877.69 1.44649 -0.373779 0
M  V30 20834 H 1879.58 3.87785 1.64926 0
M  V30 20835 H 1878.25 2.69133 1.79859 0
M  V30 20836 H 1877.16 3.73107 -0.272378 0
M  V30 20837 H 1878.49 4.91033 -0.338727 0
M  V30 20838 N 1880.14 0.353044 1.53595 0
M  V30 20839 C 1881.09 -0.499326 2.25334 0
M  V30 20840 C 1882.06 -1.08781 1.25522 0
M  V30 20841 O 1883.25 -1.12265 1.54276 0
M  V30 20842 C 1880.39 -1.63955 3.03666 0
M  V30 20843 C 1879.5 -1.07745 4.18348 0
M  V30 20844 C 1878.63 -2.18575 4.84147 0
M  V30 20845 C 1877.67 -1.59765 5.90882 0
M  V30 20846 N 1876.81 -2.64376 6.50423 0
M  V30 20847 H 1881.65 0.118959 2.97762 0
M  V30 20848 H 1879.19 0.0704777 1.46931 0
M  V30 20849 H 1881.14 -2.31097 3.47347 0
M  V30 20850 H 1879.77 -2.22868 2.33516 0
M  V30 20851 H 1878.83 -0.296678 3.79241 0
M  V30 20852 H 1880.14 -0.607375 4.95088 0
M  V30 20853 H 1879.29 -2.93563 5.30948 0
M  V30 20854 H 1878.03 -2.68929 4.06852 0
M  V30 20855 H 1877.04 -0.832863 5.43455 0
M  V30 20856 H 1878.26 -1.10251 6.70091 0
M  V30 20857 H 1876.21 -3.13968 5.75986 0
M  V30 20858 H 1876.12 -2.22019 7.22664 0
M  V30 20859 H 1877.39 -3.39105 7.01875 0
M  V30 20860 N 1881.62 -1.57387 0.0818932 0
M  V30 20861 C 1882.85 -1.9862 -0.597066 0
M  V30 20862 C 1883.27 -0.960277 -1.61741 0
M  V30 20863 O 1882.63 0.0728948 -1.81153 0
M  V30 20864 C 1882.68 -3.3886 -1.23315 0
M  V30 20865 O 1881.78 -3.38962 -2.34901 0
M  V30 20866 H 1881.12 -0.646208 -0.152679 0
M  V30 20867 H 1883.65 -2.03978 0.159398 0
M  V30 20868 H 1883.66 -3.76266 -1.5776 0
M  V30 20869 H 1882.34 -4.13056 -0.485551 0
M  V30 20870 H 1880.91 -3.13337 -2.02174 0
M  V30 20871 N 1883.1 0.191729 -1.56429 0
M  V30 20872 C 1884.05 1.24177 -1.91217 0
M  V30 20873 C 1885.03 1.40828 -0.778219 0
M  V30 20874 O 1886.23 1.43142 -1.04112 0
M  V30 20875 C 1883.35 2.58584 -2.25808 0
M  V30 20876 C 1882.44 2.45712 -3.45668 0
M  V30 20877 N 1882.83 2.02524 -4.63484 0
M  V30 20878 C 1881.13 2.76595 -3.49873 0
M  V30 20879 C 1881.83 2.01625 -5.45639 0
M  V30 20880 N 1880.81 2.43256 -4.86135 0
M  V30 20881 H 1884.61 0.899247 -2.79805 0
M  V30 20882 H 1882.12 0.400144 -1.57393 0
M  V30 20883 H 1884.12 3.34434 -2.48917 0
M  V30 20884 H 1882.78 2.93657 -1.38549 0
M  V30 20885 H 1883.79 1.7318 -4.88087 0
M  V30 20886 H 1880.47 3.15842 -2.73038 0
M  V30 20887 H 1881.86 1.70106 -6.5001 0
M  V30 20888 N 1884.58 1.50751 0.459565 0
M  V30 20889 C 1885.81 1.66089 1.23377 0
M  V30 20890 C 1886.22 0.348952 1.85547 0
M  V30 20891 O 1885.58 -0.670323 1.69744 0
M  V30 20892 C 1885.63 2.76047 2.3341 0
M  V30 20893 O 1885.35 4.02156 1.73787 0
M  V30 20894 C 1886.85 3.02461 3.24087 0
M  V30 20895 H 1884.07 0.557971 0.372705 0
M  V30 20896 H 1886.61 1.97042 0.547242 0
M  V30 20897 H 1884.77 2.47756 2.97818 0
M  V30 20898 H 1885.18 4.63055 2.46335 0
M  V30 20899 H 1886.66 3.83034 3.97478 0
M  V30 20900 H 1887.13 2.13984 3.83546 0
M  V30 20901 H 1887.74 3.32326 2.65404 0
M  V30 20902 N 1886.06 -0.713531 1.40522 0
M  V30 20903 C 1887 -1.82761 1.40951 0
M  V30 20904 C 1887.97 -1.63953 0.266188 0
M  V30 20905 O 1889.16 -1.85058 0.464558 0
M  V30 20906 C 1886.3 -3.20488 1.27989 0
M  V30 20907 C 1885.41 -3.50853 2.52044 0
M  V30 20908 C 1884.55 -4.78097 2.31509 0
M  V30 20909 C 1883.58 -5.01373 3.51129 0
M  V30 20910 N 1882.72 -6.19832 3.29777 0
M  V30 20911 H 1887.56 -1.81729 2.36175 0
M  V30 20912 H 1885.1 -0.887703 1.17296 0
M  V30 20913 H 1887.06 -4.00023 1.1848 0
M  V30 20914 H 1885.69 -3.20743 0.363832 0
M  V30 20915 H 1884.74 -2.65858 2.72073 0
M  V30 20916 H 1886.05 -3.63961 3.41077 0
M  V30 20917 H 1885.2 -5.65654 2.19365 0
M  V30 20918 H 1883.94 -4.67203 1.39903 0
M  V30 20919 H 1882.95 -4.12271 3.63748 0
M  V30 20920 H 1884.17 -5.14139 4.43664 0
M  V30 20921 H 1882.12 -6.10184 2.40855 0
M  V30 20922 H 1882.04 -6.33626 4.12376 0
M  V30 20923 H 1883.3 -7.1017 3.2137 0
M  V30 20924 N 1887.53 -1.26053 -0.945962 0
M  V30 20925 C 1888.46 -1.09687 -2.06134 0
M  V30 20926 C 1889.44 -0.00341513 -1.701 0
M  V30 20927 O 1890.63 -0.174559 -1.93414 0
M  V30 20928 C 1887.76 -0.724007 -3.3967 0
M  V30 20929 C 1886.71 -1.76866 -3.89747 0
M  V30 20930 C 1886.04 -1.25025 -5.19878 0
M  V30 20931 C 1887.34 -3.16923 -4.15159 0
M  V30 20932 H 1889.03 -2.02986 -2.20084 0
M  V30 20933 H 1886.58 -0.977346 -1.05754 0
M  V30 20934 H 1888.53 -0.596411 -4.17158 0
M  V30 20935 H 1887.26 0.244695 -3.25682 0
M  V30 20936 H 1885.92 -1.88485 -3.14435 0
M  V30 20937 H 1885.56 -0.271527 -5.02267 0
M  V30 20938 H 1885.26 -1.94853 -5.54352 0
M  V30 20939 H 1886.79 -1.13523 -5.99954 0
M  V30 20940 H 1888.2 -3.08409 -4.83277 0
M  V30 20941 H 1886.6 -3.84299 -4.60906 0
M  V30 20942 H 1887.67 -3.63337 -3.21114 0
M  V30 20943 N 1889.01 1.14984 -1.07779 0
M  V30 20944 C 1889.94 2.19494 -0.659934 0
M  V30 20945 C 1890.96 1.60201 0.289756 0
M  V30 20946 O 1892.15 1.78328 0.0784004 0
M  V30 20947 C 1889.25 3.38862 0.0506161 0
M  V30 20948 C 1888.42 4.27693 -0.916355 0
M  V30 20949 C 1887.48 5.25642 -0.242303 0
M  V30 20950 O 1886.5 5.62282 -0.884715 0
M  V30 20951 N 1887.71 5.7164 1.01033 0
M  V30 20952 H 1890.47 2.5596 -1.55899 0
M  V30 20953 H 1888.03 1.30143 -0.963043 0
M  V30 20954 H 1890.02 4.01444 0.512331 0
M  V30 20955 H 1888.59 3.00775 0.851671 0
M  V30 20956 H 1887.81 3.62145 -1.55708 0
M  V30 20957 H 1889.1 4.83913 -1.57182 0
M  V30 20958 H 1888.5 5.43991 1.55212 0
M  V30 20959 H 1887.06 6.36241 1.41565 0
M  V30 20960 N 1890.49 0.862526 1.31902 0
M  V30 20961 C 1891.4 0.316029 2.32462 0
M  V30 20962 C 1892.42 -0.570217 1.64391 0
M  V30 20963 O 1893.59 -0.46871 1.9587 0
M  V30 20964 C 1890.66 -0.479949 3.43362 0
M  V30 20965 C 1889.72 0.43337 4.27107 0
M  V30 20966 C 1888.95 -0.324714 5.32711 0
M  V30 20967 O 1889.17 -1.55373 5.48831 0
M  V30 20968 O 1888.11 0.313571 6.01083 0
M  V30 20969 H 1891.93 1.14935 2.81111 0
M  V30 20970 H 1889.52 0.625683 1.35667 0
M  V30 20971 H 1891.4 -0.931458 4.10977 0
M  V30 20972 H 1890.08 -1.28994 2.96888 0
M  V30 20973 H 1888.98 0.933222 3.62273 0
M  V30 20974 H 1890.32 1.20876 4.77127 0
M  V30 20975 N 1891.97 -1.4484 0.62123 0
M  V30 20976 C 1892.88 -2.34423 -0.0910566 0
M  V30 20977 C 1893.89 -1.52042 -0.846121 0
M  V30 20978 O 1895.07 -1.84802 -0.800625 0
M  V30 20979 C 1892.14 -3.29874 -1.06696 0
M  V30 20980 C 1891.2 -4.28162 -0.312354 0
M  V30 20981 C 1890.43 -5.19053 -1.24177 0
M  V30 20982 O 1890.65 -5.13659 -2.48014 0
M  V30 20983 O 1889.59 -5.97439 -0.731442 0
M  V30 20984 H 1893.41 -2.96761 0.645493 0
M  V30 20985 H 1891 -1.44448 0.381445 0
M  V30 20986 H 1892.88 -3.88654 -1.62867 0
M  V30 20987 H 1891.55 -2.70083 -1.78429 0
M  V30 20988 H 1890.46 -3.72957 0.292161 0
M  V30 20989 H 1891.79 -4.90847 0.364763 0
M  V30 20990 N 1893.45 -0.361184 -1.53405 0
M  V30 20991 C 1894.7 0.230977 -2.00373 0
M  V30 20992 C 1895.01 1.50228 -1.25264 0
M  V30 20993 O 1896.21 2.17277 -1.62798 0
M  V30 20994 C 1894.67 0.462153 -3.5692 0
M  V30 20995 C 1894.28 -0.794263 -4.40903 0
M  V30 20996 C 1896.02 1.01221 -4.12255 0
M  V30 20997 C 1893.93 -0.532914 -5.88994 0
M  V30 20998 H 1892.86 0.0900886 -0.748599 0
M  V30 20999 H 1895.51 -0.479245 -1.77131 0
M  V30 21000 H 1893.89 1.23352 -3.76298 0
M  V30 21001 H 1895.07 -1.56809 -4.33298 0
M  V30 21002 H 1893.38 -1.26722 -3.96649 0
M  V30 21003 H 1895.98 1.22299 -5.20526 0
M  V30 21004 H 1896.32 1.97304 -3.66575 0
M  V30 21005 H 1896.85 0.301113 -3.96659 0
M  V30 21006 H 1893.59 -1.46395 -6.38943 0
M  V30 21007 H 1893.11 0.202496 -5.99458 0
M  V30 21008 H 1894.79 -0.156772 -6.4681 0
M  V30 21009 N 1894.92 1.57341 -0.0902386 0
M  V30 21010 C 1896.34 1.8145 0.439638 0
M  V30 21011 C 1896.69 1.00551 1.68475 0
M  V30 21012 O 1895.81 0.233442 2.15137 0
M  V30 21013 C 1896.41 3.29113 0.804384 0
M  V30 21014 C 1894.97 3.54003 1.27903 0
M  V30 21015 C 1894.11 2.7595 0.27328 0
M  V30 21016 H 1897.06 1.55527 -0.315738 0
M  V30 21017 H 1897.08 3.4217 1.66432 0
M  V30 21018 H 1896.6 3.87966 -0.102017 0
M  V30 21019 H 1894.7 3.00475 2.20331 0
M  V30 21020 H 1894.81 4.62662 1.24422 0
M  V30 21021 H 1893.17 2.43271 0.754419 0
M  V30 21022 H 1893.96 3.3755 -0.625715 0
M  V30 21023 N 1896.4 -0.183431 1.56529 0
M  V30 21024 C 1897.65 -0.903332 1.8157 0
M  V30 21025 C 1897.98 -1.82417 0.666167 0
M  V30 21026 O 1897.26 -1.91635 -0.332621 0
M  V30 21027 C 1897.54 -1.70949 3.16936 0
M  V30 21028 C 1897.39 -0.812595 4.42399 0
M  V30 21029 C 1898.71 -2.6797 3.49113 0
M  V30 21030 H 1895.83 -0.326961 0.660504 0
M  V30 21031 H 1898.47 -0.170115 1.89237 0
M  V30 21032 H 1896.62 -2.33458 3.10531 0
M  V30 21033 H 1898.29 -0.201313 4.60861 0
M  V30 21034 H 1896.54 -0.119949 4.33634 0
M  V30 21035 H 1897.21 -1.4119 5.33638 0
M  V30 21036 H 1899.68 -2.15591 3.55893 0
M  V30 21037 H 1898.56 -3.21451 4.44927 0
M  V30 21038 H 1898.82 -3.47584 2.73199 0
M  V30 21039 N 1897.88 -1.50992 -0.451564 0
M  V30 21040 C 1898.81 -1.74216 -1.5547 0
M  V30 21041 C 1899.79 -0.591568 -1.59482 0
M  V30 21042 O 1900.98 -0.83279 -1.75437 0
M  V30 21043 C 1898.11 -1.85421 -2.9366 0
M  V30 21044 C 1897.06 -3.0076 -3.04512 0
M  V30 21045 C 1896.39 -2.9713 -4.44542 0
M  V30 21046 C 1897.69 -4.40961 -2.79911 0
M  V30 21047 H 1899.38 -2.66582 -1.36287 0
M  V30 21048 H 1896.93 -1.28281 -0.654207 0
M  V30 21049 H 1898.88 -2.00252 -3.70779 0
M  V30 21050 H 1897.6 -0.896921 -3.14043 0
M  V30 21051 H 1896.26 -2.85611 -2.2983 0
M  V30 21052 H 1895.91 -1.99207 -4.61872 0
M  V30 21053 H 1895.61 -3.74572 -4.52736 0
M  V30 21054 H 1897.13 -3.14035 -5.23655 0
M  V30 21055 H 1898.55 -4.56534 -3.4677 0
M  V30 21056 H 1896.95 -5.20002 -2.9953 0
M  V30 21057 H 1898.02 -4.51981 -1.75618 0
M  V30 21058 N 1899.36 0.706069 -1.40899 0
M  V30 21059 C 1900.31 1.81196 -1.38391 0
M  V30 21060 C 1901.29 1.58787 -0.259924 0
M  V30 21061 O 1902.48 1.69798 -0.499779 0
M  V30 21062 C 1899.61 3.19411 -1.25823 0
M  V30 21063 C 1898.7 3.47551 -2.43042 0
M  V30 21064 N 1899.09 3.4645 -3.68519 0
M  V30 21065 C 1897.39 3.78052 -2.36627 0
M  V30 21066 C 1898.09 3.73201 -4.46202 0
M  V30 21067 N 1897.07 3.92424 -3.76171 0
M  V30 21068 H 1900.87 1.78692 -2.33338 0
M  V30 21069 H 1898.38 0.90561 -1.34805 0
M  V30 21070 H 1900.38 3.98617 -1.22108 0
M  V30 21071 H 1899.04 3.23134 -0.31852 0
M  V30 21072 H 1900.05 3.27076 -4.01549 0
M  V30 21073 H 1896.73 3.89208 -1.51074 0
M  V30 21074 H 1898.12 3.78574 -5.55096 0
M  V30 21075 N 1900.84 1.26553 0.939264 0
M  V30 21076 C 1901.75 1.10059 2.07181 0
M  V30 21077 C 1902.76 0.033599 1.73968 0
M  V30 21078 O 1903.94 0.237723 1.99992 0
M  V30 21079 C 1901 0.737342 3.38769 0
M  V30 21080 C 1900.06 1.88395 3.85753 0
M  V30 21081 C 1899.3 1.53794 5.11061 0
M  V30 21082 O 1899.52 0.440543 5.68696 0
M  V30 21083 O 1898.45 2.37332 5.53134 0
M  V30 21084 H 1902.28 2.05075 2.24004 0
M  V30 21085 H 1899.87 1.05633 1.05651 0
M  V30 21086 H 1901.75 0.547578 4.17827 0
M  V30 21087 H 1900.42 -0.183404 3.2318 0
M  V30 21088 H 1899.33 2.1287 3.07632 0
M  V30 21089 H 1900.66 2.78449 4.05865 0
M  V30 21090 N 1902.31 -1.14411 1.08387 0
M  V30 21091 C 1903.22 -2.23103 0.725418 0
M  V30 21092 C 1904.24 -1.71924 -0.26799 0
M  V30 21093 O 1905.42 -2.01088 -0.111986 0
M  V30 21094 C 1902.48 -3.46418 0.139915 0
M  V30 21095 C 1901.54 -4.12537 1.18791 0
M  V30 21096 C 1900.78 -5.29966 0.630252 0
M  V30 21097 O 1901 -5.67739 -0.550335 0
M  V30 21098 O 1899.93 -5.85862 1.38021 0
M  V30 21099 H 1903.76 -2.56116 1.63213 0
M  V30 21100 H 1901.34 -1.22338 0.857538 0
M  V30 21101 H 1903.23 -4.20999 -0.18381 0
M  V30 21102 H 1901.9 -3.15129 -0.739957 0
M  V30 21103 H 1900.81 -3.39831 1.56416 0
M  V30 21104 H 1902.14 -4.47932 2.04005 0
M  V30 21105 N 1903.79 -0.869509 -1.31443 0
M  V30 21106 C 1904.72 -0.282169 -2.27456 0
M  V30 21107 C 1905.74 0.55453 -1.53065 0
M  V30 21108 O 1906.93 0.376597 -1.74482 0
M  V30 21109 C 1904.03 0.618652 -3.33206 0
M  V30 21110 C 1903.2 -0.185505 -4.37006 0
M  V30 21111 C 1902.26 0.643383 -5.22252 0
M  V30 21112 O 1901.28 0.0715827 -5.69155 0
M  V30 21113 N 1902.49 1.95545 -5.46573 0
M  V30 21114 H 1905.25 -1.10726 -2.78496 0
M  V30 21115 H 1902.81 -0.730947 -1.4446 0
M  V30 21116 H 1904.8 1.17886 -3.8715 0
M  V30 21117 H 1903.37 1.34442 -2.82213 0
M  V30 21118 H 1902.59 -0.927156 -3.83142 0
M  V30 21119 H 1903.88 -0.73731 -5.03429 0
M  V30 21120 H 1903.28 2.44315 -5.10222 0
M  V30 21121 H 1901.84 2.46345 -6.03455 0
M  V30 21122 N 1905.27 1.44508 -0.628902 0
M  V30 21123 C 1906.18 2.34468 0.0786233 0
M  V30 21124 C 1907.2 1.52489 0.838046 0
M  V30 21125 O 1908.37 1.85224 0.790813 0
M  V30 21126 C 1905.44 3.30435 1.04945 0
M  V30 21127 C 1904.5 4.28322 0.289643 0
M  V30 21128 C 1903.73 5.19704 1.21422 0
M  V30 21129 O 1903.95 5.14967 2.45286 0
M  V30 21130 O 1902.89 5.97819 0.699748 0
M  V30 21131 H 1906.71 2.96414 -0.661222 0
M  V30 21132 H 1904.3 1.44244 -0.3891 0
M  V30 21133 H 1906.18 3.89513 1.60804 0
M  V30 21134 H 1904.86 2.71025 1.76994 0
M  V30 21135 H 1903.76 3.72797 -0.311936 0
M  V30 21136 H 1905.1 4.90646 -0.390789 0
M  V30 21137 N 1906.75 0.369315 1.53212 0
M  V30 21138 C 1907.68 -0.467242 2.28777 0
M  V30 21139 C 1908.66 -1.08073 1.31355 0
M  V30 21140 O 1909.85 -1.09728 1.60229 0
M  V30 21141 C 1906.98 -1.60519 3.07979 0
M  V30 21142 C 1905.93 -1.11876 4.1312 0
M  V30 21143 C 1905.26 -2.34723 4.80426 0
M  V30 21144 C 1906.56 -0.200846 5.21914 0
M  V30 21145 H 1908.25 0.163201 2.98955 0
M  V30 21146 H 1905.8 0.0799312 1.43778 0
M  V30 21147 H 1907.75 -2.19708 3.59592 0
M  V30 21148 H 1906.47 -2.26292 2.35499 0
M  V30 21149 H 1905.13 -0.549521 3.62458 0
M  V30 21150 H 1904.78 -2.98961 4.04514 0
M  V30 21151 H 1904.48 -2.02846 5.51477 0
M  V30 21152 H 1906 -2.94592 5.34835 0
M  V30 21153 H 1907.42 -0.700331 5.69006 0
M  V30 21154 H 1905.81 0.0272222 6.00094 0
M  V30 21155 H 1906.88 0.755948 4.78971 0
M  V30 21156 N 1908.23 -1.57291 0.0985816 0
M  V30 21157 C 1909.16 -2.17239 -0.856131 0
M  V30 21158 C 1910.14 -1.10669 -1.29176 0
M  V30 21159 O 1911.32 -1.38821 -1.35803 0
M  V30 21160 C 1908.45 -2.75551 -2.11398 0
M  V30 21161 C 1907.41 -3.87524 -1.81685 0
M  V30 21162 C 1906.73 -4.32553 -3.14327 0
M  V30 21163 C 1908.03 -5.10562 -1.10108 0
M  V30 21164 H 1909.73 -2.97268 -0.356657 0
M  V30 21165 H 1907.27 -1.42992 -0.170108 0
M  V30 21166 H 1909.23 -3.16141 -2.78627 0
M  V30 21167 H 1907.95 -1.92781 -2.63634 0
M  V30 21168 H 1906.61 -3.47478 -1.16853 0
M  V30 21169 H 1906.26 -3.46669 -3.64458 0
M  V30 21170 H 1905.96 -5.08049 -2.95228 0
M  V30 21171 H 1907.48 -4.7578 -3.82709 0
M  V30 21172 H 1908.9 -5.483 -1.67453 0
M  V30 21173 H 1907.29 -5.91509 -1.01176 0
M  V30 21174 H 1908.36 -4.84827 -0.0844041 0
M  V30 21175 N 1909.71 0.175127 -1.56624 0
M  V30 21176 C 1911.12 0.737951 -1.71497 0
M  V30 21177 C 1911.47 1.82962 -0.708475 0
M  V30 21178 O 1910.59 2.16003 0.13096 0
M  V30 21179 C 1911.19 1.34536 -3.10943 0
M  V30 21180 C 1909.75 1.85505 -3.27513 0
M  V30 21181 C 1908.89 0.732564 -2.67449 0
M  V30 21182 H 1911.84 -0.0502185 -1.58621 0
M  V30 21183 H 1911.87 2.21502 -3.09382 0
M  V30 21184 H 1911.38 0.5506 -3.84174 0
M  V30 21185 H 1909.48 2.67637 -2.59232 0
M  V30 21186 H 1909.59 2.00311 -4.35215 0
M  V30 21187 H 1907.96 1.15203 -2.27157 0
M  V30 21188 H 1908.74 -0.050288 -3.43263 0
M  V30 21189 N 1911.18 1.5123 0.44355 0
M  V30 21190 C 1912.13 1.7266 1.55857 0
M  V30 21191 C 1913.13 0.59279 1.5869 0
M  V30 21192 O 1914.33 0.774014 1.62509 0
M  V30 21193 H 1910.71 0.545442 0.517684 0
M  V30 21194 H 1912.68 2.66139 1.34954 0
M  V30 21195 C 1911.43 1.86311 2.9357 0
M  V30 21196 H 1910.75 2.72958 2.9212 0
M  V30 21197 H 1912.19 2.0532 3.70971 0
M  V30 21198 C 1910.65 0.621377 3.3112 0
M  V30 21199 O 1911.18 -0.226833 4.01059 0
M  V30 21200 N 1909.38 0.467286 2.86818 0
M  V30 21201 H 1908.93 1.15859 2.30075 0
M  V30 21202 H 1908.89 -0.36232 3.12305 0
M  V30 21203 N 1912.66 -0.698586 1.41271 0
M  V30 21204 C 1913.91 -1.46077 1.40674 0
M  V30 21205 C 1914.24 -1.94194 0.0146774 0
M  V30 21206 O 1913.52 -1.69325 -0.957036 0
M  V30 21207 C 1913.8 -2.67481 2.41093 0
M  V30 21208 C 1913.65 -2.25149 3.89394 0
M  V30 21209 C 1914.97 -3.69673 2.38809 0
M  V30 21210 H 1912.09 -0.529839 0.512288 0
M  V30 21211 H 1914.73 -0.795918 1.72526 0
M  V30 21212 H 1912.88 -3.24206 2.14062 0
M  V30 21213 H 1914.55 -1.73775 4.27317 0
M  V30 21214 H 1912.8 -1.56965 4.04406 0
M  V30 21215 H 1913.47 -3.12247 4.55199 0
M  V30 21216 H 1915.94 -3.22615 2.6279 0
M  V30 21217 H 1914.82 -4.52232 3.1109 0
M  V30 21218 H 1915.08 -4.1916 1.40562 0
M  V30 21219 N 1914.14 -1.27049 -0.93254 0
M  V30 21220 C 1915.09 -1.09356 -2.03249 0
M  V30 21221 C 1916.06 0.00396271 -1.661 0
M  V30 21222 O 1917.24 -0.157449 -1.90149 0
M  V30 21223 C 1914.38 -0.741704 -3.37035 0
M  V30 21224 C 1913.49 -1.91636 -3.87169 0
M  V30 21225 C 1912.63 -1.50683 -5.0938 0
M  V30 21226 C 1911.67 -2.64927 -5.51797 0
M  V30 21227 N 1910.81 -2.24595 -6.65208 0
M  V30 21228 H 1915.65 -2.0348 -2.17715 0
M  V30 21229 H 1913.18 -1.01299 -1.06662 0
M  V30 21230 H 1915.14 -0.518546 -4.13965 0
M  V30 21231 H 1913.77 0.162576 -3.2239 0
M  V30 21232 H 1912.82 -2.2522 -3.06562 0
M  V30 21233 H 1914.13 -2.77353 -4.1458 0
M  V30 21234 H 1913.29 -1.24463 -5.93796 0
M  V30 21235 H 1912.03 -0.620687 -4.83734 0
M  V30 21236 H 1911.03 -2.91866 -4.65933 0
M  V30 21237 H 1912.26 -3.54154 -5.79441 0
M  V30 21238 H 1910.2 -1.38427 -6.41229 0
M  V30 21239 H 1910.12 -3.03853 -6.9225 0
M  V30 21240 H 1911.39 -2.0161 -7.52977 0
M  V30 21241 N 1915.62 1.13835 -1.08993 0
M  V30 21242 C 1916.53 2.22715 -0.73724 0
M  V30 21243 C 1917.54 1.72064 0.258869 0
M  V30 21244 O 1918.72 2.01145 0.101321 0
M  V30 21245 C 1915.78 3.46338 -0.158285 0
M  V30 21246 C 1914.85 4.11902 -1.20977 0
M  V30 21247 C 1914.08 5.29624 -0.658349 0
M  V30 21248 O 1914.3 5.68023 0.520219 0
M  V30 21249 O 1913.24 5.85121 -1.41126 0
M  V30 21250 H 1917.06 2.55247 -1.64568 0
M  V30 21251 H 1914.65 1.21882 -0.864013 0
M  V30 21252 H 1916.53 4.2109 0.161481 0
M  V30 21253 H 1915.2 3.15517 0.723235 0
M  V30 21254 H 1914.11 3.38996 -1.58216 0
M  V30 21255 H 1915.44 4.46843 -2.06378 0
M  V30 21256 N 1917.1 0.876467 1.3098 0
M  V30 21257 C 1918.34 0.491367 1.96757 0
M  V30 21258 C 1918.67 -0.955274 1.6908 0
M  V30 21259 O 1917.95 -1.6737 0.990843 0
M  V30 21260 C 1918.23 0.756745 3.52059 0
M  V30 21261 C 1918.09 2.25339 3.89284 0
M  V30 21262 C 1919.4 0.227549 4.39511 0
M  V30 21263 H 1916.52 0.179998 0.714681 0
M  V30 21264 H 1919.17 1.0989 1.54997 0
M  V30 21265 H 1917.32 0.239657 3.8776 0
M  V30 21266 H 1918.99 2.83824 3.63651 0
M  V30 21267 H 1917.23 2.72341 3.37658 0
M  V30 21268 H 1917.9 2.38971 4.97591 0
M  V30 21269 H 1920.38 0.670016 4.1067 0
M  V30 21270 H 1919.25 0.442629 5.47112 0
M  V30 21271 H 1919.51 -0.870833 4.33438 0
M  V30 21272 N 1918.57 -1.44173 0.636557 0
M  V30 21273 C 1919.8 -2.06866 0.148751 0
M  V30 21274 C 1920.22 -1.47295 -1.16987 0
M  V30 21275 O 1919.58 -0.576466 -1.71891 0
M  V30 21276 C 1919.63 -3.60561 0.0533064 0
M  V30 21277 O 1918.73 -4.00361 -0.989163 0
M  V30 21278 H 1918.07 -0.658243 0.087251 0
M  V30 21279 H 1920.6 -1.84956 0.874772 0
M  V30 21280 H 1920.61 -4.07775 -0.135499 0
M  V30 21281 H 1919.29 -4.033 1.01599 0
M  V30 21282 H 1917.87 -3.64769 -0.77449 0
M  V30 21283 N 1920.05 -0.377435 -1.53014 0
M  V30 21284 C 1920.96 0.471045 -2.29822 0
M  V30 21285 C 1921.98 1.0821 -1.36259 0
M  V30 21286 O 1923.15 1.09048 -1.69324 0
M  V30 21287 C 1920.22 1.58917 -3.08134 0
M  V30 21288 C 1919.28 1.00444 -4.17384 0
M  V30 21289 C 1918.51 2.06928 -4.91952 0
M  V30 21290 O 1918.74 3.2824 -4.66492 0
M  V30 21291 O 1917.67 1.69321 -5.77593 0
M  V30 21292 H 1921.5 -0.154333 -3.03308 0
M  V30 21293 H 1919.08 -0.141478 -1.48729 0
M  V30 21294 H 1920.96 2.23899 -3.56997 0
M  V30 21295 H 1919.64 2.19973 -2.37473 0
M  V30 21296 H 1918.54 0.3182 -3.72744 0
M  V30 21297 H 1919.88 0.438266 -4.90245 0
M  V30 21298 N 1921.53 1.57237 -0.106922 0
M  V30 21299 C 1922.76 1.9912 0.562038 0
M  V30 21300 C 1923.17 0.986338 1.60987 0
M  V30 21301 O 1922.53 -0.0224611 1.82486 0
M  V30 21302 C 1922.58 3.41034 1.19909 0
M  V30 21303 O 1922.3 4.37674 0.193157 0
M  V30 21304 C 1923.8 3.97984 1.95253 0
M  V30 21305 H 1921.02 0.654071 0.149772 0
M  V30 21306 H 1923.57 2.03618 -0.189699 0
M  V30 21307 H 1921.72 3.37513 1.90168 0
M  V30 21308 H 1922.14 5.20401 0.654461 0
M  V30 21309 H 1923.61 4.99398 2.35171 0
M  V30 21310 H 1924.09 3.36455 2.82303 0
M  V30 21311 H 1924.69 4.05014 1.29784 0
M  V30 21312 N 1923.01 -0.166818 1.56715 0
M  V30 21313 C 1923.94 -1.23113 1.93328 0
M  V30 21314 C 1924.95 -1.40238 0.826866 0
M  V30 21315 O 1926.14 -1.40161 1.10531 0
M  V30 21316 C 1923.24 -2.59914 2.17481 0
M  V30 21317 C 1922.42 -2.64028 3.48723 0
M  V30 21318 C 1921.47 -3.82224 3.61651 0
M  V30 21319 O 1920.5 -3.68014 4.34229 0
M  V30 21320 N 1921.7 -4.98868 2.96835 0
M  V30 21321 H 1924.47 -0.920103 2.85227 0
M  V30 21322 H 1922.03 -0.356548 1.57925 0
M  V30 21323 H 1924.02 -3.37459 2.2339 0
M  V30 21324 H 1922.59 -2.83389 1.31945 0
M  V30 21325 H 1921.81 -1.72544 3.54432 0
M  V30 21326 H 1923.1 -2.63792 4.35076 0
M  V30 21327 H 1922.5 -5.13314 2.3775 0
M  V30 21328 H 1921.05 -5.74259 3.08333 0
M  V30 21329 N 1924.49 -1.51463 -0.435524 0
M  V30 21330 C 1925.4 -1.75755 -1.55394 0
M  V30 21331 C 1926.41 -0.641853 -1.61729 0
M  V30 21332 O 1927.59 -0.924311 -1.78937 0
M  V30 21333 C 1924.65 -1.87908 -2.91361 0
M  V30 21334 C 1923.71 -3.11766 -2.95128 0
M  V30 21335 C 1922.95 -3.2333 -4.2461 0
M  V30 21336 O 1923.17 -2.40789 -5.17085 0
M  V30 21337 O 1922.1 -4.16319 -4.34698 0
M  V30 21338 H 1925.93 -2.70633 -1.3781 0
M  V30 21339 H 1923.52 -1.35986 -0.618717 0
M  V30 21340 H 1925.4 -1.97877 -3.72052 0
M  V30 21341 H 1924.07 -0.962179 -3.09069 0
M  V30 21342 H 1922.98 -3.07274 -2.13386 0
M  V30 21343 H 1924.31 -4.03151 -2.82365 0
M  V30 21344 N 1925.96 0.691085 -1.4164 0
M  V30 21345 C 1927.19 1.47978 -1.44603 0
M  V30 21346 C 1927.61 1.88727 -0.0525951 0
M  V30 21347 O 1926.96 1.57079 0.929107 0
M  V30 21348 C 1927.02 2.73945 -2.35874 0
M  V30 21349 O 1926.74 2.34912 -3.69795 0
M  V30 21350 C 1928.24 3.67649 -2.47688 0
M  V30 21351 H 1925.46 0.455873 -0.492363 0
M  V30 21352 H 1928 0.850521 -1.85974 0
M  V30 21353 H 1926.16 3.33098 -1.97799 0
M  V30 21354 H 1926.57 3.16139 -4.18517 0
M  V30 21355 H 1928.04 4.52806 -3.15707 0
M  V30 21356 H 1928.52 4.12443 -1.50956 0
M  V30 21357 H 1929.13 3.14397 -2.86417 0
M  V30 21358 N 1927.44 1.27542 0.925789 0
M  V30 21359 C 1928.38 1.04754 2.02736 0
M  V30 21360 C 1929.35 -0.0326519 1.62567 0
M  V30 21361 O 1930.54 0.112877 1.88162 0
M  V30 21362 C 1927.66 0.589429 3.33532 0
M  V30 21363 C 1926.71 1.66447 3.9268 0
M  V30 21364 S 1927.54 3.25745 4.2503 0
M  V30 21365 C 1928.7 2.8174 5.58904 0
M  V30 21366 H 1928.93 1.9802 2.21755 0
M  V30 21367 H 1926.47 1.11394 1.06914 0
M  V30 21368 H 1928.42 0.331804 4.09157 0
M  V30 21369 H 1927.08 -0.323209 3.12433 0
M  V30 21370 H 1926.28 1.29528 4.87071 0
M  V30 21371 H 1925.88 1.87427 3.23647 0
M  V30 21372 H 1928.17 2.27162 6.38282 0
M  V30 21373 H 1929.11 3.74883 6.00723 0
M  V30 21374 H 1929.52 2.20823 5.19516 0
M  V30 21375 N 1928.92 -1.13255 1.09595 0
M  V30 21376 C 1929.87 -2.20794 0.731624 0
M  V30 21377 C 1930.86 -1.67263 -0.268256 0
M  V30 21378 O 1932.07 -1.79533 -0.129535 0
M  V30 21379 H 1928.44 -0.719521 0.218618 0
M  V30 21380 H 1930.41 -2.48784 1.6477 0
M  V30 21381 C 1929.16 -3.47283 0.170214 0
M  V30 21382 H 1928.49 -3.88814 0.930805 0
M  V30 21383 H 1929.93 -4.23974 -0.0467499 0
M  V30 21384 C 1928.39 -3.18609 -1.09497 0
M  V30 21385 O 1928.92 -3.37534 -2.17793 0
M  V30 21386 N 1927.12 -2.72477 -1.01017 0
M  V30 21387 H 1926.67 -2.57278 -0.128814 0
M  V30 21388 H 1926.63 -2.53668 -1.85741 0
M  V30 21389 N 1930.4 -0.883401 -1.30514 0
M  V30 21390 C 1931.31 -0.352971 -2.31929 0
M  V30 21391 C 1932.32 0.543992 -1.65278 0
M  V30 21392 O 1933.5 0.437489 -1.96591 0
M  V30 21393 C 1930.57 0.425263 -3.44082 0
M  V30 21394 C 1929.63 -0.501265 -4.26363 0
M  V30 21395 C 1928.86 0.239923 -5.3316 0
M  V30 21396 O 1929.08 1.46622 -5.51233 0
M  V30 21397 O 1928.02 -0.409158 -6.00508 0
M  V30 21398 H 1931.84 -1.19393 -2.79247 0
M  V30 21399 H 1929.43 -0.647187 -1.34655 0
M  V30 21400 H 1931.31 0.865957 -4.12407 0
M  V30 21401 H 1929.98 1.24255 -2.98902 0
M  V30 21402 H 1928.89 -0.990738 -3.60743 0
M  V30 21403 H 1930.22 -1.28451 -4.75143 0
M  V30 21404 N 1931.88 1.43833 -0.644194 0
M  V30 21405 C 1932.81 2.33467 0.0394911 0
M  V30 21406 C 1933.79 1.48957 0.821339 0
M  V30 21407 O 1934.97 1.77644 0.784618 0
M  V30 21408 C 1932.1 3.32205 1.01277 0
M  V30 21409 C 1931.06 4.26634 0.341666 0
M  V30 21410 C 1930.38 5.15341 1.42577 0
M  V30 21411 C 1931.68 5.16737 -0.760299 0
M  V30 21412 H 1933.38 2.90883 -0.709025 0
M  V30 21413 H 1930.92 1.3987 -0.342413 0
M  V30 21414 H 1932.88 3.93803 1.49991 0
M  V30 21415 H 1931.6 2.73025 1.79234 0
M  V30 21416 H 1930.26 3.66387 -0.124937 0
M  V30 21417 H 1929.91 4.52505 2.19654 0
M  V30 21418 H 1929.61 5.79336 0.98203 0
M  V30 21419 H 1931.13 5.79811 1.91444 0
M  V30 21420 H 1932.54 5.72195 -0.355713 0
M  V30 21421 H 1930.94 5.89404 -1.12796 0
M  V30 21422 H 1932.01 4.56966 -1.62204 0
M  V30 21423 N 1933.35 0.385544 1.52811 0
M  V30 21424 C 1934.26 -0.45885 2.30069 0
M  V30 21425 C 1935.28 -1.07486 1.36831 0
M  V30 21426 O 1936.46 -1.08148 1.699 0
M  V30 21427 C 1933.52 -1.57281 3.08972 0
M  V30 21428 C 1932.58 -0.98229 4.17911 0
M  V30 21429 C 1931.82 -2.04316 4.93042 0
M  V30 21430 O 1932.04 -3.25761 4.68226 0
M  V30 21431 O 1930.97 -1.66256 5.78483 0
M  V30 21432 H 1934.8 0.170416 3.03221 0
M  V30 21433 H 1932.38 0.149363 1.48651 0
M  V30 21434 H 1934.27 -2.22003 3.5818 0
M  V30 21435 H 1932.94 -2.18711 2.38637 0
M  V30 21436 H 1931.85 -0.298428 3.72908 0
M  V30 21437 H 1933.18 -0.412261 4.9047 0
M  V30 21438 N 1934.83 -1.57178 0.115259 0
M  V30 21439 C 1935.76 -2.18134 -0.833042 0
M  V30 21440 C 1936.74 -1.12033 -1.27995 0
M  V30 21441 O 1937.93 -1.40254 -1.34323 0
M  V30 21442 C 1935.06 -2.77778 -2.08463 0
M  V30 21443 C 1934.01 -3.89429 -1.77565 0
M  V30 21444 C 1933.34 -4.35863 -3.09722 0
M  V30 21445 C 1934.64 -5.11701 -1.04687 0
M  V30 21446 H 1936.33 -2.9763 -0.325107 0
M  V30 21447 H 1933.88 -1.43164 -0.154933 0
M  V30 21448 H 1935.83 -3.19079 -2.75258 0
M  V30 21449 H 1934.56 -1.95566 -2.61575 0
M  V30 21450 H 1933.21 -3.48698 -1.13161 0
M  V30 21451 H 1932.86 -3.50515 -3.6076 0
M  V30 21452 H 1932.56 -5.11152 -2.89823 0
M  V30 21453 H 1934.09 -4.79812 -3.77641 0
M  V30 21454 H 1935.5 -5.50045 -1.61628 0
M  V30 21455 H 1933.9 -5.92549 -0.948964 0
M  V30 21456 H 1934.97 -4.84889 -0.032977 0
M  V30 21457 N 1936.31 0.158505 -1.56801 0
M  V30 21458 C 1937.24 1.19799 -2.00426 0
M  V30 21459 C 1938.22 1.45453 -0.881905 0
M  V30 21460 O 1939.41 1.56569 -1.1489 0
M  V30 21461 C 1936.54 2.53392 -2.37508 0
M  V30 21462 C 1935.49 2.42283 -3.52822 0
M  V30 21463 C 1934.82 3.80482 -3.75683 0
M  V30 21464 C 1936.12 1.91666 -4.85862 0
M  V30 21465 H 1937.81 0.835303 -2.87512 0
M  V30 21466 H 1935.36 0.400366 -1.38322 0
M  V30 21467 H 1937.31 3.26326 -2.66625 0
M  V30 21468 H 1936.03 2.91474 -1.47345 0
M  V30 21469 H 1934.69 1.71801 -3.23852 0
M  V30 21470 H 1934.34 4.15979 -2.8279 0
M  V30 21471 H 1934.04 3.73913 -4.5328 0
M  V30 21472 H 1935.57 4.54982 -4.07214 0
M  V30 21473 H 1936.98 2.54384 -5.13772 0
M  V30 21474 H 1935.38 1.96016 -5.67184 0
M  V30 21475 H 1936.45 0.871666 -4.77001 0
M  V30 21476 N 1937.79 1.51692 0.427485 0
M  V30 21477 C 1939.02 1.68669 1.19827 0
M  V30 21478 C 1939.43 0.388231 1.84765 0
M  V30 21479 O 1938.79 -0.634167 1.71127 0
M  V30 21480 C 1938.84 2.80936 2.27502 0
M  V30 21481 O 1938.56 4.05752 1.65218 0
M  V30 21482 C 1940.06 3.09267 3.17599 0
M  V30 21483 H 1937.28 0.565751 0.360786 0
M  V30 21484 H 1939.83 1.98158 0.505323 0
M  V30 21485 H 1937.98 2.54018 2.92496 0
M  V30 21486 H 1938.4 4.68175 2.36457 0
M  V30 21487 H 1939.87 3.91379 3.89264 0
M  V30 21488 H 1940.35 2.22071 3.78921 0
M  V30 21489 H 1940.95 3.37881 2.58295 0
M  V30 21490 N 1939.27 -0.683564 1.42004 0
M  V30 21491 C 1940.18 -1.82689 1.4718 0
M  V30 21492 C 1941.19 -1.70208 0.361298 0
M  V30 21493 O 1942.37 -1.91912 0.610867 0
M  V30 21494 C 1939.43 -3.18767 1.3634 0
M  V30 21495 C 1938.5 -3.43269 2.57808 0
M  V30 21496 C 1937.73 -4.72855 2.47476 0
M  V30 21497 O 1937.95 -5.50164 1.50584 0
M  V30 21498 O 1936.89 -4.98407 3.37452 0
M  V30 21499 H 1940.71 -1.81279 2.43663 0
M  V30 21500 H 1938.3 -0.838182 1.23672 0
M  V30 21501 H 1940.18 -3.99986 1.32624 0
M  V30 21502 H 1938.85 -3.20834 0.429781 0
M  V30 21503 H 1937.76 -2.61933 2.67099 0
M  V30 21504 H 1939.09 -3.46025 3.50039 0
M  V30 21505 N 1940.75 -1.28031 -0.919012 0
M  V30 21506 C 1941.68 -1.07305 -2.0253 0
M  V30 21507 C 1942.69 -0.0264063 -1.62779 0
M  V30 21508 O 1943.88 -0.268902 -1.76463 0
M  V30 21509 C 1940.98 -0.607467 -3.33411 0
M  V30 21510 C 1940.15 -1.72834 -4.01805 0
M  V30 21511 C 1939.21 -1.25703 -5.10965 0
M  V30 21512 O 1938.24 -1.9583 -5.34452 0
M  V30 21513 N 1939.44 -0.117374 -5.80381 0
M  V30 21514 H 1942.2 -2.02575 -2.2087 0
M  V30 21515 H 1939.77 -1.19713 -1.08997 0
M  V30 21516 H 1941.76 -0.275875 -4.03759 0
M  V30 21517 H 1940.33 0.252241 -3.11581 0
M  V30 21518 H 1939.55 -2.22979 -3.25075 0
M  V30 21519 H 1940.84 -2.48038 -4.44246 0
M  V30 21520 H 1940.23 0.467747 -5.63763 0
M  V30 21521 H 1938.79 0.154978 -6.51616 0
M  V30 21522 N 1942.22 1.12672 -1.10194 0
M  V30 21523 C 1943.45 1.88496 -0.865112 0
M  V30 21524 C 1943.87 1.78977 0.578691 0
M  V30 21525 O 1943.23 1.14292 1.40737 0
M  V30 21526 C 1943.28 3.35768 -1.315 0
M  V30 21527 O 1942.38 4.09615 -0.478447 0
M  V30 21528 H 1941.72 0.585782 -0.312658 0
M  V30 21529 H 1944.25 1.42506 -1.46811 0
M  V30 21530 H 1944.26 3.86605 -1.30385 0
M  V30 21531 H 1942.94 3.42013 -2.36643 0
M  V30 21532 H 1941.52 3.68753 -0.554589 0
M  V30 21533 N 1943.7 0.89031 1.30043 0
M  V30 21534 C 1944.93 0.526566 2.00087 0
M  V30 21535 C 1945.34 -0.88632 1.66703 0
M  V30 21536 O 1944.7 -1.58365 0.907012 0
M  V30 21537 C 1944.75 0.698102 3.54695 0
M  V30 21538 O 1944.47 2.05537 3.86893 0
M  V30 21539 C 1945.97 0.338058 4.42009 0
M  V30 21540 H 1943.19 0.20299 0.639559 0
M  V30 21541 H 1945.74 1.19708 1.65802 0
M  V30 21542 H 1943.89 0.0748931 3.87328 0
M  V30 21543 H 1944.31 2.07787 4.81586 0
M  V30 21544 H 1945.78 0.508957 5.49649 0
M  V30 21545 H 1946.26 -0.724284 4.33187 0
M  V30 21546 H 1946.86 0.937813 4.14831 0
M  V30 21547 N 1945.18 -1.43489 0.651812 0
M  V30 21548 C 1946.41 -2.06181 0.172334 0
M  V30 21549 C 1946.82 -1.48848 -1.16145 0
M  V30 21550 O 1946.18 -0.619246 -1.71673 0
M  V30 21551 C 1946.23 -3.61425 0.0737039 0
M  V30 21552 O 1945.95 -4.16627 1.35476 0
M  V30 21553 C 1947.45 -4.4119 -0.432019 0
M  V30 21554 H 1944.67 -0.665039 0.0892394 0
M  V30 21555 H 1947.22 -1.84018 0.892063 0
M  V30 21556 H 1945.37 -3.82779 -0.596577 0
M  V30 21557 H 1945.79 -5.1028 1.21305 0
M  V30 21558 H 1947.26 -5.50163 -0.449989 0
M  V30 21559 H 1947.74 -4.14115 -1.46306 0
M  V30 21560 H 1948.34 -4.24802 0.205721 0
M  V30 21561 N 1946.66 -0.393643 -1.52605 0
M  V30 21562 C 1947.6 0.439408 -2.26579 0
M  V30 21563 C 1948.57 1.05415 -1.28362 0
M  V30 21564 O 1949.76 1.08136 -1.57198 0
M  V30 21565 C 1946.9 1.55846 -3.07906 0
M  V30 21566 C 1946.01 0.966152 -4.21058 0
M  V30 21567 C 1945.15 2.05662 -4.89772 0
M  V30 21568 C 1944.19 1.44043 -5.9491 0
M  V30 21569 N 1943.32 2.47039 -6.57203 0
M  V30 21570 H 1948.16 -0.197864 -2.97342 0
M  V30 21571 H 1945.7 -0.109409 -1.46693 0
M  V30 21572 H 1947.66 2.21807 -3.53352 0
M  V30 21573 H 1946.29 2.16598 -2.39343 0
M  V30 21574 H 1945.34 0.196024 -3.79895 0
M  V30 21575 H 1946.65 0.475898 -4.96525 0
M  V30 21576 H 1945.81 2.79383 -5.38544 0
M  V30 21577 H 1944.55 2.58048 -4.13839 0
M  V30 21578 H 1943.55 0.688483 -5.45472 0
M  V30 21579 H 1944.78 0.924458 -6.72778 0
M  V30 21580 H 1942.72 2.98586 -5.84108 0
M  V30 21581 H 1942.64 2.02781 -7.28297 0
M  V30 21582 H 1943.91 3.20377 -7.10619 0
M  V30 21583 N 1948.14 1.57115 -0.123593 0
M  V30 21584 C 1949.41 1.86893 0.577099 0
M  V30 21585 C 1949.79 1.02556 1.84514 0
M  V30 21586 O 1949.14 0.105755 2.28255 0
M  V30 21587 C 1949.35 3.38107 0.865122 0
M  V30 21588 C 1950.7 4.0681 1.21618 0
M  V30 21589 O 1951.72 3.43153 0.955237 0
M  V30 21590 O 1950.58 5.19186 1.70612 0
M  V30 21591 H 1947.68 0.773842 0.291716 0
M  V30 21592 H 1950.22 1.68959 -0.158443 0
M  V30 21593 H 1948.99 3.91286 -0.0332696 0
M  V30 21594 H 1948.62 3.61488 1.65566 0
M  V30 21595 N 1949.61 -0.150187 1.56883 0
M  V30 21596 C 1950.84 -0.88235 1.87695 0
M  V30 21597 C 1951.26 -1.74093 0.712272 0
M  V30 21598 O 1950.62 -1.78118 -0.338207 0
M  V30 21599 C 1950.67 -1.71754 3.1707 0
M  V30 21600 O 1949.77 -2.82145 3.00779 0
M  V30 21601 H 1949.11 -0.245947 0.616771 0
M  V30 21602 H 1951.64 -0.141963 2.04107 0
M  V30 21603 H 1951.65 -2.1132 3.4901 0
M  V30 21604 H 1950.33 -1.08704 4.01443 0
M  V30 21605 H 1948.91 -2.46008 2.8024 0
M  V30 21606 N 1951.09 -1.51916 -0.419434 0
M  V30 21607 C 1952.32 -1.69302 -1.1893 0
M  V30 21608 C 1952.74 -0.398024 -1.84557 0
M  V30 21609 O 1952.09 0.625083 -1.71461 0
M  V30 21610 C 1952.14 -2.82139 -2.26009 0
M  V30 21611 O 1951.86 -4.06623 -1.63064 0
M  V30 21612 C 1953.37 -3.10947 -3.15954 0
M  V30 21613 H 1950.59 -0.567657 -0.357781 0
M  V30 21614 H 1953.13 -1.98424 -0.494807 0
M  V30 21615 H 1951.28 -2.55565 -2.91144 0
M  V30 21616 H 1951.7 -4.69423 -2.33971 0
M  V30 21617 H 1953.17 -3.93438 -3.87183 0
M  V30 21618 H 1953.65 -2.24078 -3.77738 0
M  V30 21619 H 1954.26 -3.39246 -2.56499 0
M  V30 21620 N 1952.57 0.676023 -1.42365 0
M  V30 21621 C 1953.8 1.46436 -1.46164 0
M  V30 21622 C 1954.21 1.8866 -0.0726092 0
M  V30 21623 O 1953.57 1.58056 0.912395 0
M  V30 21624 C 1953.62 2.71428 -2.38766 0
M  V30 21625 O 1953.34 2.30976 -3.72266 0
M  V30 21626 C 1954.84 3.65001 -2.51573 0
M  V30 21627 H 1952.06 0.450625 -0.49717 0
M  V30 21628 H 1954.61 0.830748 -1.86866 0
M  V30 21629 H 1952.76 3.30981 -2.01321 0
M  V30 21630 H 1953.18 3.11682 -4.21846 0
M  V30 21631 H 1954.65 4.49432 -3.20492 0
M  V30 21632 H 1955.13 4.10818 -1.55322 0
M  V30 21633 H 1955.73 3.11342 -2.89735 0
M  V30 21634 N 1954.05 1.28517 0.912209 0
M  V30 21635 C 1954.98 1.15113 2.03153 0
M  V30 21636 C 1955.96 0.0485128 1.70031 0
M  V30 21637 O 1957.14 0.225778 1.92883 0
M  V30 21638 C 1954.27 0.81381 3.37631 0
M  V30 21639 C 1953.23 1.87137 3.8492 0
M  V30 21640 C 1952.55 1.38765 5.1638 0
M  V30 21641 C 1953.85 3.27819 4.06611 0
M  V30 21642 H 1955.55 2.0875 2.14625 0
M  V30 21643 H 1953.09 1.00504 1.03126 0
M  V30 21644 H 1955.05 0.706804 4.1543 0
M  V30 21645 H 1953.77 -0.15826 3.26216 0
M  V30 21646 H 1952.43 1.96755 3.09327 0
M  V30 21647 H 1952.08 0.404598 5.0137 0
M  V30 21648 H 1951.78 2.09482 5.48991 0
M  V30 21649 H 1953.3 1.29389 5.96733 0
M  V30 21650 H 1954.72 3.21114 4.7493 0
M  V30 21651 H 1953.11 3.96384 4.50555 0
M  V30 21652 H 1954.18 3.71723 3.11368 0
M  V30 21653 N 1955.53 -1.12086 1.1079 0
M  V30 21654 C 1956.49 -2.16111 0.763446 0
M  V30 21655 C 1957.49 -1.59371 -0.213903 0
M  V30 21656 O 1958.68 -1.74197 0.00972099 0
M  V30 21657 C 1955.81 -3.40646 0.131488 0
M  V30 21658 H 1957 -2.48096 1.68489 0
M  V30 21659 H 1954.56 -1.27156 0.908896 0
M  V30 21660 H 1955.29 -3.14265 -0.800507 0
M  V30 21661 H 1955.08 -3.83108 0.834928 0
M  V30 21662 H 1956.57 -4.17495 -0.0936165 0
M  V30 21663 N 1957 -0.897194 -1.29569 0
M  V30 21664 C 1958.42 -0.592933 -1.48177 0
M  V30 21665 C 1958.62 0.866214 -1.81931 0
M  V30 21666 O 1957.68 1.64658 -1.91427 0
M  V30 21667 C 1958.99 -1.5166 -2.59653 0
M  V30 21668 C 1960.54 -1.52153 -2.73529 0
M  V30 21669 C 1961.01 -2.43142 -3.88131 0
M  V30 21670 N 1962.5 -2.41175 -3.9546 0
M  V30 21671 C 1963.24 -3.08283 -4.83476 0
M  V30 21672 N 1962.73 -3.84662 -5.76201 0
M  V30 21673 N 1964.53 -2.97453 -4.76946 0
M  V30 21674 H 1956.68 -1.84096 -1.05935 0
M  V30 21675 H 1958.94 -0.788701 -0.52598 0
M  V30 21676 H 1958.65 -2.55612 -2.41569 0
M  V30 21677 H 1958.52 -1.23526 -3.564 0
M  V30 21678 H 1960.91 -0.489472 -2.91012 0
M  V30 21679 H 1960.99 -1.84324 -1.77365 0
M  V30 21680 H 1960.63 -3.46441 -3.71404 0
M  V30 21681 H 1960.56 -2.08282 -4.83659 0
M  V30 21682 H 1963.05 -1.8568 -3.29137 0
M  V30 21683 H 1963.37 -4.32929 -6.4015 0
M  V30 21684 H 1961.71 -3.88769 -5.76094 0
M  V30 21685 H 1964.9 -2.37301 -4.03492 0
M  V30 21686 H 1965.08 -3.50029 -5.45329 0
M  V30 21687 N 1958.48 1.43142 -0.659413 0
M  V30 21688 C 1959.73 2.0096 -0.172631 0
M  V30 21689 C 1960.04 1.52669 1.22277 0
M  V30 21690 O 1961.25 2.02802 1.8051 0
M  V30 21691 C 1959.71 3.58975 -0.257802 0
M  V30 21692 C 1959.31 4.16259 -1.65628 0
M  V30 21693 C 1961.06 4.24155 0.171057 0
M  V30 21694 C 1958.97 5.66588 -1.69505 0
M  V30 21695 H 1957.9 0.751547 -0.0607765 0
M  V30 21696 H 1960.55 1.64042 -0.822352 0
M  V30 21697 H 1958.93 3.93325 0.459538 0
M  V30 21698 H 1960.1 3.93398 -2.39947 0
M  V30 21699 H 1958.42 3.63473 -2.03165 0
M  V30 21700 H 1961.01 5.34454 0.162026 0
M  V30 21701 H 1961.36 3.98521 1.2036 0
M  V30 21702 H 1961.89 3.94711 -0.494745 0
M  V30 21703 H 1958.63 5.96998 -2.7069 0
M  V30 21704 H 1958.15 5.91486 -0.995201 0
M  V30 21705 H 1959.83 6.30736 -1.44156 0
M  V30 21706 N 1959.96 0.40173 1.52394 0
M  V30 21707 C 1960.87 -0.434422 2.30543 0
M  V30 21708 C 1961.89 -1.06028 1.37964 0
M  V30 21709 O 1963.06 -1.0634 1.71037 0
M  V30 21710 C 1960.13 -1.53995 3.10623 0
M  V30 21711 C 1959.19 -0.93791 4.18929 0
M  V30 21712 C 1958.42 -1.99075 4.95182 0
M  V30 21713 O 1958.64 -3.20777 4.71655 0
M  V30 21714 O 1957.58 -1.60111 5.80214 0
M  V30 21715 H 1961.4 0.202567 3.03024 0
M  V30 21716 H 1958.99 0.165122 1.48485 0
M  V30 21717 H 1960.87 -2.18191 3.60514 0
M  V30 21718 H 1959.55 -2.16167 2.40943 0
M  V30 21719 H 1958.45 -0.25886 3.73203 0
M  V30 21720 H 1959.79 -0.360217 4.9088 0
M  V30 21721 N 1961.44 -1.57047 0.131923 0
M  V30 21722 C 1962.37 -2.11735 -0.851089 0
M  V30 21723 C 1963.35 -1.03702 -1.25239 0
M  V30 21724 O 1964.53 -1.31438 -1.35116 0
M  V30 21725 C 1961.66 -2.62468 -2.14075 0
M  V30 21726 C 1960.71 -3.82508 -1.88653 0
M  V30 21727 S 1961.54 -5.24266 -1.09112 0
M  V30 21728 C 1962.7 -5.78377 -2.3923 0
M  V30 21729 H 1962.93 -2.94784 -0.385975 0
M  V30 21730 H 1960.46 -1.54182 -0.0820933 0
M  V30 21731 H 1962.42 -2.92351 -2.88169 0
M  V30 21732 H 1961.08 -1.79578 -2.57703 0
M  V30 21733 H 1960.27 -4.16198 -2.84245 0
M  V30 21734 H 1959.88 -3.53308 -1.22675 0
M  V30 21735 H 1962.17 -5.8889 -3.34985 0
M  V30 21736 H 1963.11 -6.76223 -2.10066 0
M  V30 21737 H 1963.52 -5.06523 -2.49189 0
M  V30 21738 N 1962.92 0.141865 -1.5696 0
M  V30 21739 C 1963.83 1.19435 -2.01922 0
M  V30 21740 C 1964.84 1.4671 -0.935527 0
M  V30 21741 O 1966.02 1.58279 -1.24538 0
M  V30 21742 C 1963.08 2.50665 -2.39516 0
M  V30 21743 C 1962.14 2.30991 -3.61859 0
M  V30 21744 C 1961.38 3.55963 -3.9765 0
M  V30 21745 O 1961.6 4.62354 -3.34044 0
M  V30 21746 O 1960.53 3.48322 -4.90872 0
M  V30 21747 H 1964.36 0.842613 -2.91777 0
M  V30 21748 H 1961.95 0.350973 -1.45219 0
M  V30 21749 H 1963.83 3.28024 -2.64534 0
M  V30 21750 H 1962.5 2.85358 -1.52815 0
M  V30 21751 H 1961.41 1.51565 -3.42022 0
M  V30 21752 H 1962.74 2.01211 -4.49194 0
M  V30 21753 N 1964.39 1.52136 0.411372 0
M  V30 21754 C 1965.81 1.40889 0.749825 0
M  V30 21755 C 1966.01 0.511617 1.94897 0
M  V30 21756 O 1965.07 -0.0234451 2.52489 0
M  V30 21757 C 1966.38 2.83378 1.00586 0
M  V30 21758 C 1967.93 2.92706 1.10871 0
M  V30 21759 C 1968.4 4.36157 1.39752 0
M  V30 21760 N 1969.89 4.39382 1.46622 0
M  V30 21761 C 1970.63 5.47436 1.70591 0
M  V30 21762 N 1970.12 6.65612 1.92179 0
M  V30 21763 N 1971.92 5.34949 1.72587 0
M  V30 21764 H 1964.07 2.09009 -0.377998 0
M  V30 21765 H 1966.33 0.941963 -0.106819 0
M  V30 21766 H 1966.04 3.51147 0.197136 0
M  V30 21767 H 1965.91 3.24285 1.92663 0
M  V30 21768 H 1968.3 2.25118 1.90803 0
M  V30 21769 H 1968.38 2.55258 0.166361 0
M  V30 21770 H 1968.02 5.04303 0.603387 0
M  V30 21771 H 1967.95 4.71139 2.35236 0
M  V30 21772 H 1970.44 3.54194 1.31738 0
M  V30 21773 H 1970.76 7.43745 2.09912 0
M  V30 21774 H 1969.1 6.68681 1.89449 0
M  V30 21775 H 1972.29 4.41602 1.55258 0
M  V30 21776 H 1972.47 6.19234 1.90929 0
M  V30 21777 N 1965.87 -0.668464 1.42721 0
M  V30 21778 C 1966.8 -1.79375 1.49489 0
M  V30 21779 C 1967.78 -1.66442 0.350881 0
M  V30 21780 O 1968.97 -1.85767 0.566049 0
M  V30 21781 C 1966.1 -3.17712 1.40273 0
M  V30 21782 C 1965.05 -3.45389 2.52766 0
M  V30 21783 C 1964.38 -4.83367 2.28606 0
M  V30 21784 C 1965.68 -3.4165 3.95061 0
M  V30 21785 H 1967.37 -1.73968 2.43671 0
M  V30 21786 H 1964.92 -0.835548 1.1728 0
M  V30 21787 H 1966.87 -3.96173 1.43614 0
M  V30 21788 H 1965.6 -3.23811 0.425882 0
M  V30 21789 H 1964.26 -2.69292 2.48752 0
M  V30 21790 H 1963.9 -4.86124 1.292 0
M  V30 21791 H 1963.6 -5.02847 3.04005 0
M  V30 21792 H 1965.13 -5.64104 2.33707 0
M  V30 21793 H 1966.54 -4.1007 4.00644 0
M  V30 21794 H 1964.94 -3.72666 4.70362 0
M  V30 21795 H 1966.01 -2.40106 4.2128 0
M  V30 21796 N 1967.35 -1.28999 -0.905381 0
M  V30 21797 C 1968.77 -1.06887 -1.18522 0
M  V30 21798 C 1968.97 0.183459 -2.00663 0
M  V30 21799 O 1968.02 0.882808 -2.36564 0
M  V30 21800 C 1969.34 -2.32111 -1.91168 0
M  V30 21801 C 1970.88 -2.37374 -2.04017 0
M  V30 21802 C 1971.36 -3.62386 -2.80072 0
M  V30 21803 N 1972.85 -3.63075 -2.87629 0
M  V30 21804 C 1973.59 -4.56485 -3.47 0
M  V30 21805 N 1973.08 -5.60222 -4.07582 0
M  V30 21806 N 1974.87 -4.44065 -3.44619 0
M  V30 21807 H 1967.03 -2.09375 -0.357185 0
M  V30 21808 H 1969.29 -0.92195 -0.220707 0
M  V30 21809 H 1968.99 -3.23391 -1.38243 0
M  V30 21810 H 1968.87 -2.39178 -2.91674 0
M  V30 21811 H 1971.26 -1.46585 -2.56119 0
M  V30 21812 H 1971.34 -2.34296 -1.0266 0
M  V30 21813 H 1970.98 -4.53523 -2.28647 0
M  V30 21814 H 1970.91 -3.6272 -3.81761 0
M  V30 21815 H 1973.4 -2.88065 -2.44595 0
M  V30 21816 H 1973.71 -6.27629 -4.50889 0
M  V30 21817 H 1972.06 -5.64038 -4.06061 0
M  V30 21818 H 1975.25 -3.62218 -2.96505 0
M  V30 21819 H 1975.42 -5.17049 -3.90595 0
M  V30 21820 N 1968.83 1.11497 -1.11383 0
M  V30 21821 C 1969.76 2.19592 -0.793827 0
M  V30 21822 C 1970.74 1.68433 0.237559 0
M  V30 21823 O 1971.93 1.93936 0.101164 0
M  V30 21824 C 1969.06 3.465 -0.235579 0
M  V30 21825 C 1968.01 4.10869 -1.19877 0
M  V30 21826 C 1967.34 5.32345 -0.501259 0
M  V30 21827 C 1968.64 4.55864 -2.54922 0
M  V30 21828 H 1970.33 2.46617 -1.69766 0
M  V30 21829 H 1967.88 1.18532 -0.817695 0
M  V30 21830 H 1969.83 4.214 0.000490272 0
M  V30 21831 H 1968.55 3.18932 0.703544 0
M  V30 21832 H 1967.21 3.37962 -1.42046 0
M  V30 21833 H 1966.86 5.01048 0.442652 0
M  V30 21834 H 1966.56 5.76363 -1.14367 0
M  V30 21835 H 1968.08 6.09985 -0.273968 0
M  V30 21836 H 1969.5 5.22089 -2.36845 0
M  V30 21837 H 1967.89 5.10693 -3.15139 0
M  V30 21838 H 1968.96 3.69342 -3.14189 0
M  V30 21839 N 1970.31 0.904053 1.29092 0
M  V30 21840 C 1971.26 0.375028 2.29557 0
M  V30 21841 C 1972.25 -0.528146 1.60956 0
M  V30 21842 O 1973.46 -0.410465 1.75257 0
M  V30 21843 H 1969.83 0.102657 0.74496 0
M  V30 21844 H 1971.8 1.23564 2.71615 0
M  V30 21845 C 1970.55 -0.37845 3.45634 0
M  V30 21846 H 1969.87 0.307303 3.98617 0
M  V30 21847 H 1971.31 -0.713405 4.17955 0
M  V30 21848 C 1969.77 -1.58274 2.97407 0
M  V30 21849 O 1970.3 -2.68199 2.99052 0
M  V30 21850 N 1968.51 -1.4264 2.53184 0
M  V30 21851 H 1968.06 -0.532104 2.52044 0
M  V30 21852 H 1968.01 -2.23348 2.21276 0
M  V30 21853 N 1971.79 -1.4279 0.666995 0
M  V30 21854 C 1972.7 -2.34594 -0.0164305 0
M  V30 21855 C 1973.71 -1.54657 -0.797322 0
M  V30 21856 O 1974.89 -1.87256 -0.741426 0
M  V30 21857 C 1971.95 -3.33102 -0.961469 0
M  V30 21858 C 1971.01 -4.28939 -0.17598 0
M  V30 21859 C 1970.25 -5.22741 -1.076 0
M  V30 21860 O 1970.47 -5.21289 -2.31546 0
M  V30 21861 O 1969.4 -5.99464 -0.541001 0
M  V30 21862 H 1973.23 -2.94557 0.739579 0
M  V30 21863 H 1970.81 -1.43162 0.427207 0
M  V30 21864 H 1972.7 -3.93639 -1.5042 0
M  V30 21865 H 1971.37 -2.75623 -1.69746 0
M  V30 21866 H 1970.28 -3.71839 0.410667 0
M  V30 21867 H 1971.61 -4.89438 0.520737 0
M  V30 21868 N 1973.26 -0.409806 -1.52179 0
M  V30 21869 C 1974.21 0.415351 -2.27032 0
M  V30 21870 C 1975.18 1.04048 -1.29473 0
M  V30 21871 O 1976.37 1.06462 -1.58336 0
M  V30 21872 C 1973.51 1.52571 -3.09542 0
M  V30 21873 C 1972.62 0.921439 -4.22059 0
M  V30 21874 C 1971.75 2.00455 -4.91926 0
M  V30 21875 C 1970.79 1.37725 -5.96404 0
M  V30 21876 N 1969.93 2.40054 -6.59787 0
M  V30 21877 H 1974.77 -0.22939 -2.97116 0
M  V30 21878 H 1972.31 -0.124962 -1.46568 0
M  V30 21879 H 1974.26 2.18046 -3.55685 0
M  V30 21880 H 1972.89 2.14047 -2.41627 0
M  V30 21881 H 1971.95 0.15572 -3.80081 0
M  V30 21882 H 1973.26 0.423208 -4.97001 0
M  V30 21883 H 1972.41 2.73655 -5.41477 0
M  V30 21884 H 1971.15 2.53644 -4.16552 0
M  V30 21885 H 1970.16 0.63059 -5.46172 0
M  V30 21886 H 1971.38 0.853049 -6.73721 0
M  V30 21887 H 1969.33 2.92374 -5.87242 0
M  V30 21888 H 1969.24 1.95045 -7.30406 0
M  V30 21889 H 1970.51 3.12822 -7.13977 0
M  V30 21890 N 1974.74 1.56975 -0.14025 0
M  V30 21891 C 1975.99 1.95906 0.512543 0
M  V30 21892 C 1976.32 1.02475 1.65315 0
M  V30 21893 O 1975.57 0.0526473 1.95629 0
M  V30 21894 C 1975.87 3.4113 1.06606 0
M  V30 21895 C 1975.54 4.50878 0.044598 0
M  V30 21896 C 1974.2 4.8062 -0.236217 0
M  V30 21897 C 1976.55 5.17126 -0.650368 0
M  V30 21898 C 1973.88 5.73919 -1.21792 0
M  V30 21899 C 1976.23 6.11483 -1.62084 0
M  V30 21900 C 1974.89 6.39607 -1.90943 0
M  V30 21901 H 1974.16 0.716872 0.187553 0
M  V30 21902 H 1976.81 1.90166 -0.225653 0
M  V30 21903 H 1975.12 3.43669 1.88145 0
M  V30 21904 H 1976.81 3.68577 1.57961 0
M  V30 21905 H 1973.4 4.27726 0.273651 0
M  V30 21906 H 1977.59 4.94286 -0.446606 0
M  V30 21907 H 1972.84 5.94005 -1.44802 0
M  V30 21908 H 1977.02 6.61895 -2.1649 0
M  V30 21909 H 1974.64 7.11707 -2.67165 0
M  V30 21910 N 1976.22 -0.133539 1.57033 0
M  V30 21911 C 1977.15 -1.18985 1.95896 0
M  V30 21912 C 1978.16 -1.38453 0.856426 0
M  V30 21913 O 1979.35 -1.37785 1.13479 0
M  V30 21914 C 1976.45 -2.55242 2.22946 0
M  V30 21915 C 1975.63 -2.56572 3.54245 0
M  V30 21916 C 1974.69 -3.74467 3.69677 0
M  V30 21917 O 1973.71 -3.5872 4.41937 0
M  V30 21918 N 1974.91 -4.92459 3.0735 0
M  V30 21919 H 1977.68 -0.859396 2.87114 0
M  V30 21920 H 1975.24 -0.32297 1.58646 0
M  V30 21921 H 1977.23 -3.32645 2.30498 0
M  V30 21922 H 1975.8 -2.80526 1.37926 0
M  V30 21923 H 1975.02 -1.64988 3.58012 0
M  V30 21924 H 1976.31 -2.54504 4.40574 0
M  V30 21925 H 1975.71 -5.08156 2.48584 0
M  V30 21926 H 1974.26 -5.6759 3.20445 0
M  V30 21927 N 1977.7 -1.52352 -0.403298 0
M  V30 21928 C 1978.61 -1.79011 -1.51631 0
M  V30 21929 C 1979.62 -0.676014 -1.60331 0
M  V30 21930 O 1980.8 -0.962058 -1.76936 0
M  V30 21931 C 1977.86 -1.94046 -2.8731 0
M  V30 21932 C 1976.93 -3.17955 -2.88449 0
M  V30 21933 C 1976.16 -3.32264 -4.17656 0
M  V30 21934 O 1976.38 -2.51703 -5.11861 0
M  V30 21935 O 1975.32 -4.25446 -4.25769 0
M  V30 21936 H 1979.14 -2.73495 -1.32038 0
M  V30 21937 H 1976.73 -1.37268 -0.589733 0
M  V30 21938 H 1978.61 -2.05724 -3.67771 0
M  V30 21939 H 1977.28 -1.02752 -3.06959 0
M  V30 21940 H 1976.19 -3.11731 -2.0682 0
M  V30 21941 H 1977.52 -4.0905 -2.7375 0
M  V30 21942 N 1979.18 0.660885 -1.43074 0
M  V30 21943 C 1980.4 1.45376 -1.47921 0
M  V30 21944 C 1980.83 1.87855 -0.0960289 0
M  V30 21945 O 1980.18 1.5689 0.908583 0
M  V30 21946 C 1980.23 2.67002 -2.42368 0
M  V30 21947 O 1979.34 3.65783 -1.90465 0
M  V30 21948 H 1978.68 0.436193 -0.500632 0
M  V30 21949 H 1981.21 0.809399 -1.87909 0
M  V30 21950 H 1981.22 3.14909 -2.59416 0
M  V30 21951 H 1979.89 2.35426 -3.42852 0
M  V30 21952 H 1978.47 3.24885 -1.83041 0
M  V30 21953 N 1980.65 1.29477 0.898527 0
M  V30 21954 C 1981.59 1.10513 2.00797 0
M  V30 21955 C 1982.6 0.0522996 1.62716 0
M  V30 21956 O 1983.79 0.296941 1.76013 0
M  V30 21957 C 1980.89 0.660433 3.32403 0
M  V30 21958 C 1980.06 1.79205 3.99004 0
M  V30 21959 C 1979.12 1.33816 5.089 0
M  V30 21960 O 1978.15 2.04308 5.31269 0
M  V30 21961 N 1979.35 0.209692 5.80121 0
M  V30 21962 H 1982.11 2.06063 2.17619 0
M  V30 21963 H 1979.67 1.21432 1.07078 0
M  V30 21964 H 1981.67 0.340075 4.03269 0
M  V30 21965 H 1980.24 -0.20264 3.11943 0
M  V30 21966 H 1979.46 2.28123 3.21487 0
M  V30 21967 H 1980.74 2.55075 4.40244 0
M  V30 21968 H 1980.14 -0.377998 5.64436 0
M  V30 21969 H 1978.7 -0.0512922 6.5178 0
M  V30 21970 N 1982.13 -1.10905 1.11972 0
M  V30 21971 C 1983.04 -2.20682 0.796029 0
M  V30 21972 C 1984.06 -1.72689 -0.213158 0
M  V30 21973 O 1985.23 -2.01343 -0.047955 0
M  V30 21974 C 1982.3 -3.45797 0.250055 0
M  V30 21975 C 1981.36 -4.08549 1.31855 0
M  V30 21976 C 1980.59 -5.27692 0.798538 0
M  V30 21977 O 1980.82 -5.69202 -0.369435 0
M  V30 21978 O 1979.75 -5.81174 1.5659 0
M  V30 21979 H 1983.58 -2.50794 1.71278 0
M  V30 21980 H 1981.16 -1.19548 0.896024 0
M  V30 21981 H 1983.04 -4.21371 -0.0497791 0
M  V30 21982 H 1981.72 -3.17324 -0.639327 0
M  V30 21983 H 1980.63 -3.34682 1.67148 0
M  V30 21984 H 1981.96 -4.41215 2.18153 0
M  V30 21985 N 1983.61 -0.910886 -1.2861 0
M  V30 21986 C 1984.52 -0.402088 -2.31129 0
M  V30 21987 C 1985.54 0.508811 -1.66394 0
M  V30 21988 O 1986.71 0.395691 -1.97475 0
M  V30 21989 C 1983.78 0.352182 -3.44907 0
M  V30 21990 C 1982.84 -0.59159 -4.25204 0
M  V30 21991 C 1982.07 0.126778 -5.33549 0
M  V30 21992 O 1982.29 1.34897 -5.54219 0
M  V30 21993 O 1981.23 -0.536442 -5.99505 0
M  V30 21994 H 1985.05 -1.25289 -2.76652 0
M  V30 21995 H 1982.64 -0.675604 -1.33251 0
M  V30 21996 H 1984.52 0.778285 -4.14151 0
M  V30 21997 H 1983.2 1.17886 -3.01471 0
M  V30 21998 H 1982.1 -1.06703 -3.5856 0
M  V30 21999 H 1983.44 -1.38501 -4.72312 0
M  V30 22000 N 1985.09 1.42434 -0.674558 0
M  V30 22001 C 1986.34 2.00765 -0.193936 0
M  V30 22002 C 1986.65 1.53957 1.20651 0
M  V30 22003 O 1987.86 2.04705 1.78348 0
M  V30 22004 C 1986.31 3.58682 -0.295862 0
M  V30 22005 C 1985.92 4.14478 -1.70034 0
M  V30 22006 C 1987.66 4.24313 0.12606 0
M  V30 22007 C 1985.57 5.64758 -1.75505 0
M  V30 22008 H 1984.5 0.75086 -0.0687443 0
M  V30 22009 H 1987.15 1.6316 -0.839705 0
M  V30 22010 H 1985.53 3.9379 0.417795 0
M  V30 22011 H 1986.71 3.90831 -2.44106 0
M  V30 22012 H 1985.02 3.61298 -2.07009 0
M  V30 22013 H 1987.62 5.34596 0.105331 0
M  V30 22014 H 1987.96 3.99775 1.16127 0
M  V30 22015 H 1988.5 3.94164 -0.536581 0
M  V30 22016 H 1985.24 5.94094 -2.77007 0
M  V30 22017 H 1984.76 5.90397 -1.05788 0
M  V30 22018 H 1986.43 6.29172 -1.50838 0
M  V30 22019 N 1986.57 0.417871 1.51959 0
M  V30 22020 C 1987.51 -0.403305 2.27249 0
M  V30 22021 C 1988.48 -1.0336 1.30023 0
M  V30 22022 O 1989.67 -1.05621 1.58899 0
M  V30 22023 C 1986.81 -1.50928 3.10346 0
M  V30 22024 C 1985.92 -0.899043 4.22541 0
M  V30 22025 C 1985.06 -1.97844 4.92982 0
M  V30 22026 C 1984.1 -1.3456 5.97126 0
M  V30 22027 N 1983.23 -2.36552 6.6105 0
M  V30 22028 H 1988.07 0.245143 2.9699 0
M  V30 22029 H 1985.61 0.132733 1.465 0
M  V30 22030 H 1987.57 -2.16157 3.56836 0
M  V30 22031 H 1986.2 -2.12763 2.42759 0
M  V30 22032 H 1985.25 -0.135561 3.80158 0
M  V30 22033 H 1986.56 -0.396845 4.97219 0
M  V30 22034 H 1985.72 -2.7078 5.42921 0
M  V30 22035 H 1984.45 -2.51432 4.17892 0
M  V30 22036 H 1983.46 -0.601616 5.46499 0
M  V30 22037 H 1984.68 -0.817308 6.74164 0
M  V30 22038 H 1982.63 -2.89256 5.88784 0
M  V30 22039 H 1982.55 -1.91169 7.3143 0
M  V30 22040 H 1983.82 -3.09031 7.15626 0
M  V30 22041 N 1988.04 -1.56898 0.148573 0
M  V30 22042 C 1989.27 -2.00974 -0.512287 0
M  V30 22043 C 1989.69 -1.02801 -1.57523 0
M  V30 22044 O 1989.05 -0.00400411 -1.813 0
M  V30 22045 C 1989.1 -3.43785 -1.08832 0
M  V30 22046 O 1988.2 -3.4862 -2.20313 0
M  V30 22047 H 1987.55 -0.652102 -0.125133 0
M  V30 22048 H 1990.08 -2.03119 0.245769 0
M  V30 22049 H 1990.09 -3.82618 -1.41659 0
M  V30 22050 H 1988.76 -4.14744 -0.309923 0
M  V30 22051 H 1987.34 -3.2163 -1.88702 0
M  V30 22052 N 1989.52 0.125209 -1.57102 0
M  V30 22053 C 1990.45 1.15521 -2.02922 0
M  V30 22054 C 1991.43 1.43549 -0.912559 0
M  V30 22055 O 1992.62 1.54097 -1.18185 0
M  V30 22056 C 1989.75 2.48297 -2.42829 0
M  V30 22057 C 1988.7 2.34744 -3.57881 0
M  V30 22058 C 1988.03 3.72427 -3.83669 0
M  V30 22059 C 1989.33 1.81317 -4.89818 0
M  V30 22060 H 1991.02 0.774129 -2.89219 0
M  V30 22061 H 1988.57 0.370935 -1.3914 0
M  V30 22062 H 1990.52 3.20597 -2.73487 0
M  V30 22063 H 1989.25 2.88283 -1.53495 0
M  V30 22064 H 1987.9 1.64893 -3.27423 0
M  V30 22065 H 1987.55 4.09887 -2.9155 0
M  V30 22066 H 1987.25 3.64215 -4.61109 0
M  V30 22067 H 1988.78 4.46242 -4.16773 0
M  V30 22068 H 1990.19 2.43429 -5.19052 0
M  V30 22069 H 1988.59 1.83941 -5.71214 0
M  V30 22070 H 1989.66 0.770291 -4.78743 0
M  V30 22071 N 1991 1.52564 0.395213 0
M  V30 22072 C 1992.23 1.71173 1.16222 0
M  V30 22073 C 1992.64 0.427335 1.839 0
M  V30 22074 O 1992 -0.597726 1.72434 0
M  V30 22075 C 1992.05 2.85698 2.21492 0
M  V30 22076 O 1991.77 4.09165 1.56574 0
M  V30 22077 C 1993.27 3.15934 3.10967 0
M  V30 22078 H 1990.49 0.573277 0.348705 0
M  V30 22079 H 1993.04 1.99186 0.463177 0
M  V30 22080 H 1991.19 2.60165 2.87042 0
M  V30 22081 H 1991.61 4.73086 2.26473 0
M  V30 22082 H 1993.08 3.99548 3.80874 0
M  V30 22083 H 1993.56 2.30059 3.74125 0
M  V30 22084 H 1994.16 3.43284 2.5107 0
M  V30 22085 N 1992.48 -0.653289 1.43422 0
M  V30 22086 C 1993.43 -1.76618 1.48576 0
M  V30 22087 C 1994.4 -1.62677 0.335486 0
M  V30 22088 O 1995.58 -1.82921 0.54263 0
M  V30 22089 C 1992.72 -3.14772 1.41467 0
M  V30 22090 C 1991.83 -3.39847 2.66698 0
M  V30 22091 C 1990.97 -4.67848 2.51578 0
M  V30 22092 C 1990.01 -4.86029 3.72078 0
M  V30 22093 N 1989.14 -6.05287 3.55769 0
M  V30 22094 H 1993.98 -1.71549 2.4367 0
M  V30 22095 H 1991.52 -0.837156 1.20955 0
M  V30 22096 H 1993.48 -3.94638 1.3534 0
M  V30 22097 H 1992.11 -3.18911 0.499543 0
M  V30 22098 H 1991.16 -2.54079 2.83104 0
M  V30 22099 H 1992.47 -3.49168 3.56207 0
M  V30 22100 H 1991.63 -5.55841 2.43158 0
M  V30 22101 H 1990.37 -4.60848 1.59593 0
M  V30 22102 H 1989.37 -3.96472 3.80907 0
M  V30 22103 H 1990.6 -4.94859 4.65072 0
M  V30 22104 H 1988.54 -5.9942 2.66519 0
M  V30 22105 H 1988.46 -6.15565 4.3888 0
M  V30 22106 H 1989.73 -6.95901 3.51201 0
M  V30 22107 N 1993.96 -1.29952 -0.891648 0
M  V30 22108 C 1994.87 -1.17673 -2.02954 0
M  V30 22109 C 1995.88 -0.0981428 -1.73723 0
M  V30 22110 O 1997.06 -0.311785 -1.98972 0
M  V30 22111 C 1994.12 -0.862565 -3.35799 0
M  V30 22112 C 1993.18 -2.02583 -3.78495 0
M  V30 22113 C 1992.42 -1.72656 -5.05001 0
M  V30 22114 O 1992.64 -0.651307 -5.66669 0
M  V30 22115 O 1991.57 -2.57698 -5.43944 0
M  V30 22116 H 1995.4 -2.13248 -2.16239 0
M  V30 22117 H 1992.99 -1.09481 -1.01658 0
M  V30 22118 H 1994.87 -0.702274 -4.15507 0
M  V30 22119 H 1993.54 0.0633315 -3.23638 0
M  V30 22120 H 1992.45 -2.2414 -2.99519 0
M  V30 22121 H 1993.78 -2.93321 -3.95251 0
M  V30 22122 N 1995.44 1.1031 -1.12559 0
M  V30 22123 C 1996.85 1.34325 -0.861911 0
M  V30 22124 C 1997.05 1.95009 0.507319 0
M  V30 22125 O 1996.11 2.1906 1.25574 0
M  V30 22126 C 1997.42 2.26367 -1.97935 0
M  V30 22127 C 1998.97 2.39901 -2.01039 0
M  V30 22128 C 1999.44 3.35273 -3.1202 0
M  V30 22129 N 2000.93 3.42841 -3.11471 0
M  V30 22130 C 2001.67 4.16611 -3.93983 0
M  V30 22131 N 2001.17 4.93256 -4.86488 0
M  V30 22132 N 2002.96 4.12243 -3.82116 0
M  V30 22133 H 1995.11 0.692899 -2.0078 0
M  V30 22134 H 1997.37 0.367689 -0.87379 0
M  V30 22135 H 1997.08 1.8899 -2.96607 0
M  V30 22136 H 1996.95 3.26685 -1.88565 0
M  V30 22137 H 1999.34 2.76546 -1.02986 0
M  V30 22138 H 1999.42 1.39393 -2.14484 0
M  V30 22139 H 1999.06 2.99352 -4.10306 0
M  V30 22140 H 1998.99 4.35663 -2.95813 0
M  V30 22141 H 2001.49 2.88182 -2.44457 0
M  V30 22142 H 2001.8 5.46948 -5.45956 0
M  V30 22143 H 2000.14 4.92376 -4.90501 0
M  V30 22144 H 2003.33 3.5146 -3.09182 0
M  V30 22145 H 2003.51 4.69475 -4.46651 0
M  V30 22146 N 1996.91 0.917694 1.28125 0
M  V30 22147 C 1998.19 0.471682 1.89828 0
M  V30 22148 C 1998.57 -1.04974 1.83149 0
M  V30 22149 O 1997.92 -1.89953 1.27004 0
M  V30 22150 C 1998.13 1.00649 3.34172 0
M  V30 22151 C 1999.48 1.06095 4.11131 0
M  V30 22152 O 2000.5 0.955405 3.43148 0
M  V30 22153 O 1999.36 1.22219 5.32658 0
M  V30 22154 H 1996.45 0.150129 0.813259 0
M  V30 22155 H 1999 1.00873 1.36465 0
M  V30 22156 H 1997.77 2.05043 3.33276 0
M  V30 22157 H 1997.39 0.450491 3.9504 0
M  V30 22158 N 1998.39 -1.42074 0.682102 0
M  V30 22159 C 1999.34 -2.326 -0.00324978 0
M  V30 22160 C 2000.33 -1.50226 -0.782851 0
M  V30 22161 O 2001.54 -1.6625 -0.689991 0
M  V30 22162 H 1997.91 -0.751738 -0.0198484 0
M  V30 22163 H 1999.89 -2.88093 0.777513 0
M  V30 22164 C 1998.63 -3.3488 -0.935455 0
M  V30 22165 H 1997.96 -3.98309 -0.344986 0
M  V30 22166 H 1999.4 -4.00791 -1.38355 0
M  V30 22167 C 1997.86 -2.67711 -2.0453 0
M  V30 22168 O 1998.39 -2.5146 -3.13258 0
M  V30 22169 N 1996.59 -2.2662 -1.81912 0
M  V30 22170 H 1996.14 -2.40037 -0.934876 0
M  V30 22171 H 1996.1 -1.82011 -2.56358 0
M  V30 22172 N 1999.87 -0.425924 -1.51735 0
M  V30 22173 C 2000.8 0.382011 -2.30354 0
M  V30 22174 C 2001.78 1.03124 -1.35276 0
M  V30 22175 O 2002.97 1.03705 -1.64191 0
M  V30 22176 C 2000.1 1.48978 -3.13724 0
M  V30 22177 C 1999.05 0.964659 -4.16987 0
M  V30 22178 C 1998.38 2.1673 -4.88807 0
M  V30 22179 C 1999.68 0.00700314 -5.223 0
M  V30 22180 H 2001.37 -0.274043 -2.98143 0
M  V30 22181 H 1998.92 -0.133238 -1.43382 0
M  V30 22182 H 2000.87 2.06211 -3.67498 0
M  V30 22183 H 1999.59 2.17396 -2.43735 0
M  V30 22184 H 1998.25 0.414618 -3.64248 0
M  V30 22185 H 1997.9 2.83741 -4.15331 0
M  V30 22186 H 1997.6 1.82239 -5.58626 0
M  V30 22187 H 1999.12 2.74538 -5.454 0
M  V30 22188 H 2000.54 0.488665 -5.71214 0
M  V30 22189 H 1998.93 -0.249924 -5.99579 0
M  V30 22190 H 2000 -0.933195 -4.75836 0
M  V30 22191 N 2001.35 1.56817 -0.156891 0
M  V30 22192 C 2002.29 2.17256 0.779004 0
M  V30 22193 C 2003.26 1.1083 1.23717 0
M  V30 22194 O 2004.45 1.38917 1.30793 0
M  V30 22195 C 2001.59 2.80612 2.00876 0
M  V30 22196 C 2000.7 4.01457 1.59549 0
M  V30 22197 C 1999.84 4.52782 2.7778 0
M  V30 22198 C 1998.88 5.66071 2.32874 0
M  V30 22199 N 1998.01 6.11969 3.44148 0
M  V30 22200 H 2002.85 2.96891 0.256809 0
M  V30 22201 H 2000.39 1.46649 0.115039 0
M  V30 22202 H 2002.35 3.15494 2.72983 0
M  V30 22203 H 2000.98 2.03604 2.5049 0
M  V30 22204 H 2000.03 3.7249 0.771705 0
M  V30 22205 H 2001.34 4.83505 1.22576 0
M  V30 22206 H 2000.5 4.89771 3.58064 0
M  V30 22207 H 1999.24 3.69763 3.18005 0
M  V30 22208 H 1998.24 5.28648 1.51034 0
M  V30 22209 H 1999.47 6.50882 1.93724 0
M  V30 22210 H 1997.41 5.31883 3.83975 0
M  V30 22211 H 1997.33 6.88968 3.11222 0
M  V30 22212 H 1998.6 6.53605 4.24759 0
M  V30 22213 N 2002.83 -0.116876 1.57166 0
M  V30 22214 C 2004.05 -0.838417 1.89151 0
M  V30 22215 C 2004.47 -1.73335 0.748361 0
M  V30 22216 O 2003.83 -1.80328 -0.280719 0
M  V30 22217 C 2003.88 -1.67006 3.20611 0
M  V30 22218 O 2003.6 -0.811158 4.30525 0
M  V30 22219 C 2005.1 -2.49657 3.66314 0
M  V30 22220 H 2002.32 -0.240909 0.626262 0
M  V30 22221 H 2004.86 -0.100631 2.04252 0
M  V30 22222 H 2003.02 -2.36058 3.07173 0
M  V30 22223 H 2003.43 -1.38499 5.05884 0
M  V30 22224 H 2004.91 -3.03537 4.61052 0
M  V30 22225 H 2005.38 -3.27114 2.93075 0
M  V30 22226 H 2005.99 -1.85844 3.82547 0
M  V30 22227 N 2004.3 -1.52772 -0.387116 0
M  V30 22228 C 2005.55 -1.67131 -1.12916 0
M  V30 22229 C 2005.87 -0.418501 -1.9107 0
M  V30 22230 O 2007.07 -0.442261 -2.67874 0
M  V30 22231 C 2005.53 -2.95368 -2.05635 0
M  V30 22232 C 2005.14 -4.27835 -1.32895 0
M  V30 22233 C 2006.88 -3.19093 -2.79964 0
M  V30 22234 C 2004.79 -5.47177 -2.2439 0
M  V30 22235 H 2003.72 -0.622655 -0.425225 0
M  V30 22236 H 2006.37 -1.79268 -0.391801 0
M  V30 22237 H 2004.75 -2.76981 -2.83015 0
M  V30 22238 H 2005.92 -4.56781 -0.607276 0
M  V30 22239 H 2004.24 -4.10385 -0.705181 0
M  V30 22240 H 2006.84 -4.05436 -3.48605 0
M  V30 22241 H 2007.18 -2.34244 -3.44145 0
M  V30 22242 H 2007.71 -3.38054 -2.09676 0
M  V30 22243 H 2004.45 -6.3444 -1.64822 0
M  V30 22244 H 2003.97 -5.22541 -2.94468 0
M  V30 22245 H 2005.65 -5.81126 -2.84432 0
M  V30 22246 N 2005.78 0.645673 -1.43767 0
M  V30 22247 C 2006.73 1.75828 -1.4951 0
M  V30 22248 C 2007.7 1.62496 -0.344109 0
M  V30 22249 O 2008.88 1.82631 -0.552323 0
M  V30 22250 C 2006.02 3.14017 -1.43134 0
M  V30 22251 C 2005.14 3.38428 -2.68496 0
M  V30 22252 C 2004.27 4.66507 -2.54056 0
M  V30 22253 C 2003.31 4.84049 -3.74651 0
M  V30 22254 N 2002.45 6.03392 -3.58974 0
M  V30 22255 H 2007.29 1.70254 -2.44576 0
M  V30 22256 H 2004.82 0.830729 -1.21397 0
M  V30 22257 H 2006.78 3.93915 -1.37431 0
M  V30 22258 H 2005.41 3.18642 -0.516449 0
M  V30 22259 H 2004.46 2.52574 -2.84448 0
M  V30 22260 H 2005.78 3.47274 -3.58054 0
M  V30 22261 H 2004.93 5.54543 -2.46103 0
M  V30 22262 H 2003.67 4.59996 -1.62035 0
M  V30 22263 H 2002.67 3.94447 -3.83004 0
M  V30 22264 H 2003.9 4.92385 -4.67689 0
M  V30 22265 H 2001.85 5.97998 -2.69694 0
M  V30 22266 H 2001.76 6.13229 -4.42138 0
M  V30 22267 H 2003.03 6.94029 -3.54887 0
M  V30 22268 N 2007.26 1.30423 0.884744 0
M  V30 22269 C 2008.17 1.18747 2.02327 0
M  V30 22270 C 2009.19 0.107354 1.73669 0
M  V30 22271 O 2010.36 0.322332 1.98804 0
M  V30 22272 C 2007.43 0.880361 3.35336 0
M  V30 22273 C 2006.49 2.04587 3.77416 0
M  V30 22274 C 2005.72 1.75332 5.04078 0
M  V30 22275 O 2005.94 0.68135 5.66316 0
M  V30 22276 O 2004.88 2.60579 5.4257 0
M  V30 22277 H 2008.7 2.14391 2.15105 0
M  V30 22278 H 2006.29 1.10019 1.01076 0
M  V30 22279 H 2008.17 0.7243 4.15129 0
M  V30 22280 H 2006.85 -0.0461673 3.23667 0
M  V30 22281 H 2005.75 2.25726 2.98326 0
M  V30 22282 H 2007.09 2.95413 3.9369 0
M  V30 22283 N 2008.74 -1.09711 1.13142 0
M  V30 22284 C 2009.7 -2.14443 0.809114 0
M  V30 22285 C 2010.7 -1.59789 -0.18005 0
M  V30 22286 O 2011.89 -1.74137 0.0466686 0
M  V30 22287 C 2009.02 -3.40291 0.203714 0
M  V30 22288 H 2010.22 -2.44466 1.73713 0
M  V30 22289 H 2007.77 -1.252 0.935663 0
M  V30 22290 H 2008.5 -3.15892 -0.733667 0
M  V30 22291 H 2008.29 -3.8125 0.916003 0
M  V30 22292 H 2009.78 -4.176 -0.00503851 0
M  V30 22293 N 2010.22 -0.924476 -1.27637 0
M  V30 22294 C 2011.15 -0.438348 -2.29349 0
M  V30 22295 C 2012.13 0.499673 -1.62595 0
M  V30 22296 O 2013.31 0.405114 -1.89928 0
M  V30 22297 C 2010.44 0.312668 -3.4589 0
M  V30 22298 C 2009.4 -0.537216 -4.24615 0
M  V30 22299 C 2008.72 0.342776 -5.336 0
M  V30 22300 C 2010.02 -1.80003 -4.90302 0
M  V30 22301 H 2011.72 -1.28838 -2.70261 0
M  V30 22302 H 2009.26 -0.620964 -1.29923 0
M  V30 22303 H 2011.22 0.66367 -4.16141 0
M  V30 22304 H 2009.94 1.1967 -3.03886 0
M  V30 22305 H 2008.6 -0.870883 -3.56106 0
M  V30 22306 H 2008.25 1.22567 -4.87838 0
M  V30 22307 H 2007.95 -0.222352 -5.87179 0
M  V30 22308 H 2009.47 0.689422 -6.06695 0
M  V30 22309 H 2010.88 -1.51729 -5.52857 0
M  V30 22310 H 2009.28 -2.3084 -5.53925 0
M  V30 22311 H 2010.35 -2.52148 -4.14186 0
M  V30 22312 N 2011.69 1.41711 -0.689627 0
M  V30 22313 C 2012.6 2.34591 -0.0208935 0
M  V30 22314 C 2013.62 1.55906 0.772616 0
M  V30 22315 O 2014.8 1.88412 0.711542 0
M  V30 22316 C 2011.86 3.34589 0.908354 0
M  V30 22317 C 2010.92 4.29165 0.107717 0
M  V30 22318 C 2010.16 5.24386 0.992705 0
M  V30 22319 O 2010.38 5.24907 2.23224 0
M  V30 22320 O 2009.31 6.00249 0.445563 0
M  V30 22321 H 2013.14 2.93343 -0.786347 0
M  V30 22322 H 2010.72 1.42464 -0.449929 0
M  V30 22323 H 2012.61 3.95982 1.44138 0
M  V30 22324 H 2011.28 2.78288 1.6534 0
M  V30 22325 H 2010.19 3.71139 -0.469771 0
M  V30 22326 H 2011.52 4.88547 -0.598537 0
M  V30 22327 N 2013.17 0.433965 1.51507 0
M  V30 22328 C 2014.42 -0.133827 2.02358 0
M  V30 22329 C 2014.75 -1.42654 1.3177 0
M  V30 22330 O 2014.03 -1.89651 0.431588 0
M  V30 22331 C 2014.31 -0.356052 3.58335 0
M  V30 22332 C 2014.16 0.955077 4.39543 0
M  V30 22333 C 2015.48 -1.12732 4.25417 0
M  V30 22334 H 2012.6 -0.0471634 0.735489 0
M  V30 22335 H 2015.24 0.572301 1.81176 0
M  V30 22336 H 2013.39 -0.957541 3.76515 0
M  V30 22337 H 2015.06 1.59029 4.33021 0
M  V30 22338 H 2013.31 1.56044 4.04762 0
M  V30 22339 H 2013.98 0.753671 5.46831 0
M  V30 22340 H 2016.45 -0.617852 4.11487 0
M  V30 22341 H 2015.33 -1.25157 5.34441 0
M  V30 22342 H 2015.59 -2.15452 3.86048 0
M  V30 22343 N 2014.65 -1.56732 0.165206 0
M  V30 22344 C 2015.6 -2.17666 -0.767471 0
M  V30 22345 C 2016.57 -1.11485 -1.23127 0
M  V30 22346 O 2017.75 -1.39609 -1.30054 0
M  V30 22347 C 2014.89 -2.81673 -1.99385 0
M  V30 22348 C 2014.01 -4.02298 -1.57418 0
M  V30 22349 C 2013.14 -4.54249 -2.75375 0
M  V30 22350 C 2012.18 -5.67298 -2.29869 0
M  V30 22351 N 2011.32 -6.13786 -3.40898 0
M  V30 22352 H 2016.16 -2.97023 -0.24106 0
M  V30 22353 H 2013.69 -1.46708 -0.10726 0
M  V30 22354 H 2015.65 -3.16937 -2.71306 0
M  V30 22355 H 2014.28 -2.0493 -2.49407 0
M  V30 22356 H 2013.33 -3.72894 -0.75194 0
M  V30 22357 H 2014.65 -4.84148 -1.2001 0
M  V30 22358 H 2013.8 -4.91663 -3.55461 0
M  V30 22359 H 2012.54 -3.71444 -3.16039 0
M  V30 22360 H 2011.54 -5.29442 -1.48228 0
M  V30 22361 H 2012.77 -6.519 -1.9027 0
M  V30 22362 H 2010.71 -5.33911 -3.81149 0
M  V30 22363 H 2010.63 -6.90609 -3.07563 0
M  V30 22364 H 2011.9 -6.55849 -4.21287 0
M  V30 22365 N 2016.13 0.10854 -1.57226 0
M  V30 22366 C 2017.08 1.13867 -1.97531 0
M  V30 22367 C 2018.06 1.36505 -0.851775 0
M  V30 22368 O 2019.25 1.37422 -1.11554 0
M  V30 22369 C 2016.38 2.4625 -2.39198 0
M  V30 22370 C 2015.47 2.27043 -3.58207 0
M  V30 22371 N 2015.86 1.77671 -4.73568 0
M  V30 22372 C 2014.16 2.5766 -3.64043 0
M  V30 22373 C 2014.86 1.72418 -5.5556 0
M  V30 22374 N 2013.84 2.17145 -4.98346 0
M  V30 22375 H 2017.64 0.749664 -2.84178 0
M  V30 22376 H 2015.15 0.31615 -1.59293 0
M  V30 22377 H 2017.15 3.20769 -2.66295 0
M  V30 22378 H 2015.81 2.859 -1.5392 0
M  V30 22379 H 2016.82 1.47065 -4.96581 0
M  V30 22380 H 2013.5 3.00925 -2.89397 0
M  V30 22381 H 2014.89 1.35411 -6.58113 0
M  V30 22382 N 2017.61 1.52975 0.379009 0
M  V30 22383 C 2018.88 1.59096 1.13789 0
M  V30 22384 C 2019.26 0.390236 2.07462 0
M  V30 22385 O 2018.61 -0.620644 2.1991 0
M  V30 22386 C 2018.82 2.93471 1.8888 0
M  V30 22387 C 2020.17 3.47567 2.43889 0
M  V30 22388 O 2021.19 2.95411 1.99024 0
M  V30 22389 O 2020.05 4.38714 3.25871 0
M  V30 22390 H 2017.15 0.64208 0.521213 0
M  V30 22391 H 2019.69 1.65313 0.383355 0
M  V30 22392 H 2018.46 3.72304 1.20438 0
M  V30 22393 H 2018.09 2.90684 2.71272 0
M  V30 22394 N 2019.08 -0.63804 1.44107 0
M  V30 22395 C 2020.02 -1.76333 1.46421 0
M  V30 22396 C 2021.03 -1.58805 0.358429 0
M  V30 22397 O 2022.22 -1.67246 0.623768 0
M  V30 22398 C 2019.32 -3.13967 1.27586 0
M  V30 22399 C 2018.49 -3.58016 2.51283 0
M  V30 22400 C 2017.55 -4.74503 2.27449 0
M  V30 22401 O 2016.58 -4.83167 3.00895 0
M  V30 22402 N 2017.78 -5.6574 1.3007 0
M  V30 22403 H 2020.54 -1.74822 2.43429 0
M  V30 22404 H 2018.1 -0.822384 1.39458 0
M  V30 22405 H 2020.1 -3.89605 1.09499 0
M  V30 22406 H 2018.67 -3.10162 0.389684 0
M  V30 22407 H 2017.89 -2.7266 2.84693 0
M  V30 22408 H 2019.17 -3.84197 3.33572 0
M  V30 22409 H 2018.57 -5.61427 0.693968 0
M  V30 22410 H 2017.13 -6.41037 1.17964 0
M  V30 22411 N 2020.56 -1.3089 -0.877815 0
M  V30 22412 C 2021.49 -1.20459 -2.0003 0
M  V30 22413 C 2022.47 -0.0935765 -1.69842 0
M  V30 22414 O 2023.66 -0.276838 -1.92217 0
M  V30 22415 C 2020.79 -0.903041 -3.35354 0
M  V30 22416 C 2019.74 -1.97277 -3.79823 0
M  V30 22417 C 2019.07 -1.52407 -5.12519 0
M  V30 22418 C 2020.37 -3.38484 -3.97776 0
M  V30 22419 H 2022.06 -2.14367 -2.09014 0
M  V30 22420 H 2019.61 -1.03203 -1.00425 0
M  V30 22421 H 2021.56 -0.816699 -4.1341 0
M  V30 22422 H 2020.29 0.0717143 -3.26521 0
M  V30 22423 H 2018.94 -2.04887 -3.04001 0
M  V30 22424 H 2018.59 -0.537386 -5.00121 0
M  V30 22425 H 2018.29 -2.23964 -5.43244 0
M  V30 22426 H 2019.82 -1.45165 -5.93093 0
M  V30 22427 H 2021.23 -3.33593 -4.6625 0
M  V30 22428 H 2019.63 -4.0819 -4.39887 0
M  V30 22429 H 2020.7 -3.79847 -3.01403 0
M  V30 22430 N 2022.04 1.0911 -1.13723 0
M  V30 22431 C 2022.99 2.15834 -0.817576 0
M  V30 22432 C 2023.96 1.64613 0.221749 0
M  V30 22433 O 2025.14 1.90572 0.0932703 0
M  V30 22434 C 2022.28 3.43851 -0.293315 0
M  V30 22435 C 2021.4 4.08956 -1.39208 0
M  V30 22436 C 2020.53 5.24741 -0.825823 0
M  V30 22437 C 2019.57 5.81774 -1.90277 0
M  V30 22438 N 2018.71 6.88916 -1.35421 0
M  V30 22439 H 2023.55 2.42519 -1.73172 0
M  V30 22440 H 2021.08 1.19026 -0.864368 0
M  V30 22441 H 2023.04 4.1719 0.0288002 0
M  V30 22442 H 2021.67 3.17474 0.583951 0
M  V30 22443 H 2020.72 3.33449 -1.83073 0
M  V30 22444 H 2022.04 4.47372 -2.2059 0
M  V30 22445 H 2021.19 6.0499 -0.455184 0
M  V30 22446 H 2019.93 4.87696 0.0190362 0
M  V30 22447 H 2018.93 5.00185 -2.28244 0
M  V30 22448 H 2020.16 6.2088 -2.75109 0
M  V30 22449 H 2018.1 6.53844 -0.531412 0
M  V30 22450 H 2018.02 7.26118 -2.10448 0
M  V30 22451 H 2019.29 7.72913 -1.01125 0
M  V30 22452 N 2023.52 0.931232 1.27145 0
M  V30 22453 C 2024.43 0.438807 2.3046 0
M  V30 22454 C 2025.44 -0.482275 1.67183 0
M  V30 22455 O 2026.62 -0.364225 1.98079 0
M  V30 22456 C 2023.69 -0.297266 3.45423 0
M  V30 22457 C 2022.75 0.659161 4.24209 0
M  V30 22458 C 2021.98 -0.0418787 5.33684 0
M  V30 22459 O 2022.2 -1.26062 5.56295 0
M  V30 22460 O 2021.14 0.631751 5.98575 0
M  V30 22461 H 2024.96 1.29675 2.74624 0
M  V30 22462 H 2022.55 0.696718 1.3216 0
M  V30 22463 H 2024.43 -0.712299 4.15336 0
M  V30 22464 H 2023.1 -1.13075 3.03308 0
M  V30 22465 H 2022.01 1.12394 3.56817 0
M  V30 22466 H 2023.34 1.45997 4.70049 0
M  V30 22467 N 2025 -1.41343 0.697132 0
M  V30 22468 C 2025.95 -2.27998 0.00959736 0
M  V30 22469 C 2026.93 -1.42285 -0.751254 0
M  V30 22470 O 2028.12 -1.65542 -0.626491 0
M  V30 22471 C 2025.25 -3.30606 -0.924919 0
M  V30 22472 C 2024.34 -4.23797 -0.160232 0
M  V30 22473 N 2024.73 -4.98661 0.846797 0
M  V30 22474 C 2023.03 -4.44243 -0.395486 0
M  V30 22475 C 2023.73 -5.6688 1.30467 0
M  V30 22476 N 2022.7 -5.39934 0.630293 0
M  V30 22477 H 2026.51 -2.83314 0.781684 0
M  V30 22478 H 2024.02 -1.53574 0.528104 0
M  V30 22479 H 2026.02 -3.91511 -1.43264 0
M  V30 22480 H 2024.68 -2.7685 -1.69659 0
M  V30 22481 H 2025.69 -5.03153 1.22708 0
M  V30 22482 H 2022.37 -4.01495 -1.14492 0
M  V30 22483 H 2023.76 -6.36896 2.1404 0
M  V30 22484 N 2026.48 -0.441993 -1.51275 0
M  V30 22485 C 2027.72 0.124439 -2.01316 0
M  V30 22486 C 2028.04 1.43376 -1.33051 0
M  V30 22487 O 2029.24 2.08342 -1.74086 0
M  V30 22488 C 2027.7 0.272307 -3.58868 0
M  V30 22489 C 2027.31 -1.02686 -4.36073 0
M  V30 22490 C 2029.05 0.792259 -4.17041 0
M  V30 22491 C 2026.96 -0.844378 -5.85341 0
M  V30 22492 H 2025.89 0.0502803 -0.752322 0
M  V30 22493 H 2028.54 -0.572465 -1.74342 0
M  V30 22494 H 2026.92 1.03232 -3.82308 0
M  V30 22495 H 2028.1 -1.79557 -4.24377 0
M  V30 22496 H 2026.41 -1.4757 -3.89374 0
M  V30 22497 H 2029.01 0.94535 -5.26277 0
M  V30 22498 H 2029.35 1.77595 -3.76518 0
M  V30 22499 H 2029.88 0.0904292 -3.97697 0
M  V30 22500 H 2026.62 -1.80058 -6.30285 0
M  V30 22501 H 2026.14 -0.115549 -5.99689 0
M  V30 22502 H 2027.82 -0.499412 -6.4507 0
M  V30 22503 N 2027.95 1.56642 -0.173515 0
M  V30 22504 C 2029.37 1.58552 0.182625 0
M  V30 22505 C 2029.57 1.18895 1.62685 0
M  V30 22506 O 2028.63 0.901576 2.35856 0
M  V30 22507 C 2029.94 3.00533 -0.100181 0
M  V30 22508 C 2031.49 3.12976 -0.038567 0
M  V30 22509 C 2031.96 4.57053 -0.294392 0
M  V30 22510 N 2033.45 4.62566 -0.242245 0
M  V30 22511 C 2034.19 5.71901 -0.414333 0
M  V30 22512 N 2033.68 6.89785 -0.645597 0
M  V30 22513 N 2035.48 5.61009 -0.350085 0
M  V30 22514 H 2027.63 1.80706 -1.1162 0
M  V30 22515 H 2029.89 0.837643 -0.443912 0
M  V30 22516 H 2029.6 3.34031 -1.10073 0
M  V30 22517 H 2029.47 3.72281 0.607196 0
M  V30 22518 H 2031.86 2.79303 0.952559 0
M  V30 22519 H 2031.94 2.4366 -0.778688 0
M  V30 22520 H 2031.58 4.91435 -1.28274 0
M  V30 22521 H 2031.51 5.24531 0.466366 0
M  V30 22522 H 2034 3.77837 -0.0692351 0
M  V30 22523 H 2034.32 7.68991 -0.766299 0
M  V30 22524 H 2032.66 6.91643 -0.682238 0
M  V30 22525 H 2035.85 4.67791 -0.169986 0
M  V30 22526 H 2036.03 6.46163 -0.487625 0
M  V30 22527 N 2029.43 -0.1002 1.57281 0
M  V30 22528 C 2030.34 -1.14039 2.05018 0
M  V30 22529 C 2031.36 -1.44178 0.974096 0
M  V30 22530 O 2032.53 -1.54921 1.28691 0
M  V30 22531 C 2029.6 -2.44226 2.46078 0
M  V30 22532 C 2028.66 -2.21315 3.67856 0
M  V30 22533 C 2027.89 -3.45295 4.06948 0
M  V30 22534 O 2028.12 -4.53334 3.46185 0
M  V30 22535 O 2027.05 -3.35185 4.99935 0
M  V30 22536 H 2030.88 -0.764957 2.93908 0
M  V30 22537 H 2028.46 -0.312347 1.46098 0
M  V30 22538 H 2030.34 -3.20895 2.73138 0
M  V30 22539 H 2029.02 -2.81206 1.60327 0
M  V30 22540 H 2027.92 -1.42444 3.4592 0
M  V30 22541 H 2029.26 -1.89231 4.54371 0
M  V30 22542 N 2030.91 -1.53174 -0.370891 0
M  V30 22543 C 2032.14 -1.73 -1.13484 0
M  V30 22544 C 2032.55 -0.456538 -1.83197 0
M  V30 22545 O 2031.91 0.570218 -1.73363 0
M  V30 22546 C 2031.96 -2.89186 -2.16919 0
M  V30 22547 O 2031.68 -4.11604 -1.50045 0
M  V30 22548 C 2033.18 -3.20841 -3.05901 0
M  V30 22549 H 2030.4 -0.578752 -0.33954 0
M  V30 22550 H 2032.95 -1.99897 -0.43143 0
M  V30 22551 H 2031.1 -2.64699 -2.82866 0
M  V30 22552 H 2031.52 -4.76629 -2.18918 0
M  V30 22553 H 2032.99 -4.05557 -3.7447 0
M  V30 22554 H 2033.47 -2.35982 -3.70418 0
M  V30 22555 H 2034.07 -3.47235 -2.45577 0
M  V30 22556 N 2032.39 0.630389 -1.44443 0
M  V30 22557 C 2033.32 1.75348 -1.54192 0
M  V30 22558 C 2034.3 1.65453 -0.394887 0
M  V30 22559 O 2035.48 1.84201 -0.615103 0
M  V30 22560 C 2032.61 3.13881 -1.48647 0
M  V30 22561 C 2031.57 3.38566 -2.61835 0
M  V30 22562 C 2030.89 4.77136 -2.41341 0
M  V30 22563 C 2032.19 3.31055 -4.0398 0
M  V30 22564 H 2033.89 1.67446 -2.48198 0
M  V30 22565 H 2031.43 0.804159 -1.19454 0
M  V30 22566 H 2033.39 3.92226 -1.54068 0
M  V30 22567 H 2032.11 3.22568 -0.511585 0
M  V30 22568 H 2030.77 2.62602 -2.55805 0
M  V30 22569 H 2030.42 4.82527 -1.42043 0
M  V30 22570 H 2030.12 4.9461 -3.1723 0
M  V30 22571 H 2031.64 5.57709 -2.48581 0
M  V30 22572 H 2033.06 3.99304 -4.11375 0
M  V30 22573 H 2031.45 3.60064 -4.80077 0
M  V30 22574 H 2032.52 2.28852 -4.27498 0
M  V30 22575 N 2033.87 1.31354 0.870861 0
M  V30 22576 C 2034.83 1.18889 1.95954 0
M  V30 22577 C 2035.83 0.116227 1.60379 0
M  V30 22578 O 2037.02 0.365426 1.70324 0
M  V30 22579 C 2034.15 0.824704 3.30774 0
M  V30 22580 H 2035.34 2.15624 2.08438 0
M  V30 22581 H 2032.9 1.14952 1.05904 0
M  V30 22582 H 2033.63 -0.141533 3.23991 0
M  V30 22583 H 2033.42 1.60006 3.57967 0
M  V30 22584 H 2034.91 0.761361 4.10601 0
M  V30 22585 N 2035.34 -1.08505 1.143 0
M  V30 22586 C 2036.29 -2.15397 0.829011 0
M  V30 22587 C 2037.26 -1.64728 -0.213016 0
M  V30 22588 O 2038.45 -1.90619 -0.0831625 0
M  V30 22589 C 2035.59 -3.43691 0.311546 0
M  V30 22590 C 2034.7 -4.08212 1.41375 0
M  V30 22591 C 2033.83 -5.24296 0.853639 0
M  V30 22592 C 2032.87 -5.80757 1.93359 0
M  V30 22593 N 2032.01 -6.88188 1.39073 0
M  V30 22594 H 2036.85 -2.41597 1.74456 0
M  V30 22595 H 2034.39 -1.18566 0.870668 0
M  V30 22596 H 2036.34 -4.17199 -0.00667521 0
M  V30 22597 H 2034.97 -3.17779 -0.567106 0
M  V30 22598 H 2034.03 -3.32474 1.84839 0
M  V30 22599 H 2035.34 -4.46196 2.2296 0
M  V30 22600 H 2034.49 -6.0474 0.487261 0
M  V30 22601 H 2033.23 -4.877 0.00682778 0
M  V30 22602 H 2032.24 -4.98967 2.30893 0
M  V30 22603 H 2033.46 -6.19412 2.78398 0
M  V30 22604 H 2031.41 -6.53553 0.566079 0
M  V30 22605 H 2031.32 -7.24992 2.14296 0
M  V30 22606 H 2032.59 -7.72366 1.05222 0
M  V30 22607 N 2036.82 -0.937962 -1.26649 0
M  V30 22608 C 2038.07 -0.57958 -1.93194 0
M  V30 22609 C 2038.38 0.88505 -1.74431 0
M  V30 22610 O 2039.59 1.35267 -2.35404 0
M  V30 22611 C 2038.05 -0.985803 -3.46136 0
M  V30 22612 C 2037.65 -2.47182 -3.73637 0
M  V30 22613 C 2039.4 -0.699162 -4.18703 0
M  V30 22614 C 2037.3 -2.81691 -5.20004 0
M  V30 22615 H 2036.23 -0.213046 -0.723275 0
M  V30 22616 H 2038.89 -1.14017 -1.43779 0
M  V30 22617 H 2037.27 -0.353775 -3.94417 0
M  V30 22618 H 2038.44 -3.15263 -3.36075 0
M  V30 22619 H 2036.76 -2.73143 -3.14296 0
M  V30 22620 H 2039.35 -0.933359 -5.26491 0
M  V30 22621 H 2039.7 0.363979 -4.14706 0
M  V30 22622 H 2040.23 -1.29076 -3.76277 0
M  V30 22623 H 2036.97 -3.86955 -5.29099 0
M  V30 22624 H 2036.49 -2.1827 -5.58675 0
M  V30 22625 H 2038.17 -2.69984 -5.87978 0
M  V30 22626 N 2038.3 1.40971 -0.704618 0
M  V30 22627 C 2039.23 2.29199 -0.00575899 0
M  V30 22628 C 2040.24 1.45259 0.735102 0
M  V30 22629 O 2041.43 1.68666 0.584302 0
M  V30 22630 C 2038.53 3.23311 1.01604 0
M  V30 22631 C 2037.71 4.36053 0.342951 0
M  V30 22632 C 2036.77 5.10679 1.26861 0
M  V30 22633 O 2035.79 5.64136 0.757556 0
M  V30 22634 N 2036.99 5.18997 2.60043 0
M  V30 22635 H 2039.76 2.89818 -0.763264 0
M  V30 22636 H 2037.32 1.52222 -0.551367 0
M  V30 22637 H 2039.31 3.70104 1.63722 0
M  V30 22638 H 2037.88 2.63937 1.675 0
M  V30 22639 H 2037.1 3.91527 -0.458254 0
M  V30 22640 H 2038.39 5.08647 -0.124708 0
M  V30 22641 H 2037.79 4.77029 3.04072 0
M  V30 22642 H 2036.34 5.69336 3.17333 0
M  V30 22643 N 2039.78 0.45001 1.51039 0
M  V30 22644 C 2040.69 -0.360857 2.31808 0
M  V30 22645 C 2041.7 -1.01585 1.41267 0
M  V30 22646 O 2042.88 -1.00845 1.74334 0
M  V30 22647 C 2039.95 -1.44034 3.15365 0
M  V30 22648 C 2039.01 -0.804156 4.21701 0
M  V30 22649 C 2038.24 -1.83221 5.01264 0
M  V30 22650 O 2038.46 -3.05609 4.81622 0
M  V30 22651 O 2037.4 -1.41571 5.85014 0
M  V30 22652 H 2041.22 0.298869 3.02226 0
M  V30 22653 H 2038.81 0.212277 1.47884 0
M  V30 22654 H 2040.69 -2.06611 3.67273 0
M  V30 22655 H 2039.36 -2.08392 2.47698 0
M  V30 22656 H 2038.27 -0.139997 3.73838 0
M  V30 22657 H 2039.6 -0.203865 4.91778 0
M  V30 22658 N 2041.26 -1.56548 0.18182 0
M  V30 22659 C 2042.48 -2.02015 -0.469543 0
M  V30 22660 C 2042.91 -1.06119 -1.55307 0
M  V30 22661 O 2042.26 -0.0424595 -1.8125 0
M  V30 22662 C 2042.31 -3.46016 -1.01515 0
M  V30 22663 O 2041.42 -3.53215 -2.12869 0
M  V30 22664 H 2040.76 -0.65461 -0.111273 0
M  V30 22665 H 2043.29 -2.02552 0.288798 0
M  V30 22666 H 2043.3 -3.85537 -1.33511 0
M  V30 22667 H 2041.97 -4.15308 -0.22188 0
M  V30 22668 H 2040.55 -3.2556 -1.81838 0
M  V30 22669 N 2042.73 0.0918577 -1.57332 0
M  V30 22670 C 2043.67 1.13749 -1.98982 0
M  V30 22671 C 2044.68 1.36133 -0.892834 0
M  V30 22672 O 2045.87 1.34728 -1.17092 0
M  V30 22673 C 2042.97 2.49241 -2.29635 0
M  V30 22674 C 2042.14 2.4709 -3.60923 0
M  V30 22675 C 2041.2 3.64534 -3.79475 0
M  V30 22676 O 2040.23 3.46877 -4.51292 0
M  V30 22677 N 2041.43 4.84137 -3.20299 0
M  V30 22678 H 2044.19 0.78297 -2.89292 0
M  V30 22679 H 2041.75 0.280794 -1.59446 0
M  V30 22680 H 2043.75 3.26417 -2.39236 0
M  V30 22681 H 2042.32 2.76771 -1.45316 0
M  V30 22682 H 2041.54 1.55438 -3.62261 0
M  V30 22683 H 2042.82 2.42733 -4.47167 0
M  V30 22684 H 2042.22 5.01386 -2.6197 0
M  V30 22685 H 2040.78 5.58894 -3.35381 0
M  V30 22686 N 2044.21 1.53368 0.362763 0
M  V30 22687 C 2045.44 1.73906 1.13011 0
M  V30 22688 C 2045.86 0.468163 1.82181 0
M  V30 22689 O 2045.22 -0.577989 1.7184 0
M  V30 22690 C 2045.27 2.9068 2.13395 0
M  V30 22691 O 2044.37 2.59486 3.20532 0
M  V30 22692 H 2043.71 0.577461 0.327772 0
M  V30 22693 H 2046.24 2.00263 0.419026 0
M  V30 22694 H 2046.25 3.16926 2.56948 0
M  V30 22695 H 2044.93 3.82865 1.62442 0
M  V30 22696 H 2043.51 2.44067 2.81932 0
M  V30 22697 N 2045.69 -0.62272 1.44776 0
M  V30 22698 C 2046.64 -1.73427 1.52288 0
M  V30 22699 C 2047.61 -1.61928 0.369917 0
M  V30 22700 O 2048.79 -1.81729 0.581308 0
M  V30 22701 C 2045.93 -3.117 1.48112 0
M  V30 22702 C 2045.05 -3.34114 2.73847 0
M  V30 22703 C 2044.18 -4.62407 2.61445 0
M  V30 22704 C 2043.22 -4.78027 3.82304 0
M  V30 22705 N 2042.36 -5.97605 3.68528 0
M  V30 22706 H 2047.2 -1.66341 2.47254 0
M  V30 22707 H 2044.73 -0.811311 1.22704 0
M  V30 22708 H 2046.69 -3.91678 1.4368 0
M  V30 22709 H 2045.32 -3.1778 0.567076 0
M  V30 22710 H 2044.37 -2.48017 2.8843 0
M  V30 22711 H 2045.69 -3.41533 3.63533 0
M  V30 22712 H 2044.84 -5.50558 2.54894 0
M  V30 22713 H 2043.58 -4.5736 1.69333 0
M  V30 22714 H 2042.58 -3.88303 3.89231 0
M  V30 22715 H 2043.81 -4.84883 4.75464 0
M  V30 22716 H 2041.75 -5.93631 2.79173 0
M  V30 22717 H 2041.67 -6.06118 4.51838 0
M  V30 22718 H 2042.94 -6.88295 3.65883 0
M  V30 22719 N 2047.17 -1.31814 -0.863883 0
M  V30 22720 C 2048.1 -1.15798 -1.97796 0
M  V30 22721 C 2049.11 -0.0954225 -1.6252 0
M  V30 22722 O 2050.3 -0.343504 -1.75164 0
M  V30 22723 C 2047.4 -0.748332 -3.30535 0
M  V30 22724 C 2046.58 -1.89721 -3.94113 0
M  V30 22725 C 2045.63 -1.47262 -5.05174 0
M  V30 22726 O 2044.66 -2.18322 -5.25666 0
M  V30 22727 N 2045.86 -0.363428 -5.79361 0
M  V30 22728 H 2048.63 -2.11761 -2.12079 0
M  V30 22729 H 2046.19 -1.24229 -1.03821 0
M  V30 22730 H 2048.18 -0.446875 -4.02225 0
M  V30 22731 H 2046.75 0.119862 -3.1237 0
M  V30 22732 H 2045.97 -2.36566 -3.15326 0
M  V30 22733 H 2047.26 -2.66657 -4.33326 0
M  V30 22734 H 2046.66 0.228215 -5.65239 0
M  V30 22735 H 2045.21 -0.121534 -6.51687 0
M  V30 22736 N 2048.65 1.07897 -1.14873 0
M  V30 22737 C 2049.56 2.18494 -0.854259 0
M  V30 22738 C 2050.57 1.73194 0.167297 0
M  V30 22739 O 2051.75 2.01399 -0.00544437 0
M  V30 22740 C 2048.81 3.45013 -0.341649 0
M  V30 22741 C 2047.87 4.0491 -1.42641 0
M  V30 22742 C 2047.11 5.2539 -0.938165 0
M  V30 22743 O 2047.33 5.69982 0.218391 0
M  V30 22744 O 2046.26 5.76818 -1.71943 0
M  V30 22745 H 2050.09 2.46164 -1.77867 0
M  V30 22746 H 2047.68 1.1713 -0.927406 0
M  V30 22747 H 2049.56 4.21354 -0.0619573 0
M  V30 22748 H 2048.23 3.18907 0.554969 0
M  V30 22749 H 2047.14 3.30133 -1.75963 0
M  V30 22750 H 2048.47 4.35276 -2.29774 0
M  V30 22751 N 2050.12 0.944665 1.2615 0
M  V30 22752 C 2051.06 0.414303 2.25424 0
M  V30 22753 C 2052.07 -0.464345 1.56037 0
M  V30 22754 O 2053.26 -0.274229 1.76381 0
M  V30 22755 C 2050.36 -0.423331 3.36246 0
M  V30 22756 C 2049.53 0.439977 4.35182 0
M  V30 22757 C 2048.59 -0.337801 5.25115 0
M  V30 22758 O 2047.62 0.260373 5.68604 0
M  V30 22759 N 2048.82 -1.63346 5.57044 0
M  V30 22760 H 2051.58 1.26775 2.71566 0
M  V30 22761 H 2049.14 0.813928 1.39953 0
M  V30 22762 H 2051.14 -0.951131 3.93364 0
M  V30 22763 H 2049.71 -1.17759 2.89571 0
M  V30 22764 H 2048.93 1.14896 3.77084 0
M  V30 22765 H 2050.21 1.02957 4.98274 0
M  V30 22766 H 2049.61 -2.14152 5.23599 0
M  V30 22767 H 2048.17 -2.10743 6.16791 0
M  V30 22768 N 2051.6 -1.40596 0.712085 0
M  V30 22769 C 2052.83 -2.05787 0.258197 0
M  V30 22770 C 2053.25 -1.53289 -1.09015 0
M  V30 22771 O 2052.61 -0.666771 -1.68594 0
M  V30 22772 C 2052.66 -3.59771 0.244357 0
M  V30 22773 O 2051.76 -4.05042 -0.77555 0
M  V30 22774 H 2051.1 -0.652692 0.12202 0
M  V30 22775 H 2053.63 -1.80059 0.971583 0
M  V30 22776 H 2053.64 -4.0792 0.0808437 0
M  V30 22777 H 2052.32 -3.97347 1.22834 0
M  V30 22778 H 2050.9 -3.68361 -0.580045 0
M  V30 22779 N 2053.08 -0.458013 -1.50798 0
M  V30 22780 C 2054.01 0.333063 -2.31112 0
M  V30 22781 C 2054.99 1.00231 -1.37433 0
M  V30 22782 O 2056.18 1.00199 -1.66354 0
M  V30 22783 C 2053.31 1.4229 -3.16814 0
M  V30 22784 C 2052.26 0.875993 -4.1894 0
M  V30 22785 C 2051.59 2.06313 -4.93294 0
M  V30 22786 C 2052.89 -0.103786 -5.22197 0
M  V30 22787 H 2054.58 -0.337222 -2.97495 0
M  V30 22788 H 2052.13 -0.163622 -1.43067 0
M  V30 22789 H 2054.08 1.98369 -3.7179 0
M  V30 22790 H 2052.8 2.12177 -2.48291 0
M  V30 22791 H 2051.46 0.337263 -3.65045 0
M  V30 22792 H 2051.11 2.74868 -4.21256 0
M  V30 22793 H 2050.81 1.70348 -5.62366 0
M  V30 22794 H 2052.33 2.62908 -5.511 0
M  V30 22795 H 2053.75 0.367392 -5.72122 0
M  V30 22796 H 2052.15 -0.377048 -5.98914 0
M  V30 22797 H 2053.22 -1.03392 -4.73749 0
M  V30 22798 N 2054.56 1.56449 -0.190119 0
M  V30 22799 C 2055.51 2.20194 0.749479 0
M  V30 22800 C 2056.5 1.1716 1.22352 0
M  V30 22801 O 2057.71 1.35317 1.18699 0
M  V30 22802 H 2054.08 0.705613 0.260028 0
M  V30 22803 H 2056.05 2.97807 0.18808 0
M  V30 22804 C 2054.8 2.87151 1.9606 0
M  V30 22805 H 2054.13 3.66174 1.60489 0
M  V30 22806 H 2055.57 3.35198 2.5965 0
M  V30 22807 C 2054.02 1.87921 2.7962 0
M  V30 22808 O 2054.55 1.37638 3.77384 0
M  V30 22809 N 2052.76 1.5626 2.45013 0
M  V30 22810 H 2052.31 1.97343 1.6557 0
M  V30 22811 H 2052.27 0.901217 3.01207 0
M  V30 22812 N 2056.04 -0.0835127 1.57379 0
M  V30 22813 C 2056.97 -1.13193 1.98148 0
M  V30 22814 C 2057.95 -1.38213 0.856507 0
M  V30 22815 O 2059.13 -1.5178 1.11781 0
M  V30 22816 C 2056.26 -2.47874 2.30817 0
M  V30 22817 C 2055.31 -2.39062 3.53202 0
M  V30 22818 S 2056.14 -1.79599 5.04484 0
M  V30 22819 C 2057.29 -3.15881 5.40342 0
M  V30 22820 H 2057.53 -0.784436 2.86765 0
M  V30 22821 H 2055.06 -0.291621 1.51621 0
M  V30 22822 H 2057.02 -3.25351 2.50314 0
M  V30 22823 H 2055.68 -2.79788 1.4275 0
M  V30 22824 H 2054.87 -3.38355 3.73539 0
M  V30 22825 H 2054.47 -1.69718 3.33274 0
M  V30 22826 H 2056.77 -4.12176 5.37696 0
M  V30 22827 H 2057.71 -3.00336 6.41252 0
M  V30 22828 H 2058.12 -3.15947 4.67801 0
M  V30 22829 N 2057.52 -1.53558 -0.354624 0
M  V30 22830 C 2058.46 -1.80769 -1.43497 0
M  V30 22831 C 2059.43 -0.65269 -1.52739 0
M  V30 22832 O 2060.62 -0.895997 -1.68453 0
M  V30 22833 C 2057.76 -2.01311 -2.80299 0
M  V30 22834 C 2056.87 -3.29028 -2.79937 0
M  V30 22835 C 2056.01 -3.39698 -4.08385 0
M  V30 22836 C 2055.04 -4.61406 -4.02208 0
M  V30 22837 N 2054.18 -4.6917 -5.22326 0
M  V30 22838 H 2059.02 -2.72949 -1.19594 0
M  V30 22839 H 2056.56 -1.35202 -0.579546 0
M  V30 22840 H 2058.52 -2.1121 -3.59786 0
M  V30 22841 H 2057.15 -1.12456 -3.02578 0
M  V30 22842 H 2056.2 -3.28027 -1.92619 0
M  V30 22843 H 2057.51 -4.186 -2.71248 0
M  V30 22844 H 2056.66 -3.48968 -4.96292 0
M  V30 22845 H 2055.4 -2.48162 -4.19842 0
M  V30 22846 H 2054.41 -4.52225 -3.12687 0
M  V30 22847 H 2055.63 -5.54295 -3.92344 0
M  V30 22848 H 2053.58 -3.80538 -5.34347 0
M  V30 22849 H 2053.5 -5.52662 -5.15849 0
M  V30 22850 H 2054.76 -4.82736 -6.12034 0
M  V30 22851 N 2058.99 0.615033 -1.45104 0
M  V30 22852 C 2059.9 1.75459 -1.55728 0
M  V30 22853 C 2060.92 1.6829 -0.442095 0
M  V30 22854 O 2062.1 1.88779 -0.701735 0
M  V30 22855 C 2059.16 3.11899 -1.51394 0
M  V30 22856 C 2058.22 3.30578 -2.73892 0
M  V30 22857 C 2057.45 4.60509 -2.69754 0
M  V30 22858 O 2057.68 5.42353 -1.76662 0
M  V30 22859 O 2056.61 4.81739 -3.60848 0
M  V30 22860 H 2060.44 1.69447 -2.52035 0
M  V30 22861 H 2058.02 0.778221 -1.27531 0
M  V30 22862 H 2059.9 3.93203 -1.51557 0
M  V30 22863 H 2058.58 3.18418 -0.582365 0
M  V30 22864 H 2057.49 2.48891 -2.79292 0
M  V30 22865 H 2058.82 3.2893 -3.6615 0
M  V30 22866 N 2060.47 1.3227 0.85688 0
M  V30 22867 C 2061.42 1.2102 1.96527 0
M  V30 22868 C 2062.39 0.0928848 1.6584 0
M  V30 22869 O 2063.57 0.268043 1.88908 0
M  V30 22870 C 2060.71 0.936943 3.32138 0
M  V30 22871 C 2059.83 2.13883 3.75337 0
M  V30 22872 C 2058.96 1.80125 4.99728 0
M  V30 22873 C 2058 2.96647 5.35413 0
M  V30 22874 N 2057.14 2.62997 6.50982 0
M  V30 22875 H 2061.98 2.15827 2.05481 0
M  V30 22876 H 2059.51 1.07346 1.00575 0
M  V30 22877 H 2061.47 0.759018 4.10237 0
M  V30 22878 H 2060.1 0.025663 3.2279 0
M  V30 22879 H 2059.15 2.4271 2.92909 0
M  V30 22880 H 2060.47 3.01052 3.97705 0
M  V30 22881 H 2059.62 1.58871 5.8553 0
M  V30 22882 H 2058.36 0.901662 4.79293 0
M  V30 22883 H 2057.36 3.18535 4.48124 0
M  V30 22884 H 2058.59 3.87335 5.57807 0
M  V30 22885 H 2056.54 1.75576 6.32067 0
M  V30 22886 H 2056.45 3.43696 6.73357 0
M  V30 22887 H 2057.72 2.45168 7.39941 0
M  V30 22888 N 2061.95 -1.07287 1.15444 0
M  V30 22889 C 2063.23 -1.76634 0.840221 0
M  V30 22890 C 2063.61 -2.00384 -0.664037 0
M  V30 22891 O 2062.95 -1.62284 -1.60861 0
M  V30 22892 C 2063.16 -3.07439 1.65174 0
M  V30 22893 C 2064.51 -3.81773 1.85835 0
M  V30 22894 O 2065.54 -3.17252 1.61955 0
M  V30 22895 O 2064.4 -4.97656 2.25834 0
M  V30 22896 H 2061.49 -0.76708 0.309059 0
M  V30 22897 H 2064.04 -1.13646 1.26026 0
M  V30 22898 H 2062.81 -2.85774 2.67299 0
M  V30 22899 H 2062.43 -3.78159 1.22807 0
M  V30 22900 N 2063.43 -0.951342 -1.25647 0
M  V30 22901 C 2064.38 -0.459968 -2.28007 0
M  V30 22902 C 2065.37 0.468044 -1.62806 0
M  V30 22903 O 2066.58 0.345136 -1.7666 0
M  V30 22904 H 2062.95 -0.130235 -0.740637 0
M  V30 22905 H 2064.92 -1.33559 -2.66842 0
M  V30 22906 C 2063.67 0.24991 -3.46801 0
M  V30 22907 H 2062.99 -0.455035 -3.97202 0
M  V30 22908 H 2064.43 0.557792 -4.20315 0
M  V30 22909 C 2062.89 1.47127 -3.03076 0
M  V30 22910 O 2063.42 2.56915 -3.088 0
M  V30 22911 N 2061.63 1.33145 -2.58304 0
M  V30 22912 H 2061.18 0.438193 -2.53846 0
M  V30 22913 H 2061.13 2.14982 -2.29413 0
M  V30 22914 N 2064.91 1.40216 -0.719531 0
M  V30 22915 C 2065.82 2.34494 -0.0706489 0
M  V30 22916 C 2066.83 1.5751 0.739372 0
M  V30 22917 O 2068.01 1.89879 0.671417 0
M  V30 22918 C 2065.07 3.36441 0.837178 0
M  V30 22919 C 2064.13 4.29297 0.0166603 0
M  V30 22920 C 2063.37 5.26374 0.881251 0
M  V30 22921 O 2063.59 5.29524 2.1204 0
M  V30 22922 O 2062.52 6.01059 0.318141 0
M  V30 22923 H 2066.35 2.91609 -0.848392 0
M  V30 22924 H 2063.93 1.41478 -0.480047 0
M  V30 22925 H 2065.82 3.98951 1.35707 0
M  V30 22926 H 2064.49 2.81733 1.594 0
M  V30 22927 H 2063.4 3.70059 -0.54839 0
M  V30 22928 H 2064.73 4.87168 -0.70203 0
M  V30 22929 N 2066.38 0.466004 1.50553 0
M  V30 22930 C 2067.61 -0.0885768 2.0671 0
M  V30 22931 C 2068.03 -1.33958 1.33044 0
M  V30 22932 O 2067.38 -1.78102 0.398219 0
M  V30 22933 C 2067.43 -0.381842 3.59478 0
M  V30 22934 O 2067.16 0.81954 4.30366 0
M  V30 22935 C 2068.66 -0.98395 4.32242 0
M  V30 22936 H 2065.88 0.00481473 0.670983 0
M  V30 22937 H 2068.42 0.653327 1.93783 0
M  V30 22938 H 2066.58 -1.07367 3.72224 0
M  V30 22939 H 2066.99 0.56106 5.21491 0
M  V30 22940 H 2068.46 -1.13895 5.40122 0
M  V30 22941 H 2068.94 -1.97271 3.92404 0
M  V30 22942 H 2069.55 -0.330654 4.24013 0
M  V30 22943 N 2067.86 -1.56346 0.198413 0
M  V30 22944 C 2069.09 -2.02058 -0.444989 0
M  V30 22945 C 2069.5 -1.07852 -1.54963 0
M  V30 22946 O 2068.86 -0.0839717 -1.82307 0
M  V30 22947 C 2068.91 -3.47445 -0.99822 0
M  V30 22948 O 2068.63 -4.38056 0.0623476 0
M  V30 22949 C 2070.13 -4.08691 -1.71717 0
M  V30 22950 H 2067.35 -0.661691 -0.111383 0
M  V30 22951 H 2069.9 -2.02166 0.308092 0
M  V30 22952 H 2068.05 -3.48026 -1.70167 0
M  V30 22953 H 2068.47 -5.23331 -0.349939 0
M  V30 22954 H 2069.94 -5.1226 -2.05654 0
M  V30 22955 H 2070.42 -3.52341 -2.62207 0
M  V30 22956 H 2071.02 -4.11892 -1.05949 0
M  V30 22957 N 2069.34 0.0751653 -1.57421 0
M  V30 22958 C 2070.29 1.08969 -2.03456 0
M  V30 22959 C 2071.26 1.38655 -0.914549 0
M  V30 22960 O 2072.44 1.4978 -1.18197 0
M  V30 22961 C 2069.58 2.39917 -2.4806 0
M  V30 22962 C 2068.7 2.1679 -3.73666 0
M  V30 22963 C 2067.83 3.41278 -4.07066 0
M  V30 22964 C 2066.87 3.13501 -5.25722 0
M  V30 22965 N 2066.01 4.30309 -5.54778 0
M  V30 22966 H 2070.85 0.690138 -2.89898 0
M  V30 22967 H 2068.38 0.32921 -1.43369 0
M  V30 22968 H 2070.34 3.16366 -2.71972 0
M  V30 22969 H 2068.97 2.77681 -1.646 0
M  V30 22970 H 2068.02 1.3105 -3.57114 0
M  V30 22971 H 2069.34 1.9227 -4.60254 0
M  V30 22972 H 2068.49 4.26124 -4.31861 0
M  V30 22973 H 2067.23 3.68871 -3.19039 0
M  V30 22974 H 2066.23 2.2705 -5.00728 0
M  V30 22975 H 2067.46 2.87234 -6.15365 0
M  V30 22976 H 2065.4 4.5794 -4.69709 0
M  V30 22977 H 2065.32 4.09051 -6.35778 0
M  V30 22978 H 2066.59 5.16162 -5.84121 0
M  V30 22979 N 2070.82 1.53744 0.346476 0
M  V30 22980 C 2072.07 1.70066 1.08445 0
M  V30 22981 C 2072.38 0.469013 1.89894 0
M  V30 22982 O 2073.59 0.513127 2.66607 0
M  V30 22983 C 2072.04 3.00716 1.97732 0
M  V30 22984 C 2071.65 4.31208 1.21504 0
M  V30 22985 C 2073.39 3.26404 2.71405 0
M  V30 22986 C 2071.3 5.52934 2.09804 0
M  V30 22987 H 2070.23 0.633711 0.408567 0
M  V30 22988 H 2072.88 1.80244 0.344133 0
M  V30 22989 H 2071.26 2.84388 2.75572 0
M  V30 22990 H 2072.44 4.5823 0.485955 0
M  V30 22991 H 2070.75 4.12111 0.596126 0
M  V30 22992 H 2073.35 4.14536 3.37733 0
M  V30 22993 H 2073.69 2.43286 3.37813 0
M  V30 22994 H 2074.23 3.43495 2.0064 0
M  V30 22995 H 2070.97 6.38587 1.47943 0
M  V30 22996 H 2070.49 5.30164 2.8051 0
M  V30 22997 H 2072.16 5.88463 2.68924 0
M  V30 22998 N 2072.3 -0.607329 1.45428 0
M  V30 22999 C 2073.54 -1.36835 1.49679 0
M  V30 23000 C 2073.88 -1.93708 0.138148 0
M  V30 23001 O 2073.15 -1.75069 -0.847414 0
M  V30 23002 C 2073.43 -2.51607 2.57616 0
M  V30 23003 C 2073.29 -1.99929 4.02925 0
M  V30 23004 C 2074.61 -3.53738 2.61835 0
M  V30 23005 H 2071.72 -0.496187 0.544947 0
M  V30 23006 H 2074.37 -0.684587 1.77238 0
M  V30 23007 H 2072.52 -3.09936 2.34247 0
M  V30 23008 H 2074.19 -1.46247 4.37504 0
M  V30 23009 H 2072.43 -1.30929 4.1357 0
M  V30 23010 H 2073.1 -2.82666 4.74135 0
M  V30 23011 H 2075.58 -3.0525 2.82775 0
M  V30 23012 H 2074.45 -4.31533 3.39221 0
M  V30 23013 H 2074.72 -4.09372 1.66935 0
M  V30 23014 N 2073.77 -1.32722 -0.849853 0
M  V30 23015 C 2075 -1.2671 -1.64193 0
M  V30 23016 C 2075.42 0.161092 -1.87409 0
M  V30 23017 O 2074.78 1.11408 -1.43031 0
M  V30 23018 C 2074.83 -2.03686 -2.97564 0
M  V30 23019 O 2073.93 -1.38794 -3.88343 0
M  V30 23020 H 2073.28 -0.436459 -0.5004 0
M  V30 23021 H 2075.81 -1.75113 -1.05813 0
M  V30 23022 H 2075.82 -2.1404 -3.47349 0
M  V30 23023 H 2074.49 -3.07537 -2.79989 0
M  V30 23024 H 2073.07 -1.37018 -3.46815 0
M  V30 23025 N 2075.25 1.06673 -1.16011 0
M  V30 23026 C 2076.16 2.17576 -0.877386 0
M  V30 23027 C 2077.18 1.73362 0.148919 0
M  V30 23028 O 2078.35 2.01382 -0.0268051 0
M  V30 23029 C 2075.42 3.44631 -0.378223 0
M  V30 23030 C 2074.48 4.03374 -1.46928 0
M  V30 23031 C 2073.71 5.24365 -0.993837 0
M  V30 23032 O 2073.94 5.70181 0.157925 0
M  V30 23033 O 2072.87 5.74962 -1.78052 0
M  V30 23034 H 2076.7 2.44264 -1.80468 0
M  V30 23035 H 2074.28 1.1614 -0.939777 0
M  V30 23036 H 2076.16 4.21265 -0.106644 0
M  V30 23037 H 2074.84 3.19478 0.521114 0
M  V30 23038 H 2073.75 3.28248 -1.79455 0
M  V30 23039 H 2075.08 4.32814 -2.34378 0
M  V30 23040 N 2076.73 0.957992 1.25141 0
M  V30 23041 C 2077.66 0.425072 2.24206 0
M  V30 23042 C 2078.64 -0.495458 1.54868 0
M  V30 23043 O 2079.83 -0.429066 1.83552 0
M  V30 23044 C 2076.95 -0.387415 3.36477 0
M  V30 23045 C 2076 0.473995 4.23858 0
M  V30 23046 S 2076.83 1.90829 5.00344 0
M  V30 23047 C 2077.99 1.10432 6.16081 0
M  V30 23048 H 2078.22 1.26461 2.69063 0
M  V30 23049 H 2075.75 0.762309 1.34269 0
M  V30 23050 H 2077.71 -0.850242 4.01598 0
M  V30 23051 H 2076.37 -1.20182 2.90198 0
M  V30 23052 H 2075.57 -0.149333 5.03779 0
M  V30 23053 H 2075.17 0.872164 3.63688 0
M  V30 23054 H 2077.46 0.354618 6.76571 0
M  V30 23055 H 2078.4 1.87757 6.82754 0
M  V30 23056 H 2078.81 0.632973 5.6094 0
M  V30 23057 N 2078.21 -1.39832 0.726957 0
M  V30 23058 C 2079.12 -2.34453 0.0830837 0
M  V30 23059 C 2080.13 -1.579 -0.731009 0
M  V30 23060 O 2081.31 -1.90232 -0.661338 0
M  V30 23061 C 2078.38 -3.3688 -0.819324 0
M  V30 23062 C 2077.44 -4.293 0.00610659 0
M  V30 23063 C 2076.67 -5.26834 -0.853324 0
M  V30 23064 O 2076.89 -5.30641 -2.09228 0
M  V30 23065 O 2075.83 -6.01219 -0.286261 0
M  V30 23066 H 2079.65 -2.91155 0.863845 0
M  V30 23067 H 2077.24 -1.41221 0.487543 0
M  V30 23068 H 2079.12 -3.99665 -1.33589 0
M  V30 23069 H 2077.79 -2.82574 -1.57904 0
M  V30 23070 H 2076.7 -3.69763 0.568007 0
M  V30 23071 H 2078.03 -4.86789 0.727856 0
M  V30 23072 N 2079.69 -0.473982 -1.50304 0
M  V30 23073 C 2080.62 0.355019 -2.26434 0
M  V30 23074 C 2081.63 0.954546 -1.3188 0
M  V30 23075 O 2082.82 0.842462 -1.57368 0
M  V30 23076 C 2079.92 1.51219 -3.03292 0
M  V30 23077 C 2079.09 1.02492 -4.25222 0
M  V30 23078 C 2078.15 2.05649 -4.8435 0
M  V30 23079 O 2077.18 1.63594 -5.45184 0
M  V30 23080 N 2078.38 3.38481 -4.71605 0
M  V30 23081 H 2081.15 -0.297646 -2.98218 0
M  V30 23082 H 2078.71 -0.304934 -1.59002 0
M  V30 23083 H 2080.7 2.19927 -3.39726 0
M  V30 23084 H 2079.27 2.0695 -2.34287 0
M  V30 23085 H 2078.49 0.16363 -3.9386 0
M  V30 23086 H 2079.78 0.677339 -5.04271 0
M  V30 23087 H 2079.17 3.75356 -4.23231 0
M  V30 23088 H 2077.73 4.02979 -5.123 0
M  V30 23089 N 2081.16 1.56239 -0.206702 0
M  V30 23090 C 2082.41 1.97904 0.428991 0
M  V30 23091 C 2082.74 1.09394 1.6082 0
M  V30 23092 O 2081.99 0.135573 1.9523 0
M  V30 23093 C 2082.29 3.45345 0.920411 0
M  V30 23094 C 2081.96 4.50661 -0.146675 0
M  V30 23095 C 2080.62 4.79185 -0.439852 0
M  V30 23096 C 2082.97 5.13903 -0.869114 0
M  V30 23097 C 2080.3 5.68237 -1.46024 0
M  V30 23098 C 2082.65 6.04058 -1.87874 0
M  V30 23099 C 2081.32 6.30933 -2.17899 0
M  V30 23100 H 2080.59 0.724181 0.156979 0
M  V30 23101 H 2083.23 1.89038 -0.306106 0
M  V30 23102 H 2081.54 3.5134 1.734 0
M  V30 23103 H 2083.24 3.74945 1.42187 0
M  V30 23104 H 2079.83 4.28501 0.0919915 0
M  V30 23105 H 2084.01 4.91947 -0.655848 0
M  V30 23106 H 2079.27 5.87329 -1.69866 0
M  V30 23107 H 2083.44 6.52117 -2.44369 0
M  V30 23108 H 2081.07 6.99735 -2.9711 0
M  V30 23109 N 2082.64 -0.0668159 1.57458 0
M  V30 23110 C 2083.59 -1.07888 2.04031 0
M  V30 23111 C 2084.56 -1.38168 0.921889 0
M  V30 23112 O 2085.74 -1.49151 1.1899 0
M  V30 23113 C 2082.88 -2.38598 2.49329 0
M  V30 23114 C 2082 -2.14805 3.7481 0
M  V30 23115 C 2081.13 -3.39114 4.0887 0
M  V30 23116 C 2080.17 -3.10708 5.27377 0
M  V30 23117 N 2079.31 -4.27361 5.57052 0
M  V30 23118 H 2084.15 -0.674755 2.9026 0
M  V30 23119 H 2081.69 -0.321602 1.43541 0
M  V30 23120 H 2083.64 -3.14919 2.73646 0
M  V30 23121 H 2082.27 -2.76804 1.6607 0
M  V30 23122 H 2081.33 -1.29154 3.57804 0
M  V30 23123 H 2082.64 -1.89826 4.61267 0
M  V30 23124 H 2081.79 -4.23827 4.34114 0
M  V30 23125 H 2080.53 -3.67174 3.2099 0
M  V30 23126 H 2079.54 -2.24392 5.01925 0
M  V30 23127 H 2080.76 -2.83966 6.16879 0
M  V30 23128 H 2078.71 -4.55443 4.72131 0
M  V30 23129 H 2078.62 -4.05673 6.37938 0
M  V30 23130 H 2079.89 -5.13057 5.8685 0
M  V30 23131 N 2084.12 -1.53926 -0.338317 0
M  V30 23132 C 2085.53 -1.62818 -0.913629 0
M  V30 23133 C 2085.88 -0.512813 -1.8938 0
M  V30 23134 O 2085.01 0.356629 -2.13441 0
M  V30 23135 C 2085.6 -2.9513 -1.66385 0
M  V30 23136 C 2084.16 -3.06267 -2.1881 0
M  V30 23137 C 2083.31 -2.58298 -1.00884 0
M  V30 23138 H 2086.26 -1.58273 -0.116306 0
M  V30 23139 H 2086.28 -2.84463 -2.52708 0
M  V30 23140 H 2085.79 -3.76288 -0.950215 0
M  V30 23141 H 2083.89 -2.29753 -2.93333 0
M  V30 23142 H 2084.01 -4.11824 -2.44822 0
M  V30 23143 H 2082.37 -2.13832 -1.38376 0
M  V30 23144 H 2083.15 -3.419 -0.309757 0
M  V30 23145 N 2085.6 0.599608 -1.45748 0
M  V30 23146 C 2086.55 1.70982 -1.55028 0
M  V30 23147 C 2087.52 1.61319 -0.395631 0
M  V30 23148 O 2088.7 1.80781 -0.610146 0
M  V30 23149 C 2085.84 3.09304 -1.53052 0
M  V30 23150 C 2084.95 3.29715 -2.79127 0
M  V30 23151 C 2084.09 4.58189 -2.68769 0
M  V30 23152 C 2083.13 4.71885 -3.89861 0
M  V30 23153 N 2082.27 5.91666 -3.77989 0
M  V30 23154 H 2087.11 1.62387 -2.49869 0
M  V30 23155 H 2084.64 0.791687 -1.23979 0
M  V30 23156 H 2086.6 3.89343 -1.49893 0
M  V30 23157 H 2085.23 3.16838 -0.617561 0
M  V30 23158 H 2084.28 2.43397 -2.92339 0
M  V30 23159 H 2085.59 3.35707 -3.68921 0
M  V30 23160 H 2084.75 5.46433 -2.63621 0
M  V30 23161 H 2083.49 4.54608 -1.76587 0
M  V30 23162 H 2082.49 3.82062 -3.95359 0
M  V30 23163 H 2083.72 4.77257 -4.83118 0
M  V30 23164 H 2081.66 5.89115 -2.88582 0
M  V30 23165 H 2081.58 5.98853 -4.61423 0
M  V30 23166 H 2082.85 6.82387 -3.76787 0
M  V30 23167 N 2087.08 1.33171 0.842803 0
M  V30 23168 C 2088.35 1.15008 1.58216 0
M  V30 23169 C 2088.73 -0.285047 2.09167 0
M  V30 23170 O 2088.08 -1.28349 1.89047 0
M  V30 23171 C 2088.29 2.18785 2.71908 0
M  V30 23172 C 2089.64 2.52736 3.41188 0
M  V30 23173 O 2090.66 2.17422 2.82146 0
M  V30 23174 O 2089.52 3.13321 4.47763 0
M  V30 23175 H 2086.62 0.444573 0.69734 0
M  V30 23176 H 2089.16 1.44741 0.8859 0
M  V30 23177 H 2087.94 3.15201 2.31871 0
M  V30 23178 H 2087.56 1.90116 3.49202 0
M  V30 23179 N 2088.56 -1.06056 1.16576 0
M  V30 23180 C 2089.78 -1.83131 0.973539 0
M  V30 23181 C 2090.21 -1.82047 -0.473358 0
M  V30 23182 O 2089.56 -1.22303 -1.33834 0
M  V30 23183 C 2089.61 -3.2753 1.50852 0
M  V30 23184 O 2088.72 -4.06129 0.716451 0
M  V30 23185 H 2088.06 -0.566557 0.346279 0
M  V30 23186 H 2090.59 -1.33704 1.54869 0
M  V30 23187 H 2090.6 -3.78346 1.52704 0
M  V30 23188 H 2089.27 -3.27634 2.56181 0
M  V30 23189 H 2087.85 -3.64892 0.768639 0
M  V30 23190 N 2090.03 -0.964615 -1.24631 0
M  V30 23191 C 2091 -0.497206 -2.23742 0
M  V30 23192 C 2092 0.404569 -1.55627 0
M  V30 23193 O 2093.19 0.200461 -1.73043 0
M  V30 23194 C 2090.32 0.280348 -3.39745 0
M  V30 23195 H 2091.51 -1.37334 -2.66607 0
M  V30 23196 H 2089.06 -0.748889 -1.37191 0
M  V30 23197 H 2089.8 1.17372 -3.02315 0
M  V30 23198 H 2089.58 -0.366741 -3.90381 0
M  V30 23199 H 2091.07 0.596501 -4.13318 0
M  V30 23200 N 2091.51 1.39445 -0.734362 0
M  V30 23201 C 2092.44 2.33245 -0.109065 0
M  V30 23202 C 2093.42 1.53878 0.724945 0
M  V30 23203 O 2094.61 1.82274 0.670055 0
M  V30 23204 C 2091.74 3.37973 0.799454 0
M  V30 23205 C 2090.69 4.27943 0.0696508 0
M  V30 23206 C 2090.02 5.23365 1.09514 0
M  V30 23207 C 2091.32 5.10855 -1.08738 0
M  V30 23208 H 2093.01 2.85786 -0.892581 0
M  V30 23209 H 2090.56 1.37409 -0.430672 0
M  V30 23210 H 2092.51 4.02545 1.24643 0
M  V30 23211 H 2091.23 2.83871 1.61508 0
M  V30 23212 H 2089.89 3.64851 -0.357693 0
M  V30 23213 H 2089.54 4.65559 1.90432 0
M  V30 23214 H 2089.24 5.84408 0.611606 0
M  V30 23215 H 2090.77 5.90813 1.54183 0
M  V30 23216 H 2092.18 5.68775 -0.718888 0
M  V30 23217 H 2090.58 5.81038 -1.50051 0
M  V30 23218 H 2091.65 4.45725 -1.90937 0
M  V30 23219 N 2092.99 0.481946 1.5005 0
M  V30 23220 C 2093.92 -0.296253 2.31613 0
M  V30 23221 C 2094.9 -0.98032 1.3901 0
M  V30 23222 O 2096.09 -0.975402 1.67927 0
M  V30 23223 C 2093.22 -1.37231 3.19037 0
M  V30 23224 C 2092.17 -0.809232 4.2028 0
M  V30 23225 C 2091.5 -1.98439 4.96514 0
M  V30 23226 C 2092.8 0.18685 5.21966 0
M  V30 23227 H 2094.49 0.384509 2.96921 0
M  V30 23228 H 2092.04 0.186362 1.42789 0
M  V30 23229 H 2093.99 -1.92429 3.74899 0
M  V30 23230 H 2092.71 -2.082 2.51636 0
M  V30 23231 H 2091.37 -0.279145 3.65536 0
M  V30 23232 H 2091.02 -2.68131 4.25576 0
M  V30 23233 H 2090.72 -1.6138 5.65005 0
M  V30 23234 H 2092.24 -2.54107 5.55213 0
M  V30 23235 H 2093.66 -0.276326 5.72634 0
M  V30 23236 H 2092.05 0.472282 5.98239 0
M  V30 23237 H 2093.12 1.10915 4.72044 0
M  V30 23238 N 2094.47 -1.56127 0.214985 0
M  V30 23239 C 2095.88 -1.5898 -0.140524 0
M  V30 23240 C 2096.08 -1.23166 -1.59475 0
M  V30 23241 O 2095.14 -0.963792 -2.33382 0
M  V30 23242 C 2096.45 -3.00162 0.179827 0
M  V30 23243 C 2098 -3.12764 0.121534 0
M  V30 23244 C 2098.48 -4.56112 0.415468 0
M  V30 23245 N 2099.97 -4.61761 0.364801 0
M  V30 23246 C 2100.7 -5.70602 0.565817 0
M  V30 23247 N 2100.2 -6.87831 0.828254 0
M  V30 23248 N 2101.99 -5.59883 0.498704 0
M  V30 23249 H 2094.14 -1.77683 1.16372 0
M  V30 23250 H 2096.4 -0.825579 0.465964 0
M  V30 23251 H 2096.11 -3.30995 1.1889 0
M  V30 23252 H 2095.98 -3.7376 -0.508279 0
M  V30 23253 H 2098.37 -2.81731 -0.878172 0
M  V30 23254 H 2098.45 -2.4151 0.843017 0
M  V30 23255 H 2098.1 -4.87861 1.41258 0
M  V30 23256 H 2098.03 -5.25583 -0.327132 0
M  V30 23257 H 2100.52 -3.7752 0.169387 0
M  V30 23258 H 2100.83 -7.66689 0.969914 0
M  V30 23259 H 2099.18 -6.89591 0.865375 0
M  V30 23260 H 2102.37 -4.67176 0.293953 0
M  V30 23261 H 2102.54 -6.44643 0.658773 0
M  V30 23262 N 2095.95 0.0584645 -1.57492 0
M  V30 23263 C 2097.19 0.75396 -1.87078 0
M  V30 23264 C 2097.51 1.78063 -0.809512 0
M  V30 23265 O 2098.71 2.52664 -0.993649 0
M  V30 23266 C 2097.17 1.39192 -3.31894 0
M  V30 23267 C 2096.78 0.403126 -4.46183 0
M  V30 23268 C 2098.52 2.069 -3.70665 0
M  V30 23269 C 2096.43 1.04775 -5.82045 0
M  V30 23270 H 2095.36 0.28534 -0.697923 0
M  V30 23271 H 2098.01 0.0075332 -1.83498 0
M  V30 23272 H 2096.39 2.18706 -3.30127 0
M  V30 23273 H 2097.57 -0.36317 -4.59367 0
M  V30 23274 H 2095.88 -0.170238 -4.16052 0
M  V30 23275 H 2098.48 2.55929 -4.69473 0
M  V30 23276 H 2098.82 2.87433 -3.01145 0
M  V30 23277 H 2099.35 1.342 -3.7448 0
M  V30 23278 H 2096.09 0.282468 -6.54891 0
M  V30 23279 H 2095.61 1.78459 -5.72636 0
M  V30 23280 H 2097.29 1.56372 -6.27819 0
M  V30 23281 N 2097.42 1.54103 0.330149 0
M  V30 23282 C 2098.33 1.86042 1.42918 0
M  V30 23283 C 2099.35 0.75174 1.56923 0
M  V30 23284 O 2100.53 1.04538 1.72145 0
M  V30 23285 C 2097.59 2.07533 2.77724 0
M  V30 23286 C 2096.65 3.31356 2.7295 0
M  V30 23287 C 2095.88 3.51812 4.01328 0
M  V30 23288 O 2096.11 2.75838 4.99269 0
M  V30 23289 O 2095.04 4.45275 4.04986 0
M  V30 23290 H 2098.87 2.79483 1.18839 0
M  V30 23291 H 2096.45 1.39925 0.523569 0
M  V30 23292 H 2098.33 2.23037 3.57537 0
M  V30 23293 H 2097.01 1.1728 3.01707 0
M  V30 23294 H 2095.92 3.21243 1.91712 0
M  V30 23295 H 2097.25 4.21645 2.53922 0
M  V30 23296 N 2098.9 -0.59187 1.46064 0
M  V30 23297 C 2100.15 -1.34657 1.50168 0
M  V30 23298 C 2100.46 -1.94993 0.153981 0
M  V30 23299 O 2101.67 -2.71402 0.0727633 0
M  V30 23300 C 2100.13 -2.44 2.6456 0
M  V30 23301 C 2099.73 -1.90007 4.05711 0
M  V30 23302 C 2101.48 -3.2087 2.77926 0
M  V30 23303 C 2099.39 -2.96925 5.11458 0
M  V30 23304 H 2098.32 -0.506178 0.558838 0
M  V30 23305 H 2100.97 -0.632651 1.72249 0
M  V30 23306 H 2099.35 -3.18149 2.35791 0
M  V30 23307 H 2100.52 -1.22462 4.44229 0
M  V30 23308 H 2098.84 -1.25833 3.96932 0
M  V30 23309 H 2101.43 -4.00647 3.54099 0
M  V30 23310 H 2101.78 -3.72878 1.85115 0
M  V30 23311 H 2102.31 -2.53825 3.06296 0
M  V30 23312 H 2099.05 -2.49815 6.0603 0
M  V30 23313 H 2098.57 -3.62987 4.77494 0
M  V30 23314 H 2100.25 -3.61036 5.369 0
M  V30 23315 N 2100.38 -1.33616 -0.835729 0
M  V30 23316 C 2101.29 -1.26175 -1.9778 0
M  V30 23317 C 2102.31 -0.171736 -1.7315 0
M  V30 23318 O 2103.48 -0.395895 -1.97471 0
M  V30 23319 C 2100.55 -1.00421 -3.31838 0
M  V30 23320 C 2099.61 -2.18454 -3.69563 0
M  V30 23321 C 2098.84 -1.93919 -4.97223 0
M  V30 23322 O 2099.06 -0.891065 -5.63397 0
M  V30 23323 O 2098 -2.80536 -5.32525 0
M  V30 23324 H 2101.82 -2.22227 -2.07 0
M  V30 23325 H 2099.41 -1.13694 -0.969228 0
M  V30 23326 H 2101.29 -0.877873 -4.12155 0
M  V30 23327 H 2099.97 -0.0739914 -3.23615 0
M  V30 23328 H 2098.87 -2.36642 -2.89743 0
M  V30 23329 H 2100.21 -3.09821 -3.82455 0
M  V30 23330 N 2101.86 1.05436 -1.17136 0
M  V30 23331 C 2102.79 2.12599 -0.829282 0
M  V30 23332 C 2103.77 1.6133 0.202856 0
M  V30 23333 O 2104.95 1.88308 0.0849539 0
M  V30 23334 C 2102.08 3.37873 -0.236614 0
M  V30 23335 C 2101.13 4.07962 -1.24374 0
M  V30 23336 S 2101.96 4.5683 -2.79404 0
M  V30 23337 C 2103.12 5.85354 -2.21611 0
M  V30 23338 H 2103.35 2.41288 -1.73688 0
M  V30 23339 H 2100.88 1.18 -0.995754 0
M  V30 23340 H 2102.84 4.10381 0.0988539 0
M  V30 23341 H 2101.5 3.07324 0.648884 0
M  V30 23342 H 2100.69 4.97964 -0.777659 0
M  V30 23343 H 2100.3 3.41508 -1.52474 0
M  V30 23344 H 2102.59 6.58575 -1.59013 0
M  V30 23345 H 2103.53 6.36706 -3.09857 0
M  V30 23346 H 2103.94 5.39799 -1.65157 0
M  V30 23347 N 2103.34 0.971211 1.24118 0
M  V30 23348 C 2104.27 0.523167 2.27564 0
M  V30 23349 C 2105.25 -0.438983 1.64338 0
M  V30 23350 O 2106.43 -0.334345 1.913 0
M  V30 23351 C 2103.56 -0.184078 3.46812 0
M  V30 23352 C 2102.52 0.694439 4.22329 0
M  V30 23353 C 2101.84 -0.144498 5.34505 0
M  V30 23354 C 2103.14 1.98076 4.83284 0
M  V30 23355 H 2104.84 1.3878 2.65293 0
M  V30 23356 H 2102.38 0.668756 1.27529 0
M  V30 23357 H 2104.34 -0.508765 4.18318 0
M  V30 23358 H 2103.06 -1.08309 3.08118 0
M  V30 23359 H 2101.72 1.00245 3.52628 0
M  V30 23360 H 2101.37 -1.04377 4.92051 0
M  V30 23361 H 2101.07 0.440127 5.85949 0
M  V30 23362 H 2102.59 -0.463776 6.08836 0
M  V30 23363 H 2104 1.72143 5.46845 0
M  V30 23364 H 2102.4 2.5124 5.44976 0
M  V30 23365 H 2103.47 2.67346 4.04542 0
M  V30 23366 N 2104.81 -1.39054 0.741747 0
M  V30 23367 C 2106.06 -1.99978 0.292077 0
M  V30 23368 C 2106.38 -1.59162 -1.12662 0
M  V30 23369 O 2105.65 -0.842958 -1.76836 0
M  V30 23370 H 2104.23 -0.739584 0.105 0
M  V30 23371 H 2106.9 -1.7 0.953207 0
M  V30 23372 H 2105.99 -3.10178 0.34581 0
M  V30 23373 N 2106.29 -0.489897 -1.49792 0
M  V30 23374 C 2107.22 0.283966 -2.31767 0
M  V30 23375 C 2108.2 0.972934 -1.39528 0
M  V30 23376 O 2109.39 0.966482 -1.68442 0
M  V30 23377 C 2106.52 1.35538 -3.19761 0
M  V30 23378 C 2105.47 0.786932 -4.20703 0
M  V30 23379 C 2104.8 1.95803 -4.97559 0
M  V30 23380 C 2106.1 -0.214528 -5.21859 0
M  V30 23381 H 2107.79 -0.40025 -2.96713 0
M  V30 23382 H 2105.34 -0.193932 -1.42688 0
M  V30 23383 H 2107.29 1.90438 -3.75914 0
M  V30 23384 H 2106.02 2.06862 -2.52736 0
M  V30 23385 H 2104.67 0.259755 -3.65679 0
M  V30 23386 H 2104.32 2.65871 -4.26992 0
M  V30 23387 H 2104.02 1.58381 -5.65853 0
M  V30 23388 H 2105.55 2.51159 -5.56553 0
M  V30 23389 H 2106.96 0.245954 -5.72772 0
M  V30 23390 H 2105.36 -0.504002 -5.9798 0
M  V30 23391 H 2106.43 -1.13417 -4.71449 0
M  V30 23392 N 2107.77 1.56011 -0.223262 0
M  V30 23393 C 2109 2.03189 0.415817 0
M  V30 23394 C 2109.42 1.102 1.52439 0
M  V30 23395 O 2108.78 0.0904999 1.81074 0
M  V30 23396 C 2108.83 3.48586 0.923053 0
M  V30 23397 O 2107.93 3.58734 2.03429 0
M  V30 23398 H 2107.27 0.65733 0.0938783 0
M  V30 23399 H 2109.8 2.01715 -0.342399 0
M  V30 23400 H 2109.81 3.88941 1.23243 0
M  V30 23401 H 2108.49 4.1575 0.11169 0
M  V30 23402 H 2107.06 3.30267 1.73142 0
M  V30 23403 N 2109.25 -0.0501116 1.5752 0
M  V30 23404 C 2110.2 -1.05718 2.05164 0
M  V30 23405 C 2111.17 -1.37182 0.936492 0
M  V30 23406 O 2112.35 -1.4788 1.20565 0
M  V30 23407 C 2109.49 -2.3594 2.51846 0
M  V30 23408 C 2108.6 -2.10818 3.77067 0
M  V30 23409 C 2107.74 -3.34759 4.12444 0
M  V30 23410 C 2106.78 -3.05097 5.30643 0
M  V30 23411 N 2105.91 -4.21429 5.61553 0
M  V30 23412 H 2110.75 -0.643931 2.9096 0
M  V30 23413 H 2108.29 -0.30636 1.43874 0
M  V30 23414 H 2110.25 -3.11999 2.7697 0
M  V30 23415 H 2108.88 -2.75027 1.68997 0
M  V30 23416 H 2107.93 -1.25352 3.59153 0
M  V30 23417 H 2109.24 -1.84923 4.63255 0
M  V30 23418 H 2108.4 -4.19199 4.38585 0
M  V30 23419 H 2107.14 -3.63748 3.24867 0
M  V30 23420 H 2106.14 -2.19056 5.04276 0
M  V30 23421 H 2107.37 -2.77407 6.19856 0
M  V30 23422 H 2105.31 -4.5041 4.76935 0
M  V30 23423 H 2105.23 -3.98884 6.42205 0
M  V30 23424 H 2106.5 -5.06804 5.92258 0
M  V30 23425 N 2110.73 -1.54276 -0.321972 0
M  V30 23426 C 2112.14 -1.45021 -0.666407 0
M  V30 23427 C 2112.34 -0.624377 -1.91582 0
M  V30 23428 O 2111.4 -0.123803 -2.52196 0
M  V30 23429 C 2112.71 -2.8876 -0.838933 0
M  V30 23430 C 2114.26 -2.98672 -0.936172 0
M  V30 23431 C 2114.73 -4.43563 -1.14086 0
M  V30 23432 N 2116.23 -4.47183 -1.20756 0
M  V30 23433 C 2116.96 -5.56451 -1.38384 0
M  V30 23434 N 2116.46 -6.75684 -1.53045 0
M  V30 23435 N 2118.25 -5.44101 -1.41105 0
M  V30 23436 H 2110.4 -2.0645 0.499214 0
M  V30 23437 H 2112.66 -0.934132 0.161557 0
M  V30 23438 H 2112.37 -3.51699 0.00792835 0
M  V30 23439 H 2112.24 -3.34966 -1.73428 0
M  V30 23440 H 2114.63 -2.35859 -1.77354 0
M  V30 23441 H 2114.71 -2.55794 -0.0172554 0
M  V30 23442 H 2114.36 -5.06963 -0.308338 0
M  V30 23443 H 2114.29 -4.84052 -2.07367 0
M  V30 23444 H 2116.78 -3.61272 -1.10863 0
M  V30 23445 H 2117.09 -7.54718 -1.66193 0
M  V30 23446 H 2115.43 -6.78589 -1.5014 0
M  V30 23447 H 2118.63 -4.49903 -1.29248 0
M  V30 23448 H 2118.8 -6.29312 -1.54501 0
M  V30 23449 N 2112.2 0.584116 -1.46376 0
M  V30 23450 C 2113.13 1.70354 -1.59693 0
M  V30 23451 C 2114.12 1.64113 -0.447325 0
M  V30 23452 O 2115.3 1.82151 -0.673394 0
M  V30 23453 C 2112.43 3.08993 -1.58558 0
M  V30 23454 C 2111.38 3.30064 -2.72473 0
M  V30 23455 C 2110.71 4.69216 -2.56399 0
M  V30 23456 C 2112.01 3.18035 -4.14308 0
M  V30 23457 H 2113.7 1.59465 -2.53399 0
M  V30 23458 H 2111.25 0.765749 -1.21952 0
M  V30 23459 H 2113.2 3.87126 -1.66468 0
M  V30 23460 H 2111.93 3.20778 -0.613949 0
M  V30 23461 H 2110.59 2.5433 -2.64029 0
M  V30 23462 H 2110.23 4.77764 -1.57323 0
M  V30 23463 H 2109.93 4.84267 -3.32805 0
M  V30 23464 H 2111.46 5.49519 -2.66198 0
M  V30 23465 H 2112.87 3.86014 -4.2387 0
M  V30 23466 H 2111.27 3.44608 -4.91289 0
M  V30 23467 H 2112.34 2.15135 -4.34563 0
M  V30 23468 N 2113.68 1.34058 0.828631 0
M  V30 23469 C 2114.62 1.21002 1.94657 0
M  V30 23470 C 2115.63 0.138478 1.6221 0
M  V30 23471 O 2116.82 0.389824 1.74191 0
M  V30 23472 C 2113.92 0.835704 3.28434 0
M  V30 23473 C 2113.09 2.00103 3.88944 0
M  V30 23474 C 2112.15 1.60604 5.01092 0
M  V30 23475 O 2111.18 2.32182 5.19692 0
M  V30 23476 N 2112.38 0.516907 5.78194 0
M  V30 23477 H 2115.14 2.17309 2.0639 0
M  V30 23478 H 2112.7 1.26938 1.00491 0
M  V30 23479 H 2114.7 0.553361 4.00899 0
M  V30 23480 H 2113.27 -0.0370007 3.12578 0
M  V30 23481 H 2112.49 2.44843 3.08943 0
M  V30 23482 H 2113.77 2.78052 4.26104 0
M  V30 23483 H 2113.17 -0.0782718 5.65646 0
M  V30 23484 H 2111.73 0.294274 6.51135 0
M  V30 23485 N 2115.16 -1.04814 1.17694 0
M  V30 23486 C 2116.07 -2.16152 0.911889 0
M  V30 23487 C 2117.09 -1.73577 -0.121319 0
M  V30 23488 O 2118.26 -2.01314 0.0588399 0
M  V30 23489 C 2115.33 -3.43985 0.433003 0
M  V30 23490 C 2114.39 -4.00986 1.53326 0
M  V30 23491 C 2113.62 -5.22717 1.07713 0
M  V30 23492 O 2113.85 -5.7036 -0.0671938 0
M  V30 23493 O 2112.78 -5.72056 1.87176 0
M  V30 23494 H 2116.61 -2.41362 1.84331 0
M  V30 23495 H 2114.19 -1.1463 0.958135 0
M  V30 23496 H 2116.07 -4.21042 0.17365 0
M  V30 23497 H 2114.75 -3.20266 -0.470221 0
M  V30 23498 H 2113.65 -3.25352 1.84654 0
M  V30 23499 H 2114.99 -4.2903 2.41234 0
M  V30 23500 N 2116.64 -0.977779 -1.23601 0
M  V30 23501 C 2117.86 -0.662789 -1.96524 0
M  V30 23502 C 2118.29 0.763086 -1.71926 0
M  V30 23503 O 2117.65 1.51941 -0.989123 0
M  V30 23504 C 2117.7 -0.95584 -3.47701 0
M  V30 23505 O 2116.8 -0.046501 -4.12374 0
M  V30 23506 H 2116.14 -0.249541 -0.615325 0
M  V30 23507 H 2118.67 -1.31066 -1.57108 0
M  V30 23508 H 2118.68 -0.891475 -3.98142 0
M  V30 23509 H 2117.36 -1.99494 -3.64932 0
M  V30 23510 H 2115.93 -0.165051 -3.72535 0
M  V30 23511 N 2118.12 1.38658 -0.749111 0
M  V30 23512 C 2119.07 2.27805 -0.0942107 0
M  V30 23513 C 2120.05 1.44975 0.697929 0
M  V30 23514 O 2121.24 1.67753 0.564619 0
M  V30 23515 C 2118.37 3.33811 0.801579 0
M  V30 23516 C 2117.46 4.241 0.0028319 0
M  V30 23517 N 2117.85 4.95175 -1.03129 0
M  V30 23518 C 2116.15 4.45405 0.230336 0
M  V30 23519 C 2116.85 5.61648 -1.51416 0
M  V30 23520 N 2115.82 5.37222 -0.830252 0
M  V30 23521 H 2119.63 2.80218 -0.886296 0
M  V30 23522 H 2117.14 1.51508 -0.584738 0
M  V30 23523 H 2119.14 3.96559 1.28634 0
M  V30 23524 H 2117.8 2.82956 1.59267 0
M  V30 23525 H 2118.81 4.98252 -1.41298 0
M  V30 23526 H 2115.49 4.05467 0.995116 0
M  V30 23527 H 2116.88 6.28513 -2.37531 0
M  V30 23528 N 2119.6 0.497834 1.49531 0
M  V30 23529 C 2120.87 -0.110673 1.95287 0
M  V30 23530 C 2121.25 -1.54433 1.43923 0
M  V30 23531 O 2120.6 -2.19012 0.651616 0
M  V30 23532 C 2120.81 -0.0265636 3.4899 0
M  V30 23533 C 2122.16 -0.202082 4.24119 0
M  V30 23534 O 2123.18 -0.1019 3.56054 0
M  V30 23535 O 2122.04 -0.407373 5.4498 0
M  V30 23536 H 2119.14 -0.0970406 0.821287 0
M  V30 23537 H 2121.68 0.560146 1.60189 0
M  V30 23538 H 2120.45 0.973355 3.79001 0
M  V30 23539 H 2120.08 -0.737668 3.90697 0
M  V30 23540 N 2121.07 -1.5589 0.231532 0
M  V30 23541 C 2121.98 -2.24359 -0.685566 0
M  V30 23542 C 2123 -1.25454 -1.20571 0
M  V30 23543 O 2124.18 -1.58292 -1.24522 0
M  V30 23544 C 2121.24 -2.91783 -1.87252 0
M  V30 23545 C 2120.3 -4.06059 -1.39337 0
M  V30 23546 C 2119.53 -4.70258 -2.52375 0
M  V30 23547 O 2119.76 -4.33477 -3.70747 0
M  V30 23548 O 2118.69 -5.59063 -2.23008 0
M  V30 23549 H 2122.52 -3.03412 -0.132235 0
M  V30 23550 H 2120.1 -1.494 0.000664697 0
M  V30 23551 H 2121.98 -3.34305 -2.56551 0
M  V30 23552 H 2120.66 -2.15683 -2.41377 0
M  V30 23553 H 2119.57 -3.68086 -0.668112 0
M  V30 23554 H 2120.9 -4.83932 -0.898393 0
M  V30 23555 N 2122.55 0.0417572 -1.57545 0
M  V30 23556 C 2123.48 1.079 -2.01079 0
M  V30 23557 C 2124.46 1.35893 -0.892851 0
M  V30 23558 O 2125.65 1.48763 -1.15766 0
M  V30 23559 C 2122.77 2.41667 -2.37308 0
M  V30 23560 C 2121.82 2.29614 -3.59416 0
M  V30 23561 S 2122.65 1.66161 -5.09069 0
M  V30 23562 C 2123.81 3.01444 -5.48527 0
M  V30 23563 H 2124.04 0.70813 -2.88743 0
M  V30 23564 H 2121.57 0.251319 -1.52341 0
M  V30 23565 H 2123.53 3.186 -2.58852 0
M  V30 23566 H 2122.19 2.75905 -1.50118 0
M  V30 23567 H 2121.39 3.28333 -3.82379 0
M  V30 23568 H 2120.99 1.60822 -3.37657 0
M  V30 23569 H 2123.28 3.97775 -5.48435 0
M  V30 23570 H 2124.22 2.83228 -6.48989 0
M  V30 23571 H 2124.63 3.03433 -4.76014 0
M  V30 23572 N 2124.03 1.54445 0.313786 0
M  V30 23573 C 2124.98 1.8451 1.38654 0
M  V30 23574 C 2125.95 0.692957 1.50955 0
M  V30 23575 O 2127.13 0.940344 1.66019 0
M  V30 23576 C 2124.27 2.08672 2.74863 0
M  V30 23577 C 2123.38 3.36334 2.71115 0
M  V30 23578 C 2122.52 3.50406 3.99235 0
M  V30 23579 C 2121.56 4.71907 3.89833 0
M  V30 23580 N 2120.7 4.82853 5.09703 0
M  V30 23581 H 2125.54 2.76024 1.12315 0
M  V30 23582 H 2123.07 1.36691 0.543496 0
M  V30 23583 H 2125.03 2.20675 3.5406 0
M  V30 23584 H 2123.66 1.20438 2.9949 0
M  V30 23585 H 2122.71 3.33019 1.83855 0
M  V30 23586 H 2124.02 4.25645 2.60054 0
M  V30 23587 H 2123.18 3.62004 4.86865 0
M  V30 23588 H 2121.92 2.59206 4.13115 0
M  V30 23589 H 2120.92 4.60356 3.00587 0
M  V30 23590 H 2122.15 5.64502 3.7751 0
M  V30 23591 H 2120.09 3.94572 5.2407 0
M  V30 23592 H 2120.01 5.66145 5.01015 0
M  V30 23593 H 2121.28 4.98794 5.9902 0
M  V30 23594 N 2125.51 -0.576345 1.46683 0
M  V30 23595 C 2126.73 -1.36505 1.56145 0
M  V30 23596 C 2127.16 -1.86975 0.20539 0
M  V30 23597 O 2126.52 -1.6192 -0.815566 0
M  V30 23598 C 2126.56 -2.52417 2.57523 0
M  V30 23599 O 2125.67 -3.54056 2.11467 0
M  V30 23600 H 2125.01 -0.406262 0.525211 0
M  V30 23601 H 2127.54 -0.698466 1.92309 0
M  V30 23602 H 2127.55 -2.99248 2.77335 0
M  V30 23603 H 2126.22 -2.15036 3.55995 0
M  V30 23604 H 2124.8 -3.13661 2.01671 0
M  V30 23605 N 2126.99 -1.34495 -0.82151 0
M  V30 23606 C 2128.23 -1.27119 -1.58014 0
M  V30 23607 C 2128.56 0.158163 -1.93555 0
M  V30 23608 O 2127.84 1.10389 -1.60139 0
M  V30 23609 C 2128.12 -2.16338 -2.87871 0
M  V30 23610 C 2127.98 -3.67818 -2.58902 0
M  V30 23611 C 2129.29 -2.04971 -3.89455 0
M  V30 23612 H 2126.41 -0.463115 -0.573318 0
M  V30 23613 H 2129.06 -1.6476 -0.946264 0
M  V30 23614 H 2127.21 -1.84367 -3.41966 0
M  V30 23615 H 2128.88 -4.10161 -2.11106 0
M  V30 23616 H 2127.12 -3.88837 -1.92324 0
M  V30 23617 H 2127.79 -4.25612 -3.51509 0
M  V30 23618 H 2130.27 -2.33044 -3.44717 0
M  V30 23619 H 2129.14 -2.6962 -4.78118 0
M  V30 23620 H 2129.4 -1.02711 -4.30003 0
M  V30 23621 N 2128.46 1.04188 -1.18248 0
M  V30 23622 C 2129.43 2.10339 -0.910507 0
M  V30 23623 C 2130.43 1.60466 0.103607 0
M  V30 23624 O 2131.62 1.73717 -0.129699 0
M  V30 23625 C 2128.75 3.38931 -0.36584 0
M  V30 23626 H 2129.94 2.359 -1.85179 0
M  V30 23627 H 2127.5 1.20593 -0.994332 0
M  V30 23628 H 2128.23 3.19033 0.582115 0
M  V30 23629 H 2128.02 3.76446 -1.09686 0
M  V30 23630 H 2129.51 4.17148 -0.194209 0
M  V30 23631 N 2129.94 0.98432 1.23081 0
M  V30 23632 C 2130.89 0.527474 2.24692 0
M  V30 23633 C 2131.86 -0.435706 1.60284 0
M  V30 23634 O 2133.04 -0.342378 1.87703 0
M  V30 23635 C 2130.18 -0.160141 3.44728 0
M  V30 23636 C 2129.3 0.843763 4.2368 0
M  V30 23637 C 2128.43 0.130552 5.3104 0
M  V30 23638 C 2127.47 1.1234 6.01703 0
M  V30 23639 N 2126.61 0.439082 7.00726 0
M  V30 23640 H 2131.45 1.39873 2.63134 0
M  V30 23641 H 2128.99 0.700815 1.29333 0
M  V30 23642 H 2130.94 -0.575649 4.1321 0
M  V30 23643 H 2129.57 -0.995239 3.07075 0
M  V30 23644 H 2128.63 1.37764 3.54578 0
M  V30 23645 H 2129.94 1.60017 4.72436 0
M  V30 23646 H 2129.09 -0.342123 6.05735 0
M  V30 23647 H 2127.83 -0.65843 4.83235 0
M  V30 23648 H 2126.84 1.60679 5.25797 0
M  V30 23649 H 2128.06 1.91311 6.51596 0
M  V30 23650 H 2126.01 -0.33062 6.55166 0
M  V30 23651 H 2125.92 1.13408 7.47445 0
M  V30 23652 H 2127.19 -0.0110751 7.79499 0
M  V30 23653 N 2131.42 -1.38259 0.756453 0
M  V30 23654 C 2132.33 -2.34224 0.132796 0
M  V30 23655 C 2133.35 -1.59415 -0.697351 0
M  V30 23656 O 2134.52 -1.91592 -0.620838 0
M  V30 23657 C 2131.59 -3.38542 -0.747682 0
M  V30 23658 C 2130.65 -4.2919 0.097166 0
M  V30 23659 C 2129.88 -5.28526 -0.741383 0
M  V30 23660 O 2130.1 -5.34959 -1.97926 0
M  V30 23661 O 2129.04 -6.01691 -0.158669 0
M  V30 23662 H 2132.86 -2.89257 0.925409 0
M  V30 23663 H 2130.45 -1.40155 0.517388 0
M  V30 23664 H 2132.33 -4.02409 -1.25081 0
M  V30 23665 H 2131.01 -2.8586 -1.51874 0
M  V30 23666 H 2129.91 -3.68475 0.646311 0
M  V30 23667 H 2131.25 -4.85135 0.830947 0
M  V30 23668 N 2132.9 -0.505757 -1.49264 0
M  V30 23669 C 2133.85 0.270127 -2.29214 0
M  V30 23670 C 2134.82 0.956031 -1.35828 0
M  V30 23671 O 2136 0.961771 -1.64787 0
M  V30 23672 C 2133.14 1.32577 -3.18618 0
M  V30 23673 C 2132.25 0.65116 -4.27064 0
M  V30 23674 C 2131.39 1.68765 -5.03678 0
M  V30 23675 C 2130.43 0.995172 -6.03956 0
M  V30 23676 N 2129.56 1.97608 -6.73718 0
M  V30 23677 H 2134.4 -0.41788 -2.95056 0
M  V30 23678 H 2131.94 -0.217921 -1.45477 0
M  V30 23679 H 2133.9 1.94985 -3.68832 0
M  V30 23680 H 2132.53 1.98248 -2.5475 0
M  V30 23681 H 2131.58 -0.0863124 -3.80302 0
M  V30 23682 H 2132.89 0.106277 -4.98687 0
M  V30 23683 H 2132.05 2.38665 -5.57785 0
M  V30 23684 H 2130.79 2.2664 -4.3184 0
M  V30 23685 H 2129.79 0.281968 -5.49076 0
M  V30 23686 H 2131.02 0.422861 -6.77782 0
M  V30 23687 H 2128.96 2.54436 -6.04647 0
M  V30 23688 H 2128.88 1.48199 -7.41332 0
M  V30 23689 H 2130.15 2.66782 -7.32426 0
M  V30 23690 N 2134.38 1.55765 -0.239796 0
M  V30 23691 C 2135.65 1.90659 0.436876 0
M  V30 23692 C 2136.03 1.1596 1.76398 0
M  V30 23693 O 2135.38 0.274778 2.26842 0
M  V30 23694 C 2135.59 3.43593 0.611939 0
M  V30 23695 C 2136.94 4.1471 0.911065 0
M  V30 23696 O 2137.96 3.49293 0.698064 0
M  V30 23697 O 2136.82 5.30411 1.3163 0
M  V30 23698 H 2133.92 0.793348 0.233511 0
M  V30 23699 H 2136.46 1.67318 -0.283335 0
M  V30 23700 H 2135.23 3.89961 -0.323424 0
M  V30 23701 H 2134.86 3.72773 1.38296 0
M  V30 23702 N 2135.85 -0.0334016 1.57565 0
M  V30 23703 C 2137.13 -0.760253 1.80221 0
M  V30 23704 C 2137.51 -1.93806 0.836817 0
M  V30 23705 O 2136.86 -2.28174 -0.121959 0
M  V30 23706 C 2137.07 -1.19735 3.27818 0
M  V30 23707 C 2138.42 -1.61505 3.92685 0
M  V30 23708 O 2139.44 -1.29204 3.31941 0
M  V30 23709 O 2138.3 -2.21441 4.99626 0
M  V30 23710 H 2135.39 -0.36729 0.740964 0
M  V30 23711 H 2137.94 -0.0105137 1.69697 0
M  V30 23712 H 2136.71 -0.356354 3.89674 0
M  V30 23713 H 2136.34 -2.00724 3.43214 0
M  V30 23714 N 2137.33 -1.54609 -0.305591 0
M  V30 23715 C 2138.26 -1.88242 -1.38157 0
M  V30 23716 C 2139.24 -0.740883 -1.53117 0
M  V30 23717 O 2140.43 -0.996214 -1.66701 0
M  V30 23718 C 2137.56 -2.12567 -2.7465 0
M  V30 23719 C 2136.51 -3.28415 -2.74459 0
M  V30 23720 C 2135.84 -3.38148 -4.14198 0
M  V30 23721 C 2137.14 -4.65633 -2.36607 0
M  V30 23722 H 2138.83 -2.78359 -1.10258 0
M  V30 23723 H 2136.38 -1.33933 -0.528959 0
M  V30 23724 H 2138.33 -2.34681 -3.50004 0
M  V30 23725 H 2137.06 -1.19216 -3.04064 0
M  V30 23726 H 2135.71 -3.06217 -2.01561 0
M  V30 23727 H 2135.36 -2.42323 -4.40782 0
M  V30 23728 H 2135.06 -4.16019 -4.14973 0
M  V30 23729 H 2136.59 -3.62517 -4.91339 0
M  V30 23730 H 2138 -4.87508 -3.01677 0
M  V30 23731 H 2136.4 -5.46184 -2.48603 0
M  V30 23732 H 2137.47 -4.66662 -1.31738 0
M  V30 23733 N 2138.81 0.568558 -1.46987 0
M  V30 23734 C 2139.74 1.69147 -1.54668 0
M  V30 23735 C 2140.76 1.56914 -0.433789 0
M  V30 23736 O 2141.94 1.6408 -0.702853 0
M  V30 23737 C 2139.04 3.07522 -1.4242 0
M  V30 23738 C 2138.22 3.45619 -2.68078 0
M  V30 23739 C 2137.28 4.63111 -2.49829 0
M  V30 23740 O 2136.3 4.68261 -3.23605 0
M  V30 23741 N 2137.5 5.5889 -1.56914 0
M  V30 23742 H 2140.27 1.63008 -2.51492 0
M  V30 23743 H 2137.83 0.75491 -1.43223 0
M  V30 23744 H 2139.82 3.83937 -1.27963 0
M  V30 23745 H 2138.39 3.07949 -0.537222 0
M  V30 23746 H 2137.61 2.58767 -2.97378 0
M  V30 23747 H 2138.9 3.67844 -3.51523 0
M  V30 23748 H 2138.3 5.57477 -0.961042 0
M  V30 23749 H 2136.86 6.34678 -1.48414 0
M  V30 23750 N 2140.29 1.34929 0.814366 0
M  V30 23751 C 2141.7 1.14798 1.10877 0
M  V30 23752 C 2141.9 -0.0447901 2.0145 0
M  V30 23753 O 2140.96 -0.717746 2.42084 0
M  V30 23754 C 2142.27 2.44729 1.74724 0
M  V30 23755 C 2143.82 2.50864 1.8718 0
M  V30 23756 C 2144.3 3.80819 2.54443 0
M  V30 23757 N 2145.79 3.82027 2.61935 0
M  V30 23758 C 2146.52 4.79305 3.14729 0
M  V30 23759 N 2146.02 5.86969 3.68021 0
M  V30 23760 N 2147.81 4.6675 3.1321 0
M  V30 23761 H 2139.96 2.11338 0.212102 0
M  V30 23762 H 2142.23 0.934964 0.156671 0
M  V30 23763 H 2141.93 3.32146 1.15637 0
M  V30 23764 H 2141.81 2.58702 2.74505 0
M  V30 23765 H 2144.19 1.6388 2.45412 0
M  V30 23766 H 2144.27 2.40811 0.862763 0
M  V30 23767 H 2143.92 4.68196 1.96862 0
M  V30 23768 H 2143.85 3.88157 3.55867 0
M  V30 23769 H 2146.34 3.04231 2.2417 0
M  V30 23770 H 2146.65 6.57199 4.06582 0
M  V30 23771 H 2145 5.90671 3.66241 0
M  V30 23772 H 2148.19 3.81784 2.70849 0
M  V30 23773 H 2148.36 5.42728 3.54049 0
M  V30 23774 N 2141.77 -1.0356 1.18799 0
M  V30 23775 C 2142.7 -2.13602 0.943213 0
M  V30 23776 C 2143.68 -1.69669 -0.120965 0
M  V30 23777 O 2144.86 -1.94173 0.0326748 0
M  V30 23778 C 2141.99 -3.44054 0.473716 0
M  V30 23779 C 2140.95 -4.01635 1.47896 0
M  V30 23780 C 2140.27 -5.27628 0.866789 0
M  V30 23781 C 2141.57 -4.3722 2.8572 0
M  V30 23782 H 2143.27 -2.34336 1.86351 0
M  V30 23783 H 2140.81 -1.12617 0.897406 0
M  V30 23784 H 2142.77 -4.20402 0.289804 0
M  V30 23785 H 2141.49 -3.23021 -0.482167 0
M  V30 23786 H 2140.15 -3.27374 1.6499 0
M  V30 23787 H 2139.8 -5.02908 -0.0964386 0
M  V30 23788 H 2139.5 -5.67115 1.53799 0
M  V30 23789 H 2141.02 -6.06649 0.693523 0
M  V30 23790 H 2142.43 -5.04533 2.72248 0
M  V30 23791 H 2140.83 -4.87771 3.49571 0
M  V30 23792 H 2141.9 -3.46821 3.38885 0
M  V30 23793 N 2143.25 -0.990834 -1.22557 0
M  V30 23794 C 2144.18 -0.497682 -2.23731 0
M  V30 23795 C 2145.19 0.406113 -1.57653 0
M  V30 23796 O 2146.38 0.208577 -1.77277 0
M  V30 23797 C 2143.48 0.298244 -3.37585 0
M  V30 23798 C 2142.65 -0.601189 -4.33249 0
M  V30 23799 C 2141.71 0.142675 -5.26007 0
M  V30 23800 O 2140.74 -0.471227 -5.67246 0
M  V30 23801 N 2141.94 1.42559 -5.62723 0
M  V30 23802 H 2144.7 -1.36766 -2.66674 0
M  V30 23803 H 2142.27 -0.86531 -1.36836 0
M  V30 23804 H 2144.26 0.804481 -3.96623 0
M  V30 23805 H 2142.83 1.06931 -2.93742 0
M  V30 23806 H 2142.05 -1.28812 -3.7256 0
M  V30 23807 H 2143.34 -1.21379 -4.9411 0
M  V30 23808 H 2142.73 1.94571 -5.31186 0
M  V30 23809 H 2141.29 1.87706 -6.24187 0
M  V30 23810 N 2144.72 1.37856 -0.763775 0
M  V30 23811 C 2145.63 2.3415 -0.145216 0
M  V30 23812 C 2146.65 1.59782 0.688888 0
M  V30 23813 O 2147.83 1.91919 0.610668 0
M  V30 23814 C 2144.89 3.38934 0.729718 0
M  V30 23815 C 2143.95 4.29132 -0.119926 0
M  V30 23816 C 2143.18 5.28911 0.713343 0
M  V30 23817 O 2143.41 5.36002 1.95086 0
M  V30 23818 O 2142.34 6.01767 0.126758 0
M  V30 23819 H 2146.17 2.88763 -0.940736 0
M  V30 23820 H 2143.75 1.39879 -0.524814 0
M  V30 23821 H 2145.63 4.03066 1.22946 0
M  V30 23822 H 2144.31 2.86661 1.50356 0
M  V30 23823 H 2143.22 3.68127 -0.665843 0
M  V30 23824 H 2144.55 4.84688 -0.856664 0
M  V30 23825 N 2146.2 0.513665 1.48994 0
M  V30 23826 C 2147.45 -0.0263732 2.02783 0
M  V30 23827 C 2147.78 -1.35469 1.39147 0
M  V30 23828 O 2147.06 -1.87097 0.531511 0
M  V30 23829 C 2147.34 -0.165605 3.59719 0
M  V30 23830 C 2147.19 1.18673 4.33863 0
M  V30 23831 C 2148.51 -0.900228 4.30794 0
M  V30 23832 H 2145.63 -0.00811043 0.736955 0
M  V30 23833 H 2148.27 0.667534 1.77888 0
M  V30 23834 H 2146.42 -0.756613 3.81061 0
M  V30 23835 H 2148.09 1.81759 4.23983 0
M  V30 23836 H 2146.34 1.77281 3.95922 0
M  V30 23837 H 2147.01 1.04247 5.42067 0
M  V30 23838 H 2149.48 -0.398863 4.14184 0
M  V30 23839 H 2148.36 -0.966514 5.40324 0
M  V30 23840 H 2148.62 -1.94685 3.96926 0
M  V30 23841 N 2147.68 -1.55636 0.248053 0
M  V30 23842 C 2148.61 -2.2441 -0.645175 0
M  V30 23843 C 2149.59 -1.22477 -1.18039 0
M  V30 23844 O 2150.78 -1.51133 -1.21953 0
M  V30 23845 C 2147.91 -2.94446 -1.84171 0
M  V30 23846 C 2146.86 -4.03076 -1.43922 0
M  V30 23847 C 2146.19 -4.60544 -2.71668 0
M  V30 23848 C 2147.49 -5.18732 -0.609431 0
M  V30 23849 H 2149.18 -2.99314 -0.0716951 0
M  V30 23850 H 2146.73 -1.43962 -0.033043 0
M  V30 23851 H 2148.68 -3.41259 -2.47225 0
M  V30 23852 H 2147.4 -2.17031 -2.44059 0
M  V30 23853 H 2146.06 -3.57034 -0.832012 0
M  V30 23854 H 2145.71 -3.79829 -3.29756 0
M  V30 23855 H 2145.41 -5.33876 -2.4546 0
M  V30 23856 H 2146.93 -5.10091 -3.35618 0
M  V30 23857 H 2148.35 -5.61764 -1.1443 0
M  V30 23858 H 2146.74 -5.9846 -0.443361 0
M  V30 23859 H 2147.81 -4.83424 0.378087 0
M  V30 23860 N 2149.16 0.0250451 -1.5758 0
M  V30 23861 C 2150.09 1.05207 -2.03627 0
M  V30 23862 C 2151.1 1.32224 -0.949769 0
M  V30 23863 O 2152.29 1.29641 -1.22701 0
M  V30 23864 C 2149.39 2.39277 -2.39999 0
M  V30 23865 C 2148.56 2.31559 -3.71078 0
M  V30 23866 C 2147.62 3.48111 -3.94595 0
M  V30 23867 O 2146.65 3.27424 -4.65599 0
M  V30 23868 N 2147.85 4.70117 -3.40545 0
M  V30 23869 H 2150.62 0.659567 -2.92352 0
M  V30 23870 H 2148.18 0.212915 -1.60494 0
M  V30 23871 H 2150.17 3.15976 -2.52866 0
M  V30 23872 H 2148.74 2.70358 -1.56924 0
M  V30 23873 H 2147.96 1.39933 -3.68527 0
M  V30 23874 H 2149.25 2.23549 -4.57059 0
M  V30 23875 H 2148.65 4.89824 -2.83 0
M  V30 23876 H 2147.2 5.44167 -3.58784 0
M  V30 23877 N 2150.64 1.54769 0.297388 0
M  V30 23878 C 2151.86 1.78543 1.05533 0
M  V30 23879 C 2152.29 0.54501 1.80031 0
M  V30 23880 O 2151.64 -0.504585 1.74137 0
M  V30 23881 C 2151.69 2.99469 2.00874 0
M  V30 23882 O 2150.8 2.72847 3.09238 0
M  V30 23883 H 2150.14 0.590843 0.302985 0
M  V30 23884 H 2152.67 2.0186 0.333711 0
M  V30 23885 H 2152.68 3.27538 2.43275 0
M  V30 23886 H 2151.35 3.8941 1.46058 0
M  V30 23887 H 2149.93 2.55805 2.71327 0
M  V30 23888 N 2152.11 -0.560755 1.47286 0
M  V30 23889 C 2153.02 -1.69558 1.62133 0
M  V30 23890 C 2154.04 -1.66533 0.50425 0
M  V30 23891 O 2155.22 -1.86045 0.771315 0
M  V30 23892 C 2152.28 -3.06065 1.62865 0
M  V30 23893 C 2151.34 -3.20185 2.85972 0
M  V30 23894 C 2150.57 -4.5018 2.8666 0
M  V30 23895 O 2150.8 -5.35423 1.96669 0
M  V30 23896 O 2149.73 -4.68015 3.78478 0
M  V30 23897 H 2153.56 -1.59976 2.5815 0
M  V30 23898 H 2151.14 -0.730353 1.30331 0
M  V30 23899 H 2153.02 -3.87307 1.66046 0
M  V30 23900 H 2151.7 -3.16037 0.700143 0
M  V30 23901 H 2150.61 -2.38353 2.88337 0
M  V30 23902 H 2151.94 -3.15114 3.78106 0
M  V30 23903 N 2153.59 -1.35359 -0.807199 0
M  V30 23904 C 2154.82 -1.31869 -1.60079 0
M  V30 23905 C 2155.24 0.101387 -1.87827 0
M  V30 23906 O 2154.6 1.06801 -1.46503 0
M  V30 23907 C 2154.65 -2.13049 -2.90934 0
M  V30 23908 O 2153.75 -1.51079 -3.8373 0
M  V30 23909 H 2153.09 -0.452158 -0.486261 0
M  V30 23910 H 2155.62 -1.78391 -1.00189 0
M  V30 23911 H 2155.63 -2.24982 -3.40363 0
M  V30 23912 H 2154.31 -3.16289 -2.70063 0
M  V30 23913 H 2152.88 -1.47982 -3.4228 0
M  V30 23914 N 2155.07 1.02928 -1.19346 0
M  V30 23915 C 2156.35 1.73394 -0.905199 0
M  V30 23916 C 2156.73 2.02711 0.589208 0
M  V30 23917 O 2156.07 1.68142 1.54727 0
M  V30 23918 C 2156.28 3.01097 -1.7647 0
M  V30 23919 C 2157.63 3.74613 -1.99876 0
M  V30 23920 O 2158.66 3.11023 -1.73618 0
M  V30 23921 O 2157.52 4.88931 -2.44149 0
M  V30 23922 H 2154.61 0.755081 -0.337316 0
M  V30 23923 H 2157.16 1.08891 -1.30157 0
M  V30 23924 H 2155.93 2.75657 -2.77721 0
M  V30 23925 H 2155.55 3.7334 -1.36758 0
M  V30 23926 N 2156.55 0.997319 1.2203 0
M  V30 23927 C 2157.48 0.50954 2.23464 0
M  V30 23928 C 2158.49 -0.397746 1.57866 0
M  V30 23929 O 2159.68 -0.199173 1.77385 0
M  V30 23930 C 2156.78 -0.280337 3.37739 0
M  V30 23931 C 2155.95 0.624157 4.32924 0
M  V30 23932 C 2155.01 -0.114778 5.26075 0
M  V30 23933 O 2154.04 0.501303 5.66988 0
M  V30 23934 N 2155.24 -1.39573 5.63471 0
M  V30 23935 H 2158.01 1.38179 2.65945 0
M  V30 23936 H 2155.57 0.872554 1.36375 0
M  V30 23937 H 2157.56 -0.783436 3.97045 0
M  V30 23938 H 2156.13 -1.05371 2.94305 0
M  V30 23939 H 2155.35 1.30786 3.71872 0
M  V30 23940 H 2156.64 1.23998 4.93459 0
M  V30 23941 H 2156.04 -1.91751 5.3221 0
M  V30 23942 H 2154.59 -1.84393 6.25174 0
M  V30 23943 N 2158.03 -1.37449 0.771075 0
M  V30 23944 C 2158.96 -2.32874 0.170867 0
M  V30 23945 C 2159.94 -1.55746 -0.683892 0
M  V30 23946 O 2161.12 -1.83987 -0.621492 0
M  V30 23947 C 2158.25 -3.39974 -0.709566 0
M  V30 23948 C 2157.21 -4.27978 0.0438353 0
M  V30 23949 C 2156.53 -5.26084 -0.955998 0
M  V30 23950 C 2157.83 -5.07793 1.22245 0
M  V30 23951 H 2159.53 -2.83319 0.968038 0
M  V30 23952 H 2157.07 -1.36219 0.466952 0
M  V30 23953 H 2159.03 -4.05708 -1.13926 0
M  V30 23954 H 2157.75 -2.88053 -1.53925 0
M  V30 23955 H 2156.41 -3.63774 0.454301 0
M  V30 23956 H 2156.06 -4.70444 -1.78021 0
M  V30 23957 H 2155.76 -5.85824 -0.456445 0
M  V30 23958 H 2157.28 -5.94693 -1.38465 0
M  V30 23959 H 2158.69 -5.66669 0.869436 0
M  V30 23960 H 2157.09 -5.76855 1.65404 0
M  V30 23961 H 2158.16 -4.40506 2.02688 0
M  V30 23962 N 2159.5 -0.52156 -1.4872 0
M  V30 23963 C 2160.45 0.2458 -2.29487 0
M  V30 23964 C 2161.42 0.941571 -1.36834 0
M  V30 23965 O 2162.61 0.944239 -1.65797 0
M  V30 23966 C 2159.75 1.2919 -3.20006 0
M  V30 23967 C 2158.86 0.605827 -4.27731 0
M  V30 23968 C 2157.99 1.63413 -5.0544 0
M  V30 23969 C 2157.03 0.931058 -6.04977 0
M  V30 23970 N 2156.17 1.90451 -6.75776 0
M  V30 23971 H 2161.01 -0.449151 -2.94596 0
M  V30 23972 H 2158.55 -0.233338 -1.45238 0
M  V30 23973 H 2160.51 1.91062 -3.70879 0
M  V30 23974 H 2159.14 1.95534 -2.56839 0
M  V30 23975 H 2158.19 -0.126644 -3.80189 0
M  V30 23976 H 2159.5 0.0533786 -4.98771 0
M  V30 23977 H 2158.65 2.32736 -5.60285 0
M  V30 23978 H 2157.39 2.22047 -4.3422 0
M  V30 23979 H 2156.4 0.223716 -5.49345 0
M  V30 23980 H 2157.62 0.350949 -6.78193 0
M  V30 23981 H 2155.57 2.48008 -6.07312 0
M  V30 23982 H 2155.49 1.40328 -7.42862 0
M  V30 23983 H 2156.75 2.58999 -7.35214 0
M  V30 23984 N 2160.98 1.55502 -0.256304 0
M  V30 23985 C 2161.89 2.25422 0.649785 0
M  V30 23986 C 2162.91 1.27356 1.1856 0
M  V30 23987 O 2164.08 1.60253 1.21988 0
M  V30 23988 C 2161.15 2.94725 1.82587 0
M  V30 23989 C 2160.21 4.08224 1.32859 0
M  V30 23990 C 2159.44 4.74213 2.44862 0
M  V30 23991 O 2159.67 4.39321 3.63804 0
M  V30 23992 O 2158.6 5.6254 2.14086 0
M  V30 23993 H 2162.43 3.03584 0.083948 0
M  V30 23994 H 2160.01 1.4938 -0.0244329 0
M  V30 23995 H 2161.89 3.38344 2.512 0
M  V30 23996 H 2160.57 2.19495 2.37915 0
M  V30 23997 H 2159.48 3.69102 0.609468 0
M  V30 23998 H 2160.81 4.853 0.82129 0
M  V30 23999 N 2162.46 -0.0166879 1.57591 0
M  V30 24000 C 2163.41 -1.03177 2.08464 0
M  V30 24001 C 2164.4 -1.36659 1.00103 0
M  V30 24002 O 2165.61 -1.35419 1.18582 0
M  V30 24003 H 2161.98 -0.350315 0.66542 0
M  V30 24004 H 2163.95 -0.576996 2.92768 0
M  V30 24005 C 2162.7 -2.32023 2.58961 0
M  V30 24006 H 2162.03 -2.07123 3.41965 0
M  V30 24007 H 2163.47 -3.01365 2.98253 0
M  V30 24008 C 2161.93 -3.01849 1.49629 0
M  V30 24009 O 2162.46 -3.92175 0.8696 0
M  V30 24010 N 2160.66 -2.63388 1.2278 0
M  V30 24011 H 2160.21 -1.9002 1.73926 0
M  V30 24012 H 2160.17 -3.10424 0.498436 0
M  V30 24013 N 2163.94 -1.54924 -0.289176 0
M  V30 24014 C 2165.19 -1.73974 -1.02059 0
M  V30 24015 C 2165.5 -0.539167 -1.88022 0
M  V30 24016 O 2166.71 -0.611723 -2.64519 0
M  V30 24017 C 2165.16 -3.07847 -1.86435 0
M  V30 24018 C 2164.77 -4.35421 -1.05417 0
M  V30 24019 C 2166.51 -3.36252 -2.59104 0
M  V30 24020 C 2164.42 -5.6034 -1.89138 0
M  V30 24021 H 2163.35 -0.648438 -0.384766 0
M  V30 24022 H 2166 -1.81397 -0.276999 0
M  V30 24023 H 2164.38 -2.94419 -2.64827 0
M  V30 24024 H 2165.56 -4.59718 -0.315551 0
M  V30 24025 H 2163.87 -4.14039 -0.442763 0
M  V30 24026 H 2166.47 -4.26785 -3.22115 0
M  V30 24027 H 2166.81 -2.55656 -3.28551 0
M  V30 24028 H 2167.35 -3.50705 -1.87753 0
M  V30 24029 H 2164.09 -6.43638 -1.2414 0
M  V30 24030 H 2163.61 -5.4021 -2.6064 0
M  V30 24031 H 2165.28 -5.98038 -2.46899 0
M  V30 24032 N 2165.42 0.552936 -1.47582 0
M  V30 24033 C 2166.36 1.65963 -1.60389 0
M  V30 24034 C 2167.33 1.59979 -0.446754 0
M  V30 24035 O 2168.52 1.78749 -0.667351 0
M  V30 24036 C 2165.66 3.04278 -1.62815 0
M  V30 24037 C 2164.77 3.20668 -2.89476 0
M  V30 24038 C 2163.91 4.49406 -2.8321 0
M  V30 24039 C 2162.95 4.59243 -4.04676 0
M  V30 24040 N 2162.08 5.79341 -3.96621 0
M  V30 24041 H 2166.92 1.54355 -2.54909 0
M  V30 24042 H 2164.46 0.751844 -1.26435 0
M  V30 24043 H 2166.42 3.84377 -1.62204 0
M  V30 24044 H 2165.05 3.14712 -0.718048 0
M  V30 24045 H 2164.1 2.33973 -2.99935 0
M  V30 24046 H 2165.41 3.238 -3.79414 0
M  V30 24047 H 2164.57 5.3777 -2.80872 0
M  V30 24048 H 2163.3 4.4876 -1.90961 0
M  V30 24049 H 2162.31 3.69291 -4.07314 0
M  V30 24050 H 2163.53 4.61645 -4.98057 0
M  V30 24051 H 2161.48 5.79636 -3.07178 0
M  V30 24052 H 2161.4 5.8387 -4.80242 0
M  V30 24053 H 2162.67 6.70054 -3.98306 0
M  V30 24054 N 2166.89 1.35785 0.800009 0
M  V30 24055 C 2167.8 1.31374 1.94366 0
M  V30 24056 C 2168.82 0.217584 1.72634 0
M  V30 24057 O 2170 0.448112 1.96352 0
M  V30 24058 C 2167.06 1.09184 3.29059 0
M  V30 24059 C 2166.12 2.28175 3.63641 0
M  V30 24060 C 2165.36 2.07034 4.91907 0
M  V30 24061 O 2165.58 1.04013 5.60836 0
M  V30 24062 O 2164.51 2.94557 5.249 0
M  V30 24063 H 2168.34 2.27637 2.01035 0
M  V30 24064 H 2165.92 1.16224 0.938743 0
M  V30 24065 H 2167.81 0.98684 4.09682 0
M  V30 24066 H 2166.48 0.159766 3.23305 0
M  V30 24067 H 2165.39 2.44241 2.83367 0
M  V30 24068 H 2166.72 3.19852 3.74106 0
M  V30 24069 N 2168.37 -1.02294 1.19891 0
M  V30 24070 C 2169.62 -1.75196 0.999463 0
M  V30 24071 C 2169.93 -1.89874 -0.469823 0
M  V30 24072 O 2171.14 -2.59806 -0.788235 0
M  V30 24073 C 2169.6 -3.15074 1.73944 0
M  V30 24074 C 2169.2 -3.0843 3.24923 0
M  V30 24075 C 2170.95 -3.9223 1.62345 0
M  V30 24076 C 2168.86 -4.43277 3.91484 0
M  V30 24077 H 2167.79 -0.656782 0.370342 0
M  V30 24078 H 2170.44 -1.14434 1.43447 0
M  V30 24079 H 2168.82 -3.76339 1.23227 0
M  V30 24080 H 2169.99 -2.5651 3.82804 0
M  V30 24081 H 2168.31 -2.44769 3.36864 0
M  V30 24082 H 2170.9 -4.91983 2.09419 0
M  V30 24083 H 2171.25 -4.1226 0.578579 0
M  V30 24084 H 2171.78 -3.37579 2.1044 0
M  V30 24085 H 2168.52 -4.28451 4.96095 0
M  V30 24086 H 2168.04 -4.95228 3.38392 0
M  V30 24087 H 2169.72 -5.12142 3.95373 0
M  V30 24088 N 2169.85 -1.00378 -1.21499 0
M  V30 24089 C 2171.1 -0.686796 -1.90817 0
M  V30 24090 C 2171.43 0.780348 -1.77832 0
M  V30 24091 O 2170.7 1.56554 -1.15418 0
M  V30 24092 C 2170.99 -1.10705 -3.42661 0
M  V30 24093 C 2170.84 -2.63355 -3.64642 0
M  V30 24094 C 2172.16 -0.668506 -4.34993 0
M  V30 24095 H 2169.28 -0.250976 -0.69295 0
M  V30 24096 H 2171.92 -1.24924 -1.43157 0
M  V30 24097 H 2170.07 -0.628496 -3.83383 0
M  V30 24098 H 2171.74 -3.18964 -3.33256 0
M  V30 24099 H 2169.99 -3.04925 -3.0855 0
M  V30 24100 H 2170.66 -2.87812 -4.71029 0
M  V30 24101 H 2173.13 -1.07972 -4.01847 0
M  V30 24102 H 2172.01 -0.990733 -5.39885 0
M  V30 24103 H 2172.27 0.430413 -4.4 0
M  V30 24104 N 2171.33 1.37038 -0.778354 0
M  V30 24105 C 2172.29 2.28529 -0.175271 0
M  V30 24106 C 2173.29 1.48328 0.62093 0
M  V30 24107 O 2174.48 1.68459 0.443548 0
M  V30 24108 C 2171.61 3.32349 0.758757 0
M  V30 24109 H 2172.81 2.83372 -0.981858 0
M  V30 24110 H 2170.36 1.46415 -0.547012 0
M  V30 24111 H 2171.09 2.82642 1.5901 0
M  V30 24112 H 2170.88 3.9164 0.189916 0
M  V30 24113 H 2172.37 4.00701 1.17594 0
M  V30 24114 N 2172.81 0.529439 1.48441 0
M  V30 24115 C 2173.75 -0.233627 2.29615 0
M  V30 24116 C 2174.72 -0.934301 1.37332 0
M  V30 24117 O 2175.91 -0.935433 1.66296 0
M  V30 24118 C 2173.05 -1.27491 3.20687 0
M  V30 24119 C 2172.16 -0.583135 4.28046 0
M  V30 24120 C 2171.3 -1.6073 5.06299 0
M  V30 24121 C 2170.34 -0.898962 6.05463 0
M  V30 24122 N 2169.47 -1.86865 6.76776 0
M  V30 24123 H 2174.31 0.464768 2.94353 0
M  V30 24124 H 2171.85 0.241037 1.45112 0
M  V30 24125 H 2173.81 -1.89092 3.71887 0
M  V30 24126 H 2172.44 -1.9417 2.57872 0
M  V30 24127 H 2171.49 0.146804 3.80117 0
M  V30 24128 H 2172.8 -0.0269268 4.98793 0
M  V30 24129 H 2171.96 -2.29761 5.61511 0
M  V30 24130 H 2170.7 -2.19741 4.35391 0
M  V30 24131 H 2169.7 -0.194579 5.49456 0
M  V30 24132 H 2170.93 -0.314978 6.78369 0
M  V30 24133 H 2168.87 -2.44784 6.08619 0
M  V30 24134 H 2168.79 -1.36386 7.43596 0
M  V30 24135 H 2170.06 -2.55096 7.36577 0
M  V30 24136 N 2174.29 -1.55364 0.264547 0
M  V30 24137 C 2175.24 -2.18781 -0.641787 0
M  V30 24138 C 2176.22 -1.14912 -1.12624 0
M  V30 24139 O 2177.41 -1.40763 -1.07307 0
M  V30 24140 C 2174.54 -2.90435 -1.83037 0
M  V30 24141 C 2173.63 -4.0158 -1.3636 0
M  V30 24142 N 2174.02 -5.02081 -0.612243 0
M  V30 24143 C 2172.32 -4.14458 -1.64744 0
M  V30 24144 C 2173.02 -5.80533 -0.368214 0
M  V30 24145 N 2171.99 -5.35454 -0.937575 0
M  V30 24146 H 2175.79 -2.93839 -0.0597811 0
M  V30 24147 H 2173.31 -1.62259 0.067633 0
M  V30 24148 H 2175.31 -3.34309 -2.49085 0
M  V30 24149 H 2173.97 -2.16884 -2.41643 0
M  V30 24150 H 2174.98 -5.17244 -0.260611 0
M  V30 24151 H 2171.65 -3.52091 -2.24361 0
M  V30 24152 H 2173.04 -6.71497 0.23282 0
M  V30 24153 N 2175.76 0.00833021 -1.57598 0
M  V30 24154 C 2176.69 1.0015 -2.10932 0
M  V30 24155 C 2177.67 1.36385 -1.01653 0
M  V30 24156 O 2178.86 1.44906 -1.2929 0
M  V30 24157 C 2175.99 2.296 -2.60578 0
M  V30 24158 C 2174.94 2.07551 -3.74308 0
M  V30 24159 C 2174.27 3.42942 -4.10238 0
M  V30 24160 C 2175.57 1.44484 -5.01918 0
M  V30 24161 H 2177.26 0.557461 -2.94164 0
M  V30 24162 H 2174.81 0.266703 -1.41509 0
M  V30 24163 H 2176.76 2.99428 -2.96515 0
M  V30 24164 H 2175.49 2.76103 -1.74456 0
M  V30 24165 H 2174.15 1.40152 -3.38752 0
M  V30 24166 H 2173.79 3.87132 -3.21151 0
M  V30 24167 H 2173.49 3.29007 -4.86855 0
M  V30 24168 H 2175.02 4.14098 -4.48726 0
M  V30 24169 H 2176.43 2.04256 -5.35679 0
M  V30 24170 H 2174.83 1.41063 -5.83285 0
M  V30 24171 H 2175.9 0.413049 -4.83138 0
M  V30 24172 N 2177.24 1.55075 0.280956 0
M  V30 24173 C 2178.15 1.90495 1.36927 0
M  V30 24174 C 2179.17 0.801283 1.54452 0
M  V30 24175 O 2180.34 1.09962 1.68732 0
M  V30 24176 C 2177.41 2.16264 2.70981 0
M  V30 24177 C 2176.47 3.39872 2.6227 0
M  V30 24178 C 2175.7 3.64402 3.89932 0
M  V30 24179 O 2175.93 2.91582 4.90241 0
M  V30 24180 O 2174.86 4.57934 3.90615 0
M  V30 24181 H 2178.69 2.83123 1.09888 0
M  V30 24182 H 2176.27 1.4152 0.478787 0
M  V30 24183 H 2178.15 2.34299 3.5026 0
M  V30 24184 H 2176.83 1.2682 2.97823 0
M  V30 24185 H 2175.73 3.2718 1.81395 0
M  V30 24186 H 2177.07 4.2951 2.40379 0
M  V30 24187 N 2178.72 -0.545102 1.47873 0
M  V30 24188 C 2179.95 -1.32682 1.58755 0
M  V30 24189 C 2180.36 -1.8724 0.242172 0
M  V30 24190 O 2179.72 -1.65628 -0.766386 0
M  V30 24191 C 2179.77 -2.48828 2.62234 0
M  V30 24192 O 2179.49 -1.96522 3.91549 0
M  V30 24193 C 2180.99 -3.40869 2.83414 0
M  V30 24194 H 2178.21 -0.404033 0.535722 0
M  V30 24195 H 2180.76 -0.659132 1.93586 0
M  V30 24196 H 2178.91 -3.11511 2.30303 0
M  V30 24197 H 2179.33 -2.72436 4.48195 0
M  V30 24198 H 2180.8 -4.18751 3.59655 0
M  V30 24199 H 2181.28 -3.95166 1.91679 0
M  V30 24200 H 2181.88 -2.83991 3.1659 0
M  V30 24201 N 2180.2 -1.36208 -0.792797 0
M  V30 24202 C 2181.11 -1.32403 -1.93666 0
M  V30 24203 C 2182.12 -0.226736 -1.72516 0
M  V30 24204 O 2183.3 -0.458518 -1.96111 0
M  V30 24205 C 2180.36 -1.10928 -3.28475 0
M  V30 24206 C 2179.43 -2.301 -3.62426 0
M  V30 24207 C 2178.66 -2.0964 -4.90802 0
M  V30 24208 O 2178.88 -1.06985 -5.60277 0
M  V30 24209 O 2177.82 -2.97336 -5.23331 0
M  V30 24210 H 2181.64 -2.287 -1.99825 0
M  V30 24211 H 2179.23 -1.1672 -0.932566 0
M  V30 24212 H 2181.11 -1.00855 -4.09153 0
M  V30 24213 H 2179.78 -0.17691 -3.23216 0
M  V30 24214 H 2178.69 -2.45741 -2.82068 0
M  V30 24215 H 2180.02 -3.21832 -3.72405 0
M  V30 24216 N 2181.68 1.01656 -1.20431 0
M  V30 24217 C 2182.59 2.13658 -0.968877 0
M  V30 24218 C 2183.6 1.73837 0.075256 0
M  V30 24219 O 2184.78 2.01087 -0.112194 0
M  V30 24220 C 2181.84 3.42716 -0.524052 0
M  V30 24221 C 2180.9 3.9678 -1.63904 0
M  V30 24222 C 2180.14 5.19678 -1.21534 0
M  V30 24223 O 2180.36 5.70338 -0.0840508 0
M  V30 24224 O 2179.29 5.66893 -2.02278 0
M  V30 24225 H 2183.12 2.3639 -1.90666 0
M  V30 24226 H 2180.7 1.1205 -0.98819 0
M  V30 24227 H 2182.59 4.20434 -0.285221 0
M  V30 24228 H 2181.26 3.21401 0.385143 0
M  V30 24229 H 2180.17 3.20341 -1.93215 0
M  V30 24230 H 2181.5 4.22484 -2.52524 0
M  V30 24231 N 2183.15 1.01021 1.20965 0
M  V30 24232 C 2184.06 0.584483 2.27202 0
M  V30 24233 C 2185.08 -0.374977 1.69912 0
M  V30 24234 O 2186.26 -0.237516 1.99995 0
M  V30 24235 C 2183.32 -0.0769879 3.46615 0
M  V30 24236 C 2182.38 0.927608 4.19159 0
M  V30 24237 C 2181.61 0.297609 5.3287 0
M  V30 24238 O 2181.84 -0.904289 5.63186 0
M  V30 24239 O 2180.77 1.01114 5.93346 0
M  V30 24240 H 2184.6 1.46877 2.65821 0
M  V30 24241 H 2182.18 0.779356 1.27461 0
M  V30 24242 H 2184.06 -0.446718 4.19026 0
M  V30 24243 H 2182.74 -0.935572 3.09885 0
M  V30 24244 H 2181.65 1.34859 3.48947 0
M  V30 24245 H 2182.98 1.75595 4.59812 0
M  V30 24246 N 2184.63 -1.36623 0.78561 0
M  V30 24247 C 2185.56 -2.3268 0.195557 0
M  V30 24248 C 2186.54 -1.56463 -0.667335 0
M  V30 24249 O 2187.73 -1.84636 -0.601943 0
M  V30 24250 C 2184.86 -3.40708 -0.673467 0
M  V30 24251 C 2183.81 -4.27907 0.0892255 0
M  V30 24252 C 2183.14 -5.27069 -0.900146 0
M  V30 24253 C 2184.44 -5.06468 1.27624 0
M  V30 24254 H 2186.13 -2.82276 0.998033 0
M  V30 24255 H 2183.68 -1.35716 0.481373 0
M  V30 24256 H 2185.63 -4.06893 -1.09617 0
M  V30 24257 H 2184.35 -2.8967 -1.50861 0
M  V30 24258 H 2183.01 -3.63272 0.492858 0
M  V30 24259 H 2182.66 -4.72306 -1.73022 0
M  V30 24260 H 2182.36 -5.86276 -0.394285 0
M  V30 24261 H 2183.89 -5.96128 -1.32149 0
M  V30 24262 H 2185.3 -5.65715 0.92949 0
M  V30 24263 H 2183.7 -5.75068 1.71513 0
M  V30 24264 H 2184.77 -4.38332 2.07349 0
M  V30 24265 N 2186.11 -0.537304 -1.48158 0
M  V30 24266 C 2187.06 0.221446 -2.29735 0
M  V30 24267 C 2188.03 0.927005 -1.37825 0
M  V30 24268 O 2189.21 0.926601 -1.6679 0
M  V30 24269 C 2186.35 1.25789 -3.21358 0
M  V30 24270 C 2185.46 0.560427 -4.28349 0
M  V30 24271 C 2184.6 1.58043 -5.07145 0
M  V30 24272 C 2183.64 0.86684 -6.05931 0
M  V30 24273 N 2182.78 1.83273 -6.77758 0
M  V30 24274 H 2187.62 -0.480372 -2.94103 0
M  V30 24275 H 2185.15 -0.248729 -1.44982 0
M  V30 24276 H 2187.11 1.87117 -3.72885 0
M  V30 24277 H 2185.74 1.92799 -2.58898 0
M  V30 24278 H 2184.79 -0.166961 -3.80033 0
M  V30 24279 H 2186.1 0.000474239 -4.988 0
M  V30 24280 H 2185.26 2.2678 -5.62722 0
M  V30 24281 H 2184 2.17429 -4.3655 0
M  V30 24282 H 2183 0.165438 -5.49551 0
M  V30 24283 H 2184.23 0.278998 -6.78527 0
M  V30 24284 H 2182.17 2.41553 -6.09908 0
M  V30 24285 H 2182.09 1.32441 -7.44309 0
M  V30 24286 H 2183.36 2.51186 -7.3792 0
M  V30 24287 N 2187.59 1.55221 -0.272782 0
M  V30 24288 C 2188.83 1.99841 0.345178 0
M  V30 24289 C 2189.17 1.16093 1.55679 0
M  V30 24290 O 2188.44 0.230441 1.9313 0
M  V30 24291 C 2188.73 3.5263 0.729656 0
M  V30 24292 C 2188.58 4.47133 -0.489138 0
M  V30 24293 C 2189.9 4.11259 1.56698 0
M  V30 24294 H 2187.02 0.726495 0.123989 0
M  V30 24295 H 2189.66 1.86176 -0.379262 0
M  V30 24296 H 2187.81 3.64405 1.34689 0
M  V30 24297 H 2189.48 4.47304 -1.12769 0
M  V30 24298 H 2187.72 4.18888 -1.12762 0
M  V30 24299 H 2188.39 5.51718 -0.176396 0
M  V30 24300 H 2190.87 4.02745 1.04572 0
M  V30 24301 H 2189.75 5.1838 1.80481 0
M  V30 24302 H 2190.01 3.61341 2.54726 0
M  V30 24303 N 2189.07 2.77022e-05 1.576 0
M  V30 24304 C 2190.03 -0.976217 2.07371 0
M  V30 24305 C 2191.03 -1.27246 0.983113 0
M  V30 24306 O 2192.22 -1.21764 1.24576 0
M  V30 24307 C 2189.35 -2.30112 2.51518 0
M  V30 24308 H 2190.54 -0.545707 2.94893 0
M  V30 24309 H 2188.1 -0.247444 1.54329 0
M  V30 24310 H 2188.83 -2.77852 1.67239 0
M  V30 24311 H 2188.62 -2.09931 3.31167 0
M  V30 24312 H 2190.11 -3.00144 2.9035 0
M  V30 24313 N 2190.54 -1.55222 -0.272728 0
M  V30 24314 C 2191.49 -1.84508 -1.33943 0
M  V30 24315 C 2192.48 -0.704015 -1.4468 0
M  V30 24316 O 2193.67 -0.965364 -1.48357 0
M  V30 24317 C 2190.8 -2.12071 -2.69964 0
M  V30 24318 C 2189.89 -3.32438 -2.63336 0
M  V30 24319 N 2190.28 -4.52338 -2.26327 0
M  V30 24320 C 2188.57 -3.35033 -2.94396 0
M  V30 24321 C 2189.28 -5.34429 -2.29696 0
M  V30 24322 N 2188.25 -4.72843 -2.6818 0
M  V30 24323 H 2192.05 -2.74756 -1.04338 0
M  V30 24324 H 2189.57 -1.55102 -0.481361 0
M  V30 24325 H 2191.56 -2.31209 -3.46912 0
M  V30 24326 H 2190.22 -1.23108 -3.00457 0
M  V30 24327 H 2191.24 -4.78432 -1.983 0
M  V30 24328 H 2187.91 -2.56263 -3.29599 0
M  V30 24329 H 2189.3 -6.40297 -2.03641 0
M  V30 24330 N 2192.02 0.537252 -1.4816 0
M  V30 24331 C 2193.26 1.30403 -1.57399 0
M  V30 24332 C 2193.63 1.90504 -0.239236 0
M  V30 24333 O 2194.83 2.68005 -0.206575 0
M  V30 24334 C 2193.1 2.3697 -2.67545 0
M  V30 24335 S 2194.66 3.23469 -2.96501 0
M  V30 24336 H 2191.48 0.443674 -0.555584 0
M  V30 24337 H 2194.08 0.61288 -1.85645 0
M  V30 24338 H 2192.78 1.91285 -3.63096 0
M  V30 24339 H 2192.31 3.10801 -2.41177 0
M  V30 24340 H 2194.33 4.36893 -2.35242 0
M  V30 24341 N 2193.5 1.36626 0.785562 0
M  V30 24342 C 2194.74 1.32455 1.55676 0
M  V30 24343 C 2195.1 -0.0940752 1.91769 0
M  V30 24344 O 2196.31 -0.260373 2.67536 0
M  V30 24345 C 2194.58 2.22495 2.79697 0
M  V30 24346 S 2196.14 2.36045 3.69903 0
M  V30 24347 H 2192.95 0.470415 0.533133 0
M  V30 24348 H 2195.56 1.72237 0.924923 0
M  V30 24349 H 2194.26 3.24511 2.51238 0
M  V30 24350 H 2193.79 1.83748 3.47851 0
M  V30 24351 H 2195.81 1.5608 4.71013 0
M  V30 24352 N 2194.98 -1.01016 1.20969 0
M  V30 24353 C 2195.91 -2.11553 0.988309 0
M  V30 24354 C 2196.89 -1.69888 -0.084948 0
M  V30 24355 O 2198.07 -1.9406 0.0738543 0
M  V30 24356 C 2195.2 -3.42972 0.546588 0
M  V30 24357 C 2194.16 -3.98408 1.56382 0
M  V30 24358 C 2193.48 -5.2567 0.978512 0
M  V30 24359 C 2194.78 -4.31061 2.9493 0
M  V30 24360 H 2196.48 -2.30331 1.9128 0
M  V30 24361 H 2194.02 -1.10688 0.921092 0
M  V30 24362 H 2195.98 -4.19693 0.378913 0
M  V30 24363 H 2194.7 -3.23971 -0.413541 0
M  V30 24364 H 2193.36 -3.23801 1.71897 0
M  V30 24365 H 2193.01 -5.02999 0.0102572 0
M  V30 24366 H 2192.71 -5.63725 1.65794 0
M  V30 24367 H 2194.23 -6.05041 0.822046 0
M  V30 24368 H 2195.65 -4.98645 2.82889 0
M  V30 24369 H 2194.04 -4.80246 3.59838 0
M  V30 24370 H 2195.11 -3.39555 3.46166 0
M  V30 24371 N 2196.46 -1.01661 -1.20428 0
M  V30 24372 C 2197.4 -0.586861 -2.23214 0
M  V30 24373 C 2198.37 0.393056 -1.61382 0
M  V30 24374 O 2199.56 0.292492 -1.88545 0
M  V30 24375 C 2196.7 0.0686858 -3.45032 0
M  V30 24376 C 2195.81 -0.955798 -4.21294 0
M  V30 24377 C 2194.95 -0.271301 -5.30507 0
M  V30 24378 C 2193.99 -1.28254 -5.98513 0
M  V30 24379 N 2193.12 -0.624713 -6.99315 0
M  V30 24380 H 2197.96 -1.468 -2.59333 0
M  V30 24381 H 2195.5 -0.734859 -1.27429 0
M  V30 24382 H 2197.46 0.465892 -4.14591 0
M  V30 24383 H 2196.09 0.913474 -3.09605 0
M  V30 24384 H 2195.14 -1.47116 -3.508 0
M  V30 24385 H 2196.45 -1.72487 -4.68027 0
M  V30 24386 H 2195.61 0.181403 -6.06429 0
M  V30 24387 H 2194.34 0.530078 -4.84811 0
M  V30 24388 H 2193.35 -1.74563 -5.21352 0
M  V30 24389 H 2194.57 -2.0852 -6.46294 0
M  V30 24390 H 2192.52 0.156798 -6.55813 0
M  V30 24391 H 2192.44 -1.33185 -7.44176 0
M  V30 24392 H 2193.71 -0.195599 -7.79255 0
M  V30 24393 N 2197.93 1.36205 -0.792844 0
M  V30 24394 C 2198.84 2.33789 -0.19485 0
M  V30 24395 C 2199.86 1.61207 0.65484 0
M  V30 24396 O 2201.04 1.93171 0.569822 0
M  V30 24397 C 2198.1 3.40405 0.657661 0
M  V30 24398 C 2197.16 4.28782 -0.210924 0
M  V30 24399 C 2196.4 5.30305 0.600993 0
M  V30 24400 O 2196.62 5.40019 1.83673 0
M  V30 24401 O 2195.55 6.019 -0.000914076 0
M  V30 24402 H 2199.38 2.86702 -1.00178 0
M  V30 24403 H 2196.96 1.38734 -0.554366 0
M  V30 24404 H 2198.85 4.05583 1.14368 0
M  V30 24405 H 2197.52 2.89786 1.44242 0
M  V30 24406 H 2196.43 3.66632 -0.743779 0
M  V30 24407 H 2197.76 4.82761 -0.95928 0
M  V30 24408 N 2199.41 0.545154 1.47871 0
M  V30 24409 C 2200.34 -0.246581 2.2787 0
M  V30 24410 C 2201.36 -0.890537 1.36284 0
M  V30 24411 O 2202.55 -0.76642 1.61209 0
M  V30 24412 C 2199.65 -1.36576 3.10161 0
M  V30 24413 C 2198.82 -0.820879 4.29628 0
M  V30 24414 C 2197.88 -1.82306 4.9361 0
M  V30 24415 O 2196.9 -1.37396 5.52369 0
M  V30 24416 N 2198.11 -3.15595 4.87217 0
M  V30 24417 H 2200.87 0.439591 2.96459 0
M  V30 24418 H 2198.43 0.380449 1.57366 0
M  V30 24419 H 2200.42 -2.03468 3.49833 0
M  V30 24420 H 2198.99 -1.95536 2.43894 0
M  V30 24421 H 2198.21 0.0244725 3.94192 0
M  V30 24422 H 2199.5 -0.435973 5.06929 0
M  V30 24423 H 2198.9 -3.54736 4.40657 0
M  V30 24424 H 2197.46 -3.78078 5.30943 0
M  V30 24425 N 2200.89 -1.55074 0.28101 0
M  V30 24426 C 2201.8 -2.26427 -0.61384 0
M  V30 24427 C 2202.82 -1.29226 -1.16519 0
M  V30 24428 O 2203.99 -1.62173 -1.19423 0
M  V30 24429 C 2201.06 -2.97593 -1.77875 0
M  V30 24430 C 2200.12 -4.10286 -1.26348 0
M  V30 24431 C 2199.35 -4.78049 -2.37287 0
M  V30 24432 O 2199.57 -4.45053 -3.56769 0
M  V30 24433 O 2198.51 -5.65874 -2.05109 0
M  V30 24434 H 2202.33 -3.03679 -0.0356398 0
M  V30 24435 H 2199.92 -1.49322 0.0481948 0
M  V30 24436 H 2201.8 -3.42297 -2.45785 0
M  V30 24437 H 2200.48 -2.23253 -2.34393 0
M  V30 24438 H 2199.38 -3.70025 -0.55067 0
M  V30 24439 H 2200.72 -4.86545 -0.743979 0
M  V30 24440 N 2202.37 -0.00838561 -1.57598 0
M  V30 24441 C 2203.28 0.99645 -2.12387 0
M  V30 24442 C 2204.3 1.37125 -1.0711 0
M  V30 24443 O 2205.47 1.45688 -1.39058 0
M  V30 24444 C 2202.54 2.26694 -2.62318 0
M  V30 24445 C 2201.6 1.95449 -3.82228 0
M  V30 24446 C 2200.83 3.16441 -4.29768 0
M  V30 24447 O 2201.05 4.2841 -3.76592 0
M  V30 24448 O 2199.99 2.99949 -5.21837 0
M  V30 24449 H 2203.81 0.560673 -2.9848 0
M  V30 24450 H 2201.4 0.210961 -1.47903 0
M  V30 24451 H 2203.28 3.01317 -2.94594 0
M  V30 24452 H 2201.96 2.69494 -1.79318 0
M  V30 24453 H 2200.86 1.18275 -3.54911 0
M  V30 24454 H 2202.2 1.57481 -4.66327 0
M  V30 24455 N 2203.85 1.55365 0.264492 0
M  V30 24456 C 2205.08 1.80407 1.01297 0
M  V30 24457 C 2205.49 0.581654 1.79617 0
M  V30 24458 O 2204.85 -0.449437 1.76879 0
M  V30 24459 C 2204.9 3.03442 1.96482 0
M  V30 24460 O 2204.62 4.20963 1.21334 0
M  V30 24461 C 2206.12 3.41152 2.83073 0
M  V30 24462 H 2203.34 0.600767 0.298865 0
M  V30 24463 H 2205.88 2.02394 0.2927 0
M  V30 24464 H 2204.04 2.83556 2.6396 0
M  V30 24465 H 2204.45 4.90577 1.85564 0
M  V30 24466 H 2205.93 4.3039 3.45642 0
M  V30 24467 H 2206.4 2.60938 3.53282 0
M  V30 24468 H 2207.01 3.63327 2.21073 0
M  V30 24469 N 2205.33 -0.529387 1.48443 0
M  V30 24470 C 2206.57 -1.28166 1.55744 0
M  V30 24471 C 2206.89 -1.94164 0.236545 0
M  V30 24472 O 2208.09 -2.7085 0.187809 0
M  V30 24473 C 2206.55 -2.3256 2.74671 0
M  V30 24474 C 2206.16 -1.72628 4.13405 0
M  V30 24475 C 2207.9 -3.08793 2.91285 0
M  V30 24476 C 2205.81 -2.74965 5.23591 0
M  V30 24477 H 2204.74 -0.48202 0.579804 0
M  V30 24478 H 2207.39 -0.559025 1.74777 0
M  V30 24479 H 2205.77 -3.07862 2.49073 0
M  V30 24480 H 2206.95 -1.03511 4.49024 0
M  V30 24481 H 2205.26 -1.08885 4.01912 0
M  V30 24482 H 2207.86 -3.85267 3.70774 0
M  V30 24483 H 2208.2 -3.64691 2.00764 0
M  V30 24484 H 2208.73 -2.40606 3.16786 0
M  V30 24485 H 2205.47 -2.23887 6.1608 0
M  V30 24486 H 2204.99 -3.42409 4.9246 0
M  V30 24487 H 2206.67 -3.37939 5.5173 0
M  V30 24488 N 2206.8 -1.37041 -0.778305 0
M  V30 24489 C 2207.75 -1.32349 -1.91276 0
M  V30 24490 C 2208.75 -0.213361 -1.68051 0
M  V30 24491 O 2209.95 -0.381011 -1.75921 0
M  V30 24492 H 2206.33 -0.412294 -0.628902 0
M  V30 24493 H 2208.3 -2.28131 -1.92351 0
M  V30 24494 C 2207.05 -1.14079 -3.28453 0
M  V30 24495 H 2206.37 -1.98752 -3.46897 0
M  V30 24496 H 2207.81 -1.14845 -4.0815 0
M  V30 24497 C 2206.27 0.153956 -3.36548 0
M  V30 24498 O 2206.8 1.13987 -3.85188 0
M  V30 24499 N 2205 0.202424 -2.89894 0
M  V30 24500 H 2204.55 -0.60052 -2.50503 0
M  V30 24501 H 2204.51 1.06836 -2.95691 0
M  V30 24502 N 2208.28 1.00373 -1.21503 0
M  V30 24503 C 2209.19 2.12619 -0.991484 0
M  V30 24504 C 2210.21 1.73907 0.056814 0
M  V30 24505 O 2211.38 2.00957 -0.133516 0
M  V30 24506 C 2208.45 3.42141 -0.560372 0
M  V30 24507 C 2207.51 3.95019 -1.68103 0
M  V30 24508 C 2206.74 5.1836 -1.27039 0
M  V30 24509 O 2206.97 5.70217 -0.144538 0
M  V30 24510 O 2205.9 5.64715 -2.08279 0
M  V30 24511 H 2209.73 2.34354 -1.93162 0
M  V30 24512 H 2207.31 1.10995 -1.00002 0
M  V30 24513 H 2209.19 4.20107 -0.329798 0
M  V30 24514 H 2207.87 3.21791 0.351033 0
M  V30 24515 H 2206.77 3.18274 -1.96602 0
M  V30 24516 H 2208.11 4.19782 -2.56991 0
M  V30 24517 N 2209.76 1.02298 1.19887 0
M  V30 24518 C 2210.69 0.619214 2.2514 0
M  V30 24519 C 2211.67 -0.368886 1.66052 0
M  V30 24520 O 2212.86 -0.252907 1.92546 0
M  V30 24521 C 2209.99 -0.0368173 3.4728 0
M  V30 24522 C 2208.94 0.872939 4.19003 0
M  V30 24523 C 2208.27 0.0823342 5.34637 0
M  V30 24524 C 2209.57 2.18395 4.74448 0
M  V30 24525 H 2211.26 1.49907 2.59168 0
M  V30 24526 H 2208.81 0.722244 1.24578 0
M  V30 24527 H 2210.76 -0.330884 4.20099 0
M  V30 24528 H 2209.48 -0.951435 3.12434 0
M  V30 24529 H 2208.14 1.15111 3.48059 0
M  V30 24530 H 2207.79 -0.834133 4.96036 0
M  V30 24531 H 2207.49 0.688252 5.83555 0
M  V30 24532 H 2209.01 -0.20513 6.10255 0
M  V30 24533 H 2210.43 1.95182 5.39052 0
M  V30 24534 H 2208.82 2.74128 5.33829 0
M  V30 24535 H 2209.89 2.84263 3.92839 0
M  V30 24536 N 2211.24 -1.35782 0.800057 0
M  V30 24537 C 2212.65 -1.52116 0.483004 0
M  V30 24538 C 2212.85 -1.75111 -0.996917 0
M  V30 24539 O 2211.91 -1.78875 -1.78213 0
M  V30 24540 C 2213.22 -2.70047 1.32269 0
M  V30 24541 C 2214.77 -2.83922 1.31747 0
M  V30 24542 C 2215.25 -4.0487 2.14113 0
M  V30 24543 N 2216.74 -4.12036 2.11615 0
M  V30 24544 C 2217.47 -5.04722 2.72108 0
M  V30 24545 N 2216.97 -6.02783 3.41503 0
M  V30 24546 N 2218.76 -4.97419 2.61785 0
M  V30 24547 H 2210.91 -1.19112 1.75858 0
M  V30 24548 H 2213.17 -0.582239 0.748132 0
M  V30 24549 H 2212.88 -2.59611 2.37265 0
M  V30 24550 H 2212.75 -3.64478 0.971367 0
M  V30 24551 H 2215.14 -2.93812 0.275385 0
M  V30 24552 H 2215.22 -1.90367 1.70862 0
M  V30 24553 H 2214.87 -3.95741 3.18358 0
M  V30 24554 H 2214.8 -4.97593 1.72361 0
M  V30 24555 H 2217.29 -3.41832 1.61118 0
M  V30 24556 H 2217.6 -6.70091 3.84964 0
M  V30 24557 H 2215.95 -6.02977 3.45606 0
M  V30 24558 H 2219.14 -4.19763 2.07164 0
M  V30 24559 H 2219.31 -5.69462 3.0922 0
M  V30 24560 N 2212.72 -0.552988 -1.4758 0
M  V30 24561 C 2213.96 -0.0274004 -2.02781 0
M  V30 24562 C 2214.29 1.31732 -1.4269 0
M  V30 24563 O 2213.57 1.85622 -0.58093 0
M  V30 24564 C 2213.85 0.0701738 -3.60032 0
M  V30 24565 C 2213.71 -1.30134 -4.30564 0
M  V30 24566 C 2215.02 0.785694 -4.3303 0
M  V30 24567 H 2212.14 -0.0114315 -0.736911 0
M  V30 24568 H 2214.79 -0.714463 -1.76055 0
M  V30 24569 H 2212.94 0.655315 -3.82933 0
M  V30 24570 H 2214.61 -1.92936 -4.19015 0
M  V30 24571 H 2212.85 -1.87715 -3.91082 0
M  V30 24572 H 2213.52 -1.18583 -5.39112 0
M  V30 24573 H 2216 0.288909 -4.15096 0
M  V30 24574 H 2214.87 0.822917 -5.42696 0
M  V30 24575 H 2215.13 1.84093 -4.01948 0
M  V30 24576 N 2214.19 1.54923 -0.28923 0
M  V30 24577 C 2215.14 2.24515 0.607926 0
M  V30 24578 C 2216.14 1.24704 1.14653 0
M  V30 24579 O 2217.34 1.42591 1.09853 0
M  V30 24580 H 2213.72 0.720721 0.214627 0
M  V30 24581 H 2215.69 2.984 -0.00169428 0
M  V30 24582 C 2214.44 2.99039 1.77401 0
M  V30 24583 H 2213.76 3.75639 1.36877 0
M  V30 24584 H 2215.2 3.51032 2.37807 0
M  V30 24585 C 2213.66 2.05323 2.67103 0
M  V30 24586 O 2214.19 1.6136 3.67867 0
M  V30 24587 N 2212.39 1.71526 2.34579 0
M  V30 24588 H 2211.94 2.07473 1.52685 0
M  V30 24589 H 2211.9 1.09095 2.94865 0
M  V30 24590 N 2215.67 0.0167433 1.57591 0
M  V30 24591 C 2216.6 -0.96782 2.12498 0
M  V30 24592 C 2217.58 -1.3475 1.03809 0
M  V30 24593 O 2218.77 -1.4283 1.31579 0
M  V30 24594 C 2215.9 -2.25426 2.64198 0
M  V30 24595 C 2214.85 -2.0157 3.77563 0
M  V30 24596 C 2214.18 -3.36372 4.15642 0
M  V30 24597 C 2215.48 -1.36481 5.04153 0
M  V30 24598 H 2217.17 -0.510591 2.95014 0
M  V30 24599 H 2214.72 -0.244156 1.41915 0
M  V30 24600 H 2216.67 -2.94672 3.01241 0
M  V30 24601 H 2215.39 -2.73292 1.78826 0
M  V30 24602 H 2214.05 -1.34745 3.40939 0
M  V30 24603 H 2213.7 -3.81973 3.27269 0
M  V30 24604 H 2213.4 -3.2122 4.92028 0
M  V30 24605 H 2214.93 -4.06907 4.55258 0
M  V30 24606 H 2216.34 -1.95708 5.38861 0
M  V30 24607 H 2214.74 -1.31765 5.85455 0
M  V30 24608 H 2215.81 -0.336134 4.83734 0
M  V30 24609 N 2217.15 -1.55503 -0.256249 0
M  V30 24610 C 2218.38 -1.81278 -1.00762 0
M  V30 24611 C 2218.8 -0.592551 -1.78523 0
M  V30 24612 O 2218.16 0.458239 -1.75413 0
M  V30 24613 C 2218.21 -3.0469 -1.92864 0
M  V30 24614 O 2217.31 -2.8095 -3.01896 0
M  V30 24615 H 2216.65 -0.598669 -0.287213 0
M  V30 24616 H 2219.18 -2.02674 -0.280074 0
M  V30 24617 H 2219.19 -3.33873 -2.34505 0
M  V30 24618 H 2217.87 -3.93145 -1.35682 0
M  V30 24619 H 2216.44 -2.62909 -2.64449 0
M  V30 24620 N 2218.63 0.521507 -1.48721 0
M  V30 24621 C 2219.54 1.652 -1.66572 0
M  V30 24622 C 2220.55 1.65138 -0.548226 0
M  V30 24623 O 2221.73 1.83934 -0.820371 0
M  V30 24624 C 2218.8 3.01639 -1.70923 0
M  V30 24625 C 2217.86 3.1249 -2.94361 0
M  V30 24626 C 2217.09 4.42421 -2.98495 0
M  V30 24627 O 2217.31 5.3002 -2.10796 0
M  V30 24628 O 2216.25 4.57815 -3.90754 0
M  V30 24629 H 2220.07 1.53075 -2.62301 0
M  V30 24630 H 2217.66 0.695541 -1.32222 0
M  V30 24631 H 2219.54 3.82768 -1.76256 0
M  V30 24632 H 2218.21 3.1407 -0.783688 0
M  V30 24633 H 2217.12 2.30625 -2.94556 0
M  V30 24634 H 2218.45 3.04979 -3.86327 0
M  V30 24635 N 2220.11 1.37452 0.771027 0
M  V30 24636 C 2221.05 1.33273 1.88433 0
M  V30 24637 C 2222.02 0.198165 1.64914 0
M  V30 24638 O 2223.21 0.387639 1.86821 0
M  V30 24639 C 2220.35 1.14627 3.25507 0
M  V30 24640 C 2219.46 2.3732 3.60975 0
M  V30 24641 C 2218.6 2.11541 4.87261 0
M  V30 24642 C 2217.64 3.30097 5.15463 0
M  V30 24643 N 2216.77 3.03864 6.32938 0
M  V30 24644 H 2221.61 2.28458 1.9134 0
M  V30 24645 H 2219.15 1.13525 0.935446 0
M  V30 24646 H 2221.11 1.01838 4.0458 0
M  V30 24647 H 2219.74 0.230893 3.21973 0
M  V30 24648 H 2218.79 2.60847 2.76881 0
M  V30 24649 H 2220.1 3.25736 3.77754 0
M  V30 24650 H 2219.26 1.95787 5.74241 0
M  V30 24651 H 2217.99 1.20465 4.72588 0
M  V30 24652 H 2217 3.46389 4.26959 0
M  V30 24653 H 2218.22 4.22025 5.32045 0
M  V30 24654 H 2216.17 2.15418 6.19622 0
M  V30 24655 H 2216.09 3.85823 6.50136 0
M  V30 24656 H 2217.36 2.91729 7.22852 0
M  V30 24657 N 2221.58 -0.997276 1.22033 0
M  V30 24658 C 2222.49 -2.1209 1.00275 0
M  V30 24659 C 2223.51 -1.73935 -0.0475905 0
M  V30 24660 O 2224.69 -2.00883 0.144171 0
M  V30 24661 C 2221.75 -3.41839 0.578509 0
M  V30 24662 C 2220.81 -3.94122 1.70196 0
M  V30 24663 C 2220.05 -5.17679 1.29787 0
M  V30 24664 O 2220.27 -5.70132 0.174776 0
M  V30 24665 O 2219.2 -5.63603 2.11271 0
M  V30 24666 H 2223.03 -2.33327 1.94402 0
M  V30 24667 H 2220.61 -1.10464 1.00589 0
M  V30 24668 H 2222.5 -4.19927 0.352072 0
M  V30 24669 H 2221.17 -3.21973 -0.333962 0
M  V30 24670 H 2220.08 -3.17227 1.98287 0
M  V30 24671 H 2221.41 -4.18413 2.59213 0
M  V30 24672 N 2223.06 -1.02932 -1.19343 0
M  V30 24673 C 2224.29 -0.745678 -1.92995 0
M  V30 24674 C 2224.71 0.695558 -1.7552 0
M  V30 24675 O 2224.06 1.47304 -1.0774 0
M  V30 24676 C 2224.11 -1.08798 -3.44739 0
M  V30 24677 O 2223.83 -2.47262 -3.61653 0
M  V30 24678 C 2225.34 -0.827206 -4.35514 0
M  V30 24679 H 2222.56 -0.272812 -0.613037 0
M  V30 24680 H 2225.1 -1.37393 -1.51471 0
M  V30 24681 H 2223.25 -0.504899 -3.84096 0
M  V30 24682 H 2223.67 -2.60023 -4.55509 0
M  V30 24683 H 2225.14 -1.11668 -5.40587 0
M  V30 24684 H 2225.62 0.238359 -4.38553 0
M  V30 24685 H 2226.23 -1.39304 -4.01839 0
M  V30 24686 N 2224.54 1.35356 -0.807246 0
M  V30 24687 C 2225.45 2.3357 -0.219635 0
M  V30 24688 C 2226.47 1.61893 0.637705 0
M  V30 24689 O 2227.64 1.93764 0.549302 0
M  V30 24690 C 2224.71 3.41084 0.62152 0
M  V30 24691 C 2223.77 4.28534 -0.25639 0
M  V30 24692 C 2223 5.30913 0.544713 0
M  V30 24693 O 2223.22 5.41937 1.77935 0
M  V30 24694 O 2222.16 6.01865 -0.0647536 0
M  V30 24695 H 2225.98 2.85624 -1.03213 0
M  V30 24696 H 2223.57 1.38138 -0.569049 0
M  V30 24697 H 2225.45 4.06774 1.1006 0
M  V30 24698 H 2224.13 2.913 1.4116 0
M  V30 24699 H 2223.03 3.65822 -0.782623 0
M  V30 24700 H 2224.37 4.81717 -1.01043 0
M  V30 24701 N 2226.02 0.560807 1.47284 0
M  V30 24702 C 2227.27 0.0359304 2.01668 0
M  V30 24703 C 2227.58 -1.3235 1.44024 0
M  V30 24704 O 2228.79 -1.93849 1.90091 0
M  V30 24705 C 2227.24 0.0137292 3.59897 0
M  V30 24706 C 2226.85 1.37014 4.26534 0
M  V30 24707 C 2228.59 -0.458351 4.22018 0
M  V30 24708 C 2226.5 1.30685 5.7678 0
M  V30 24709 H 2225.43 0.00966204 0.753938 0
M  V30 24710 H 2228.08 0.709195 1.69241 0
M  V30 24711 H 2226.46 -0.725257 3.89302 0
M  V30 24712 H 2227.64 2.12712 4.08767 0
M  V30 24713 H 2225.95 1.78045 3.76416 0
M  V30 24714 H 2228.55 -0.524154 5.32125 0
M  V30 24715 H 2228.89 -1.47113 3.8944 0
M  V30 24716 H 2229.43 0.225887 3.97158 0
M  V30 24717 H 2226.17 2.29575 6.13984 0
M  V30 24718 H 2225.69 0.591727 5.96874 0
M  V30 24719 H 2227.36 1.01044 6.39061 0
M  V30 24720 N 2227.5 -1.54768 0.297442 0
M  V30 24721 C 2228.72 -2.04941 -0.318399 0
M  V30 24722 C 2229.15 -1.17347 -1.47007 0
M  V30 24723 O 2228.5 -0.17679 -1.80436 0
M  V30 24724 C 2228.55 -3.52593 -0.755687 0
M  V30 24725 O 2227.66 -3.68032 -1.86082 0
M  V30 24726 H 2227 -0.661061 -0.0624094 0
M  V30 24727 H 2229.53 -1.99851 0.43825 0
M  V30 24728 H 2229.54 -3.94378 -1.04545 0
M  V30 24729 H 2228.21 -4.15809 0.0867964 0
M  V30 24730 H 2226.79 -3.38152 -1.57188 0
M  V30 24731 N 2228.97 -0.0251005 -1.5758 0
M  V30 24732 C 2230.2 0.664712 -1.95932 0
M  V30 24733 C 2230.62 1.65893 -0.901382 0
M  V30 24734 O 2229.97 1.82123 0.117223 0
M  V30 24735 C 2230.03 1.37462 -3.34345 0
M  V30 24736 O 2229.75 0.420247 -4.3608 0
M  V30 24737 C 2231.25 2.15663 -3.87304 0
M  V30 24738 H 2228.47 0.183546 -0.645408 0
M  V30 24739 H 2231.01 -0.0836731 -2.04329 0
M  V30 24740 H 2229.17 2.07444 -3.27179 0
M  V30 24741 H 2229.58 0.9239 -5.16299 0
M  V30 24742 H 2231.05 2.60794 -4.86508 0
M  V30 24743 H 2231.53 2.99399 -3.21336 0
M  V30 24744 H 2232.14 1.50647 -3.97726 0
M  V30 24745 N 2230.45 1.55637 0.247999 0
M  V30 24746 C 2231.7 1.76619 0.974103 0
M  V30 24747 C 2232.01 0.588829 1.86527 0
M  V30 24748 O 2233.22 0.681641 2.62804 0
M  V30 24749 C 2231.68 3.12682 1.78207 0
M  V30 24750 C 2231.28 4.38063 0.938353 0
M  V30 24751 C 2233.03 3.43004 2.50098 0
M  V30 24752 C 2230.94 5.65158 1.74215 0
M  V30 24753 H 2229.87 0.658411 0.367438 0
M  V30 24754 H 2232.52 1.82068 0.228808 0
M  V30 24755 H 2230.9 3.01337 2.56928 0
M  V30 24756 H 2232.07 4.60393 0.193554 0
M  V30 24757 H 2230.39 4.15068 0.332832 0
M  V30 24758 H 2232.98 4.35176 3.10687 0
M  V30 24759 H 2233.33 2.64277 3.21657 0
M  V30 24760 H 2233.86 3.55559 1.78388 0
M  V30 24761 H 2230.6 6.46703 1.07031 0
M  V30 24762 H 2230.12 5.46931 2.46226 0
M  V30 24763 H 2231.8 6.04374 2.30956 0
M  V30 24764 N 2231.93 -0.513613 1.48996 0
M  V30 24765 C 2232.86 -1.6329 1.60839 0
M  V30 24766 C 2233.88 -1.55196 0.491728 0
M  V30 24767 O 2235.07 -1.61358 0.763266 0
M  V30 24768 C 2232.17 -3.02024 1.53736 0
M  V30 24769 C 2231.34 -3.35432 2.80721 0
M  V30 24770 C 2230.4 -4.5352 2.66845 0
M  V30 24771 O 2229.42 -4.55928 3.40761 0
M  V30 24772 N 2230.63 -5.52681 1.77549 0
M  V30 24773 H 2233.39 -1.53562 2.57369 0
M  V30 24774 H 2230.95 -0.701234 1.45926 0
M  V30 24775 H 2232.94 -3.78923 1.42125 0
M  V30 24776 H 2231.51 -3.05743 0.651145 0
M  V30 24777 H 2230.73 -2.47551 3.06777 0
M  V30 24778 H 2232.02 -3.54544 3.64933 0
M  V30 24779 H 2231.42 -5.53526 1.16728 0
M  V30 24780 H 2229.98 -6.28733 1.71867 0
M  V30 24781 N 2233.41 -1.37859 -0.763727 0
M  V30 24782 C 2234.36 -1.34271 -1.87723 0
M  V30 24783 C 2235.33 -0.206908 -1.64806 0
M  V30 24784 O 2236.51 -0.397541 -1.86613 0
M  V30 24785 C 2233.65 -1.16352 -3.24894 0
M  V30 24786 C 2232.76 -2.39231 -3.59711 0
M  V30 24787 C 2231.9 -2.14122 -4.86133 0
M  V30 24788 C 2230.94 -3.32826 -5.13705 0
M  V30 24789 N 2230.08 -3.07217 -6.31318 0
M  V30 24790 H 2234.92 -2.2947 -1.90125 0
M  V30 24791 H 2232.45 -1.14019 -0.929412 0
M  V30 24792 H 2234.41 -1.03982 -4.04034 0
M  V30 24793 H 2233.04 -0.247965 -3.21846 0
M  V30 24794 H 2232.09 -2.62312 -2.75494 0
M  V30 24795 H 2233.4 -3.27734 -3.76021 0
M  V30 24796 H 2232.56 -1.9883 -5.73194 0
M  V30 24797 H 2231.3 -1.22969 -4.71943 0
M  V30 24798 H 2230.3 -3.48649 -4.25116 0
M  V30 24799 H 2231.53 -4.24841 -5.29799 0
M  V30 24800 H 2229.47 -2.18701 -6.18471 0
M  V30 24801 H 2229.39 -3.89265 -6.48081 0
M  V30 24802 H 2230.66 -2.95558 -7.21294 0
M  V30 24803 N 2234.89 0.990791 -1.22561 0
M  V30 24804 C 2235.82 2.0834 -0.955362 0
M  V30 24805 C 2236.83 1.62663 0.0668122 0
M  V30 24806 O 2238.02 1.77713 -0.167452 0
M  V30 24807 C 2235.12 3.36342 -0.415625 0
M  V30 24808 C 2234.29 4.11039 -1.49552 0
M  V30 24809 C 2233.35 5.17322 -0.96249 0
M  V30 24810 O 2232.38 5.44785 -1.64917 0
M  V30 24811 N 2233.58 5.80102 0.215032 0
M  V30 24812 H 2236.35 2.32103 -1.896 0
M  V30 24813 H 2233.91 1.15671 -1.13278 0
M  V30 24814 H 2235.9 4.04676 -0.0443098 0
M  V30 24815 H 2234.47 3.09626 0.430178 0
M  V30 24816 H 2233.69 3.37306 -2.04006 0
M  V30 24817 H 2234.98 4.57715 -2.22203 0
M  V30 24818 H 2234.38 5.60161 0.789681 0
M  V30 24819 H 2232.93 6.4966 0.527712 0
M  V30 24820 N 2236.37 1.03564 1.18795 0
M  V30 24821 C 2237.3 0.643058 2.24471 0
M  V30 24822 C 2238.28 -0.351253 1.66434 0
M  V30 24823 O 2239.46 -0.232471 1.92804 0
M  V30 24824 C 2236.59 1.85533e-05 3.473 0
M  V30 24825 C 2235.55 0.91733 4.18054 0
M  V30 24826 C 2234.87 0.139035 5.34519 0
M  V30 24827 C 2236.17 2.23415 4.72105 0
M  V30 24828 H 2237.87 1.52648 2.57564 0
M  V30 24829 H 2235.41 0.735416 1.23805 0
M  V30 24830 H 2237.36 -0.286309 4.20426 0
M  V30 24831 H 2236.09 -0.918243 3.13426 0
M  V30 24832 H 2234.75 1.18796 3.46818 0
M  V30 24833 H 2234.4 -0.781475 4.96892 0
M  V30 24834 H 2234.1 0.750107 5.82793 0
M  V30 24835 H 2235.62 -0.140393 6.10439 0
M  V30 24836 H 2237.03 2.00888 5.36951 0
M  V30 24837 H 2235.43 2.79774 5.30892 0
M  V30 24838 H 2236.5 2.88414 3.89802 0
M  V30 24839 N 2237.84 -1.34926 0.814413 0
M  V30 24840 C 2238.75 -2.3345 0.232019 0
M  V30 24841 C 2239.77 -1.62229 -0.629111 0
M  V30 24842 O 2240.95 -1.94053 -0.539018 0
M  V30 24843 C 2238.01 -3.41408 -0.603422 0
M  V30 24844 C 2237.07 -4.28392 0.279113 0
M  V30 24845 C 2236.3 -5.31194 -0.51655 0
M  V30 24846 O 2236.53 -5.42873 -1.75058 0
M  V30 24847 O 2235.46 -6.01822 0.096671 0
M  V30 24848 H 2239.29 -2.85072 1.04726 0
M  V30 24849 H 2236.87 -1.37835 0.576367 0
M  V30 24850 H 2238.75 -4.07352 -1.07901 0
M  V30 24851 H 2237.43 -2.92044 -1.39613 0
M  V30 24852 H 2236.34 -3.65402 0.802013 0
M  V30 24853 H 2237.67 -4.81174 1.03596 0
M  V30 24854 N 2239.32 -0.56861 -1.46985 0
M  V30 24855 C 2240.28 0.162326 -2.28624 0
M  V30 24856 C 2241.28 0.832078 -1.37598 0
M  V30 24857 O 2242.47 0.686192 -1.60116 0
M  V30 24858 C 2239.61 1.23873 -3.17598 0
M  V30 24859 H 2240.8 -0.554951 -2.94721 0
M  V30 24860 H 2238.35 -0.326003 -1.52862 0
M  V30 24861 H 2239.09 1.98804 -2.56218 0
M  V30 24862 H 2238.87 0.763151 -3.84602 0
M  V30 24863 H 2240.36 1.75178 -3.79081 0
M  V30 24864 N 2240.8 1.54608 -0.305646 0
M  V30 24865 C 2242.05 1.9941 0.303063 0
M  V30 24866 C 2242.36 1.19767 1.54646 0
M  V30 24867 O 2243.57 1.54859 2.23005 0
M  V30 24868 C 2242.02 3.55022 0.590525 0
M  V30 24869 C 2241.63 4.4348 -0.634797 0
M  V30 24870 C 2243.38 4.08338 1.16017 0
M  V30 24871 C 2241.28 5.90532 -0.32023 0
M  V30 24872 H 2240.21 0.744864 0.117018 0
M  V30 24873 H 2242.86 1.78744 -0.415076 0
M  V30 24874 H 2241.25 3.71606 1.36838 0
M  V30 24875 H 2242.42 4.3867 -1.41086 0
M  V30 24876 H 2240.73 4.0096 -1.1234 0
M  V30 24877 H 2243.33 5.15778 1.40985 0
M  V30 24878 H 2243.67 3.59223 2.10391 0
M  V30 24879 H 2244.21 3.95315 0.443916 0
M  V30 24880 H 2240.95 6.43806 -1.23265 0
M  V30 24881 H 2240.47 5.98338 0.418474 0
M  V30 24882 H 2242.15 6.46955 0.0765103 0
M  V30 24883 N 2242.28 0.033457 1.57564 0
M  V30 24884 C 2243.23 -0.964923 2.11641 0
M  V30 24885 C 2244.22 -1.33405 1.044 0
M  V30 24886 O 2245.43 -1.31578 1.2283 0
M  V30 24887 H 2241.8 -0.328968 0.676228 0
M  V30 24888 H 2243.77 -0.483562 2.94456 0
M  V30 24889 C 2242.52 -2.23667 2.66211 0
M  V30 24890 H 2241.84 -1.96139 3.48381 0
M  V30 24891 H 2243.28 -2.91724 3.0769 0
M  V30 24892 C 2241.74 -2.96936 1.59156 0
M  V30 24893 O 2242.27 -3.89209 0.993927 0
M  V30 24894 N 2240.48 -2.59349 1.31097 0
M  V30 24895 H 2240.03 -1.8439 1.79883 0
M  V30 24896 H 2239.98 -3.08681 0.596943 0
M  V30 24897 N 2243.76 -1.55766 -0.239741 0
M  V30 24898 C 2245.03 -1.68695 -0.990026 0
M  V30 24899 C 2245.41 -0.575436 -2.03106 0
M  V30 24900 O 2244.76 0.420131 -2.24604 0
M  V30 24901 C 2244.97 -3.09285 -1.61691 0
M  V30 24902 C 2246.32 -3.68114 -2.11606 0
M  V30 24903 O 2247.34 -3.1213 -1.71619 0
M  V30 24904 O 2246.2 -4.66272 -2.85049 0
M  V30 24905 H 2243.3 -0.686399 -0.461287 0
M  V30 24906 H 2245.84 -1.68093 -0.232961 0
M  V30 24907 H 2244.61 -3.81636 -0.86429 0
M  V30 24908 H 2244.24 -3.13927 -2.43999 0
M  V30 24909 N 2245.23 0.505704 -1.49266 0
M  V30 24910 C 2246.18 1.60777 -1.65588 0
M  V30 24911 C 2247.15 1.58477 -0.497424 0
M  V30 24912 O 2248.34 1.76535 -0.723881 0
M  V30 24913 C 2245.48 2.98945 -1.72413 0
M  V30 24914 C 2244.59 3.11296 -2.99531 0
M  V30 24915 C 2243.72 4.40168 -2.97364 0
M  V30 24916 C 2242.76 4.46136 -4.19082 0
M  V30 24917 N 2241.9 5.6643 -4.14851 0
M  V30 24918 H 2246.74 1.46167 -2.5969 0
M  V30 24919 H 2244.28 0.711239 -1.28763 0
M  V30 24920 H 2246.23 3.79022 -1.74351 0
M  V30 24921 H 2244.86 3.12269 -0.817807 0
M  V30 24922 H 2243.92 2.24312 -3.07226 0
M  V30 24923 H 2245.23 3.11565 -3.89524 0
M  V30 24924 H 2244.38 5.28562 -2.97838 0
M  V30 24925 H 2243.12 4.42457 -2.05141 0
M  V30 24926 H 2242.13 3.56145 -4.18856 0
M  V30 24927 H 2243.35 4.45566 -5.12491 0
M  V30 24928 H 2241.3 5.6957 -3.25463 0
M  V30 24929 H 2241.21 5.68296 -4.98574 0
M  V30 24930 H 2242.48 6.57043 -4.19422 0
M  V30 24931 N 2246.71 1.38262 0.756405 0
M  V30 24932 C 2247.64 1.37979 1.88372 0
M  V30 24933 C 2248.62 0.246111 1.6831 0
M  V30 24934 O 2249.81 0.448773 1.88944 0
M  V30 24935 C 2246.94 1.2013 3.25862 0
M  V30 24936 C 2245.89 2.30673 3.60519 0
M  V30 24937 C 2245.22 1.97932 4.96716 0
M  V30 24938 C 2246.52 3.72923 3.65686 0
M  V30 24939 H 2248.21 2.32315 1.88865 0
M  V30 24940 H 2245.76 1.11825 0.907253 0
M  V30 24941 H 2247.71 1.18559 4.04378 0
M  V30 24942 H 2246.44 0.222555 3.25841 0
M  V30 24943 H 2245.09 2.31425 2.8432 0
M  V30 24944 H 2244.74 0.98548 4.93252 0
M  V30 24945 H 2244.44 2.71965 5.20873 0
M  V30 24946 H 2245.97 1.97974 5.77615 0
M  V30 24947 H 2247.38 3.74216 4.34322 0
M  V30 24948 H 2245.78 4.46137 4.0135 0
M  V30 24949 H 2246.85 4.05441 2.6598 0
M  V30 24950 N 2248.19 -0.984277 1.23084 0
M  V30 24951 C 2249.12 -2.0783 0.966397 0
M  V30 24952 C 2250.14 -1.62696 -0.0581849 0
M  V30 24953 O 2251.32 -1.77622 0.176875 0
M  V30 24954 C 2248.42 -3.36117 0.433456 0
M  V30 24955 C 2247.6 -4.1024 1.51729 0
M  V30 24956 C 2246.66 -5.16805 0.989912 0
M  V30 24957 O 2245.68 -5.43903 1.67803 0
M  V30 24958 N 2246.88 -5.80207 -0.184265 0
M  V30 24959 H 2249.65 -2.31094 1.90829 0
M  V30 24960 H 2247.21 -1.15068 1.1389 0
M  V30 24961 H 2249.2 -4.04647 0.0657701 0
M  V30 24962 H 2247.77 -3.0985 -0.413752 0
M  V30 24963 H 2246.99 -3.36219 2.05792 0
M  V30 24964 H 2248.28 -4.5653 2.24627 0
M  V30 24965 H 2247.68 -5.60572 -0.759963 0
M  V30 24966 H 2246.24 -6.49931 -0.493252 0
M  V30 24967 N 2249.67 -1.04192 -1.18244 0
M  V30 24968 C 2250.62 -0.627831 -2.23967 0
M  V30 24969 C 2251.61 0.345989 -1.65829 0
M  V30 24970 O 2252.82 0.213143 -1.78734 0
M  V30 24971 H 2249.19 -0.184815 -0.728936 0
M  V30 24972 H 2251.16 -1.52985 -2.56199 0
M  V30 24973 C 2249.91 -0.00802703 -3.47699 0
M  V30 24974 H 2249.23 -0.748416 -3.92732 0
M  V30 24975 H 2250.67 0.244476 -4.23295 0
M  V30 24976 C 2249.13 1.2424 -3.13155 0
M  V30 24977 O 2249.66 2.33301 -3.27007 0
M  V30 24978 N 2247.87 1.13618 -2.67469 0
M  V30 24979 H 2247.42 0.248689 -2.56397 0
M  V30 24980 H 2247.37 1.97372 -2.44727 0
M  V30 24981 N 2251.15 1.34492 -0.821557 0
M  V30 24982 C 2252.09 2.29544 -0.240437 0
M  V30 24983 C 2253.06 1.53524 0.634004 0
M  V30 24984 O 2254.25 1.819 0.575934 0
M  V30 24985 C 2251.39 3.3997 0.592809 0
M  V30 24986 C 2250.5 4.30931 -0.303726 0
M  V30 24987 C 2249.64 5.28459 0.538956 0
M  V30 24988 C 2248.68 6.11058 -0.357049 0
M  V30 24989 N 2247.81 7.00679 0.44648 0
M  V30 24990 H 2252.65 2.78648 -1.05637 0
M  V30 24991 H 2250.19 1.37126 -0.532437 0
M  V30 24992 H 2252.15 4.02676 1.09122 0
M  V30 24993 H 2250.78 2.92104 1.37387 0
M  V30 24994 H 2249.83 3.69099 -0.92034 0
M  V30 24995 H 2251.14 4.88821 -0.992747 0
M  V30 24996 H 2250.3 5.9661 1.1019 0
M  V30 24997 H 2249.03 4.71103 1.26149 0
M  V30 24998 H 2248.04 5.41841 -0.932142 0
M  V30 24999 H 2249.26 6.70495 -1.07767 0
M  V30 25000 H 2247.21 6.45793 1.15271 0
M  V30 25001 H 2247.13 7.55776 -0.184181 0
M  V30 25002 H 2248.4 7.73159 0.992216 0
M  V30 25003 N 2252.62 0.576397 1.46681 0
M  V30 25004 C 2253.87 0.057318 2.01619 0
M  V30 25005 C 2254.19 -1.30815 1.45419 0
M  V30 25006 O 2255.39 -1.91822 1.92137 0
M  V30 25007 C 2253.85 0.0519003 3.59863 0
M  V30 25008 C 2253.46 1.4153 4.25057 0
M  V30 25009 C 2255.2 -0.413565 4.22481 0
M  V30 25010 C 2253.11 1.36795 5.75362 0
M  V30 25011 H 2252.04 0.017658 0.753793 0
M  V30 25012 H 2254.69 0.727106 1.6848 0
M  V30 25013 H 2253.07 -0.683925 3.90049 0
M  V30 25014 H 2254.24 2.17036 4.06488 0
M  V30 25015 H 2252.56 1.82027 3.74507 0
M  V30 25016 H 2255.16 -0.467685 5.32651 0
M  V30 25017 H 2255.5 -1.42975 3.90978 0
M  V30 25018 H 2256.03 0.267999 3.96896 0
M  V30 25019 H 2252.77 2.36074 6.11514 0
M  V30 25020 H 2252.29 0.655 5.96213 0
M  V30 25021 H 2253.97 1.07816 6.37953 0
M  V30 25022 N 2254.1 -1.54444 0.313841 0
M  V30 25023 C 2255.03 -2.21466 -0.590386 0
M  V30 25024 C 2256.05 -1.21149 -1.08751 0
M  V30 25025 O 2257.24 -1.47672 -1.00276 0
M  V30 25026 C 2254.34 -2.85772 -1.82174 0
M  V30 25027 C 2253.51 -4.12138 -1.46495 0
M  V30 25028 C 2252.57 -4.60129 -2.5528 0
M  V30 25029 O 2251.59 -5.25036 -2.19832 0
M  V30 25030 N 2252.8 -4.33532 -3.86045 0
M  V30 25031 H 2255.56 -2.99695 -0.0165506 0
M  V30 25032 H 2253.12 -1.61323 0.136607 0
M  V30 25033 H 2255.11 -3.14805 -2.54322 0
M  V30 25034 H 2253.68 -2.11307 -2.30365 0
M  V30 25035 H 2252.9 -3.89976 -0.575527 0
M  V30 25036 H 2254.19 -4.94395 -1.20213 0
M  V30 25037 H 2253.59 -3.81559 -4.17647 0
M  V30 25038 H 2252.15 -4.67243 -4.54453 0
M  V30 25039 N 2255.58 -0.0418125 -1.57545 0
M  V30 25040 C 2256.49 0.951175 -2.14452 0
M  V30 25041 C 2257.51 1.34823 -1.09995 0
M  V30 25042 O 2258.68 1.42705 -1.42117 0
M  V30 25043 C 2255.75 2.21079 -2.67067 0
M  V30 25044 C 2254.81 1.87297 -3.86288 0
M  V30 25045 C 2254.04 3.07254 -4.36384 0
M  V30 25046 O 2254.26 4.20325 -3.85594 0
M  V30 25047 O 2253.2 2.88812 -5.28082 0
M  V30 25048 H 2257.02 0.497235 -2.99602 0
M  V30 25049 H 2254.61 0.179541 -1.48317 0
M  V30 25050 H 2256.49 2.95001 -3.0092 0
M  V30 25051 H 2255.17 2.65629 -1.84994 0
M  V30 25052 H 2254.07 1.10721 -3.5734 0
M  V30 25053 H 2255.41 1.47554 -4.69562 0
M  V30 25054 N 2257.06 1.55891 0.231477 0
M  V30 25055 C 2258.31 1.77642 0.955315 0
M  V30 25056 C 2258.62 0.608579 1.85892 0
M  V30 25057 O 2259.83 0.709476 2.62066 0
M  V30 25058 C 2258.28 3.14555 1.74881 0
M  V30 25059 C 2257.89 4.39033 0.891838 0
M  V30 25060 C 2259.63 3.45637 2.46445 0
M  V30 25061 C 2257.54 5.66974 1.68211 0
M  V30 25062 H 2256.47 0.662271 0.360434 0
M  V30 25063 H 2259.12 1.823 0.209484 0
M  V30 25064 H 2257.5 3.04045 2.53717 0
M  V30 25065 H 2258.68 4.60573 0.144712 0
M  V30 25066 H 2256.99 4.15397 0.28879 0
M  V30 25067 H 2259.59 4.38447 3.06053 0
M  V30 25068 H 2259.93 2.67674 3.18836 0
M  V30 25069 H 2260.47 3.57431 1.74607 0
M  V30 25070 H 2257.21 6.47802 1.00166 0
M  V30 25071 H 2256.73 5.49511 2.40411 0
M  V30 25072 H 2258.4 6.0679 2.24533 0
M  V30 25073 N 2258.54 -0.497781 1.49532 0
M  V30 25074 C 2259.77 -1.27379 1.62659 0
M  V30 25075 C 2260.17 -1.8683 0.298521 0
M  V30 25076 O 2259.52 -1.68726 -0.726441 0
M  V30 25077 C 2259.58 -2.44088 2.63934 0
M  V30 25078 C 2259.24 -2.05482 4.08199 0
M  V30 25079 C 2260.24 -1.5927 4.94903 0
M  V30 25080 C 2257.93 -2.15018 4.53952 0
M  V30 25081 C 2259.92 -1.23102 6.254 0
M  V30 25082 C 2257.61 -1.78462 5.84461 0
M  V30 25083 C 2258.6 -1.32579 6.70009 0
M  V30 25084 O 2258.29 -0.965187 7.98085 0
M  V30 25085 H 2258.02 -0.392424 0.550436 0
M  V30 25086 H 2260.58 -0.603767 1.96326 0
M  V30 25087 H 2258.81 -3.14177 2.25454 0
M  V30 25088 H 2260.5 -3.06108 2.66557 0
M  V30 25089 H 2261.26 -1.51346 4.60781 0
M  V30 25090 H 2257.14 -2.49683 3.8753 0
M  V30 25091 H 2260.69 -0.872177 6.92126 0
M  V30 25092 H 2256.58 -1.86037 6.1811 0
M  V30 25093 H 2257.35 -1.09638 8.11124 0
M  V30 25094 N 2260.01 -1.38661 -0.749062 0
M  V30 25095 C 2260.92 -1.38497 -1.89356 0
M  V30 25096 C 2261.94 -0.281506 -1.71708 0
M  V30 25097 O 2263.12 -0.520678 -1.94553 0
M  V30 25098 C 2260.18 -1.21322 -3.2478 0
M  V30 25099 C 2259.24 -2.41514 -3.54922 0
M  V30 25100 C 2258.48 -2.25148 -4.83884 0
M  V30 25101 O 2258.7 -1.24756 -5.5659 0
M  V30 25102 O 2257.63 -3.13835 -5.13606 0
M  V30 25103 H 2261.46 -2.34942 -1.92448 0
M  V30 25104 H 2259.04 -1.19628 -0.89496 0
M  V30 25105 H 2260.93 -1.13821 -4.05737 0
M  V30 25106 H 2259.6 -0.279649 -3.2249 0
M  V30 25107 H 2258.51 -2.5459 -2.74107 0
M  V30 25108 H 2259.84 -3.33516 -3.61977 0
M  V30 25109 N 2261.49 0.977736 -1.23605 0
M  V30 25110 C 2262.44 2.07059 -1.01957 0
M  V30 25111 C 2263.41 1.65977 0.0638405 0
M  V30 25112 O 2264.6 1.90593 -0.0887959 0
M  V30 25113 C 2261.74 3.3949 -0.619717 0
M  V30 25114 C 2260.85 3.93826 -1.77554 0
M  V30 25115 C 2259.98 5.14481 -1.32221 0
M  V30 25116 C 2259.02 5.60989 -2.44862 0
M  V30 25117 N 2258.16 6.72872 -2.00468 0
M  V30 25118 H 2263 2.24909 -1.95499 0
M  V30 25119 H 2260.54 1.10245 -0.973881 0
M  V30 25120 H 2262.49 4.15565 -0.368971 0
M  V30 25121 H 2261.12 3.21595 0.278695 0
M  V30 25122 H 2260.18 3.14482 -2.14022 0
M  V30 25123 H 2261.49 4.2431 -2.62227 0
M  V30 25124 H 2260.64 5.97897 -1.02975 0
M  V30 25125 H 2259.38 4.85657 -0.445893 0
M  V30 25126 H 2258.39 4.76153 -2.74879 0
M  V30 25127 H 2259.61 5.91832 -3.33035 0
M  V30 25128 H 2257.56 6.45802 -1.1522 0
M  V30 25129 H 2257.47 7.02754 -2.78699 0
M  V30 25130 H 2258.74 7.59755 -1.74334 0
M  V30 25131 N 2262.97 1.04818 1.1769 0
M  V30 25132 C 2263.88 0.65647 2.25228 0
M  V30 25133 C 2264.9 -0.320731 1.71018 0
M  V30 25134 O 2266.07 -0.173769 2.00649 0
M  V30 25135 C 2263.14 0.0333239 3.46684 0
M  V30 25136 C 2262.2 1.06049 4.15995 0
M  V30 25137 C 2261.43 0.466987 5.31653 0
M  V30 25138 O 2261.66 -0.724658 5.65778 0
M  V30 25139 O 2260.59 1.1994 5.89829 0
M  V30 25140 H 2264.42 1.5526 2.61014 0
M  V30 25141 H 2262 0.819512 1.24917 0
M  V30 25142 H 2263.88 -0.313183 4.20235 0
M  V30 25143 H 2262.56 -0.836511 3.12705 0
M  V30 25144 H 2261.46 1.45892 3.4448 0
M  V30 25145 H 2262.8 1.90135 4.53993 0
M  V30 25146 N 2264.45 -1.34055 0.828678 0
M  V30 25147 C 2265.36 -2.33191 0.256766 0
M  V30 25148 C 2266.38 -1.62887 -0.611869 0
M  V30 25149 O 2267.55 -1.94614 -0.518406 0
M  V30 25150 C 2264.62 -3.42029 -0.567178 0
M  V30 25151 C 2263.68 -4.28072 0.324534 0
M  V30 25152 C 2262.91 -5.31712 -0.460181 0
M  V30 25153 O 2263.13 -5.44699 -1.6929 0
M  V30 25154 O 2262.07 -6.01686 0.160497 0
M  V30 25155 H 2265.89 -2.83945 1.07744 0
M  V30 25156 H 2263.48 -1.37216 0.590954 0
M  V30 25157 H 2265.36 -4.08473 -1.03575 0
M  V30 25158 H 2264.04 -2.93509 -1.36508 0
M  V30 25159 H 2262.94 -3.64531 0.840723 0
M  V30 25160 H 2264.28 -4.80048 1.08694 0
M  V30 25161 N 2265.93 -0.584167 -1.46374 0
M  V30 25162 C 2266.86 0.186078 -2.28443 0
M  V30 25163 C 2267.87 0.854091 -1.38597 0
M  V30 25164 O 2269.06 0.723409 -1.63184 0
M  V30 25165 C 2266.16 1.28305 -3.13673 0
M  V30 25166 C 2265.33 0.706682 -4.31654 0
M  V30 25167 C 2264.39 1.69155 -4.9827 0
M  V30 25168 O 2263.42 1.22702 -5.55817 0
M  V30 25169 N 2264.62 3.02566 -4.95413 0
M  V30 25170 H 2267.39 -0.518037 -2.95189 0
M  V30 25171 H 2264.95 -0.422038 -1.56302 0
M  V30 25172 H 2266.94 1.94121 -3.55104 0
M  V30 25173 H 2265.51 1.89001 -2.48993 0
M  V30 25174 H 2264.73 -0.128977 -3.93989 0
M  V30 25175 H 2266.02 0.301417 -5.07906 0
M  V30 25176 H 2265.42 3.42928 -4.49908 0
M  V30 25177 H 2263.97 3.63868 -5.40781 0
M  V30 25178 N 2267.41 1.54275 -0.322027 0
M  V30 25179 C 2268.65 2.00541 0.281009 0
M  V30 25180 C 2268.98 1.21022 1.52263 0
M  V30 25181 O 2268.24 0.280016 1.93686 0
M  V30 25182 C 2268.53 3.51221 0.661707 0
M  V30 25183 C 2268.2 4.48332 -0.48056 0
M  V30 25184 C 2266.86 4.74603 -0.794088 0
M  V30 25185 C 2269.21 5.0604 -1.24792 0
M  V30 25186 C 2266.54 5.5584 -1.87773 0
M  V30 25187 C 2268.89 5.88458 -2.32164 0
M  V30 25188 C 2267.56 6.13031 -2.641 0
M  V30 25189 H 2266.83 0.733831 0.102828 0
M  V30 25190 H 2269.48 1.86246 -0.445486 0
M  V30 25191 H 2267.78 3.63234 1.4686 0
M  V30 25192 H 2269.48 3.84459 1.13982 0
M  V30 25193 H 2266.07 4.28003 -0.226114 0
M  V30 25194 H 2270.25 4.85727 -1.01896 0
M  V30 25195 H 2265.51 5.73111 -2.12964 0
M  V30 25196 H 2269.68 6.32194 -2.92068 0
M  V30 25197 H 2267.31 6.75769 -3.48196 0
M  V30 25198 N 2268.88 0.0501669 1.5752 0
M  V30 25199 C 2269.83 -0.942421 2.12653 0
M  V30 25200 C 2270.83 -1.32291 1.05809 0
M  V30 25201 O 2272.03 -1.30268 1.24219 0
M  V30 25202 H 2268.41 -0.321777 0.679679 0
M  V30 25203 H 2270.38 -0.452304 2.94952 0
M  V30 25204 C 2269.13 -2.20831 2.68568 0
M  V30 25205 H 2268.45 -1.92433 3.50442 0
M  V30 25206 H 2269.89 -2.88444 3.10767 0
M  V30 25207 C 2268.35 -2.95231 1.62297 0
M  V30 25208 O 2268.88 -3.88133 1.03515 0
M  V30 25209 N 2267.08 -2.57944 1.33841 0
M  V30 25210 H 2266.63 -1.82472 1.81829 0
M  V30 25211 H 2266.59 -3.0803 0.629649 0
M  V30 25212 N 2270.36 -1.56011 -0.223207 0
M  V30 25213 C 2271.61 -1.78146 -0.945881 0
M  V30 25214 C 2271.92 -0.618429 -1.85566 0
M  V30 25215 O 2273.13 -0.723364 -2.61686 0
M  V30 25216 C 2271.59 -3.15478 -1.7321 0
M  V30 25217 C 2271.19 -4.395 -0.868542 0
M  V30 25218 C 2272.94 -3.46939 -2.44609 0
M  V30 25219 C 2270.84 -5.67858 -1.65202 0
M  V30 25220 H 2269.77 -0.664173 -0.356917 0
M  V30 25221 H 2272.43 -1.82409 -0.199813 0
M  V30 25222 H 2270.81 -3.05387 -2.52101 0
M  V30 25223 H 2271.98 -4.60643 -0.120285 0
M  V30 25224 H 2270.3 -4.15545 -0.266757 0
M  V30 25225 H 2272.89 -4.40063 -3.03724 0
M  V30 25226 H 2273.24 -2.69361 -3.17412 0
M  V30 25227 H 2273.77 -3.58352 -1.72709 0
M  V30 25228 H 2270.51 -6.48324 -0.967293 0
M  V30 25229 H 2270.03 -5.50779 -2.37493 0
M  V30 25230 H 2271.71 -6.07972 -2.21312 0
M  V30 25231 N 2271.84 0.489844 -1.49794 0
M  V30 25232 C 2272.79 1.59011 -1.67284 0
M  V30 25233 C 2273.76 1.5794 -0.514204 0
M  V30 25234 O 2274.94 1.75757 -0.742564 0
M  V30 25235 C 2272.08 2.97099 -1.75574 0
M  V30 25236 C 2271.19 3.08102 -3.02816 0
M  V30 25237 C 2270.33 4.3699 -3.02016 0
M  V30 25238 C 2269.37 4.41666 -4.2379 0
M  V30 25239 N 2268.51 5.61998 -4.20836 0
M  V30 25240 H 2273.35 1.43405 -2.61226 0
M  V30 25241 H 2270.88 0.697542 -1.2951 0
M  V30 25242 H 2272.84 3.77152 -1.78361 0
M  V30 25243 H 2271.47 3.11384 -0.850882 0
M  V30 25244 H 2270.52 2.21041 -3.09588 0
M  V30 25245 H 2271.83 3.07416 -3.92806 0
M  V30 25246 H 2270.99 5.25373 -3.03427 0
M  V30 25247 H 2269.73 4.40256 -2.09823 0
M  V30 25248 H 2268.73 3.51683 -4.2261 0
M  V30 25249 H 2269.96 4.40106 -5.17188 0
M  V30 25250 H 2267.9 5.66086 -3.31486 0
M  V30 25251 H 2267.82 5.62976 -5.04574 0
M  V30 25252 H 2269.09 6.52558 -4.26367 0
M  V30 25253 N 2273.32 1.39056 0.741698 0
M  V30 25254 C 2274.25 1.33136 1.86567 0
M  V30 25255 C 2275.26 0.241357 1.61001 0
M  V30 25256 O 2276.45 0.499814 1.7136 0
M  V30 25257 C 2273.55 1.04288 3.22455 0
M  V30 25258 C 2272.72 2.24434 3.75431 0
M  V30 25259 C 2271.78 1.92146 4.89864 0
M  V30 25260 O 2270.81 2.64763 5.03874 0
M  V30 25261 N 2272.01 0.883571 5.73736 0
M  V30 25262 H 2274.78 2.29995 1.92152 0
M  V30 25263 H 2272.34 1.33072 0.922149 0
M  V30 25264 H 2274.33 0.807197 3.96568 0
M  V30 25265 H 2272.9 0.161862 3.12181 0
M  V30 25266 H 2272.12 2.63995 2.92746 0
M  V30 25267 H 2273.41 3.04588 4.07558 0
M  V30 25268 H 2272.81 0.281616 5.64999 0
M  V30 25269 H 2271.36 0.707776 6.47946 0
M  V30 25270 N 2274.8 -0.971167 1.24121 0
M  V30 25271 C 2276.04 -1.70799 1.07287 0
M  V30 25272 C 2276.36 -1.91696 -0.388868 0
M  V30 25273 O 2277.56 -2.62915 -0.677333 0
M  V30 25274 C 2276.02 -3.07413 1.8715 0
M  V30 25275 C 2275.63 -2.94371 3.37712 0
M  V30 25276 C 2277.37 -3.84992 1.78834 0
M  V30 25277 C 2275.28 -4.26274 4.09933 0
M  V30 25278 H 2274.21 -0.640483 0.397865 0
M  V30 25279 H 2276.86 -1.08247 1.48172 0
M  V30 25280 H 2275.24 -3.70774 1.39078 0
M  V30 25281 H 2276.42 -2.40044 3.93339 0
M  V30 25282 H 2274.73 -2.30261 3.46942 0
M  V30 25283 H 2277.33 -4.82658 2.30098 0
M  V30 25284 H 2277.67 -4.09435 0.752912 0
M  V30 25285 H 2278.2 -3.2835 2.24568 0
M  V30 25286 H 2274.94 -4.07024 5.13821 0
M  V30 25287 H 2274.46 -4.8043 3.59091 0
M  V30 25288 H 2276.14 -4.94912 4.16739 0
M  V30 25289 N 2276.27 -1.05441 -1.17133 0
M  V30 25290 C 2277.5 -0.786429 -1.91912 0
M  V30 25291 C 2277.92 0.652203 -1.76431 0
M  V30 25292 O 2277.28 1.45343 -1.08375 0
M  V30 25293 C 2277.33 -1.17503 -3.40918 0
M  V30 25294 O 2276.43 -0.308661 -4.11243 0
M  V30 25295 H 2275.78 -0.288168 -0.59821 0
M  V30 25296 H 2278.31 -1.40792 -1.48454 0
M  V30 25297 H 2278.32 -1.14287 -3.91666 0
M  V30 25298 H 2276.99 -2.22298 -3.51506 0
M  V30 25299 H 2275.57 -0.401635 -3.70731 0
M  V30 25300 N 2277.75 1.33613 -0.835776 0
M  V30 25301 C 2278.66 2.33051 -0.269129 0
M  V30 25302 C 2279.68 1.63209 0.603222 0
M  V30 25303 O 2280.85 1.94886 0.508078 0
M  V30 25304 C 2277.92 3.42325 0.549031 0
M  V30 25305 C 2276.98 4.27893 -0.347231 0
M  V30 25306 C 2276.21 5.31949 0.431976 0
M  V30 25307 O 2276.44 5.45589 1.66399 0
M  V30 25308 O 2275.37 6.01592 -0.192404 0
M  V30 25309 H 2279.2 2.8337 -1.09248 0
M  V30 25310 H 2276.78 1.369 -0.598222 0
M  V30 25311 H 2278.66 4.09017 1.01407 0
M  V30 25312 H 2277.34 2.94228 1.34949 0
M  V30 25313 H 2276.25 3.6408 -0.860043 0
M  V30 25314 H 2277.58 4.79465 -1.11238 0
M  V30 25315 N 2279.23 0.591922 1.46062 0
M  V30 25316 C 2280.48 0.0811547 2.02638 0
M  V30 25317 C 2280.81 -1.27902 1.46132 0
M  V30 25318 O 2280.08 -1.84016 0.62994 0
M  V30 25319 C 2280.37 0.0253069 3.60091 0
M  V30 25320 C 2280.22 1.41504 4.26962 0
M  V30 25321 C 2281.54 -0.670608 4.34961 0
M  V30 25322 H 2278.66 0.0309654 0.736349 0
M  V30 25323 H 2281.3 0.76089 1.74099 0
M  V30 25324 H 2279.45 -0.553557 3.84536 0
M  V30 25325 H 2281.12 2.03978 4.13752 0
M  V30 25326 H 2279.37 1.98018 3.85968 0
M  V30 25327 H 2280.04 1.32835 5.35779 0
M  V30 25328 H 2282.51 -0.178752 4.15716 0
M  V30 25329 H 2281.39 -0.678742 5.44687 0
M  V30 25330 H 2281.65 -1.73371 4.06688 0
M  V30 25331 N 2280.71 -1.54102 0.330204 0
M  V30 25332 C 2281.64 -2.22079 -0.566863 0
M  V30 25333 C 2282.65 -1.22296 -1.0746 0
M  V30 25334 O 2283.84 -1.48727 -0.987038 0
M  V30 25335 C 2280.94 -2.87689 -1.79133 0
M  V30 25336 C 2280.12 -4.13669 -1.42115 0
M  V30 25337 C 2279.17 -4.6281 -2.50386 0
M  V30 25338 O 2278.2 -5.27338 -2.14251 0
M  V30 25339 N 2279.4 -4.37602 -3.81425 0
M  V30 25340 H 2282.17 -2.99696 0.0152371 0
M  V30 25341 H 2279.73 -1.61169 0.153709 0
M  V30 25342 H 2281.72 -3.17485 -2.50969 0
M  V30 25343 H 2280.29 -2.13738 -2.28111 0
M  V30 25344 H 2279.51 -3.90565 -0.534132 0
M  V30 25345 H 2280.8 -4.95642 -1.14962 0
M  V30 25346 H 2280.2 -3.85967 -4.13577 0
M  V30 25347 H 2278.75 -4.72037 -4.49472 0
M  V30 25348 N 2282.19 -0.0585199 -1.57491 0
M  V30 25349 C 2283.1 0.928376 -2.15449 0
M  V30 25350 C 2284.11 1.33648 -1.11419 0
M  V30 25351 O 2285.29 1.4119 -1.43622 0
M  V30 25352 C 2282.35 2.18234 -2.69397 0
M  V30 25353 C 2281.41 1.8319 -3.88253 0
M  V30 25354 C 2280.65 3.02608 -4.39618 0
M  V30 25355 O 2280.87 4.16212 -3.90031 0
M  V30 25356 O 2279.8 2.83195 -5.31116 0
M  V30 25357 H 2283.63 0.46543 -3.00112 0
M  V30 25358 H 2281.22 0.1638 -1.48499 0
M  V30 25359 H 2283.1 2.91792 -3.04032 0
M  V30 25360 H 2281.77 2.63652 -1.87801 0
M  V30 25361 H 2280.68 1.06924 -3.58494 0
M  V30 25362 H 2282.01 1.42565 -4.71101 0
M  V30 25363 N 2283.66 1.56128 0.21493 0
M  V30 25364 C 2284.61 1.92954 1.26639 0
M  V30 25365 C 2285.58 0.787555 1.46242 0
M  V30 25366 O 2286.77 1.04402 1.59702 0
M  V30 25367 C 2283.91 2.2573 2.61036 0
M  V30 25368 C 2283.02 3.52895 2.49177 0
M  V30 25369 C 2282.15 3.75087 3.76143 0
M  V30 25370 C 2281.19 4.95744 3.59033 0
M  V30 25371 N 2280.33 5.14291 4.77963 0
M  V30 25372 H 2285.17 2.82608 0.945334 0
M  V30 25373 H 2282.71 1.39871 0.455465 0
M  V30 25374 H 2284.67 2.42745 3.39309 0
M  V30 25375 H 2283.3 1.39241 2.91225 0
M  V30 25376 H 2282.35 3.44037 1.62304 0
M  V30 25377 H 2283.66 4.41322 2.32458 0
M  V30 25378 H 2282.81 3.92234 4.62858 0
M  V30 25379 H 2281.55 2.84954 3.95794 0
M  V30 25380 H 2280.56 4.7854 2.70701 0
M  V30 25381 H 2281.78 5.87368 3.40846 0
M  V30 25382 H 2279.73 4.27102 4.97916 0
M  V30 25383 H 2279.65 5.96862 4.63996 0
M  V30 25384 H 2280.91 5.35879 5.66086 0
M  V30 25385 N 2285.14 -0.481893 1.50052 0
M  V30 25386 C 2286.39 -1.23658 1.60738 0
M  V30 25387 C 2286.72 -1.9184 0.30182 0
M  V30 25388 O 2286 -1.81621 -0.695993 0
M  V30 25389 C 2286.28 -2.28869 2.78013 0
M  V30 25390 C 2286.13 -1.65062 4.18419 0
M  V30 25391 C 2287.45 -3.30274 2.90873 0
M  V30 25392 H 2284.57 -0.448218 0.585038 0
M  V30 25393 H 2287.21 -0.531914 1.82403 0
M  V30 25394 H 2285.36 -2.88969 2.59672 0
M  V30 25395 H 2287.03 -1.08642 4.48324 0
M  V30 25396 H 2285.28 -0.954074 4.23178 0
M  V30 25397 H 2285.95 -2.41465 4.96385 0
M  V30 25398 H 2288.42 -2.80186 3.07628 0
M  V30 25399 H 2287.3 -4.01231 3.74573 0
M  V30 25400 H 2287.56 -3.93751 2.01028 0
M  V30 25401 N 2286.62 -1.39448 -0.734313 0
M  V30 25402 C 2287.57 -1.38367 -1.86969 0
M  V30 25403 C 2288.56 -0.266717 -1.67287 0
M  V30 25404 O 2289.77 -0.436786 -1.7462 0
M  V30 25405 H 2286.14 -0.432093 -0.615467 0
M  V30 25406 H 2288.11 -2.34135 -1.84996 0
M  V30 25407 C 2286.86 -1.2447 -3.24657 0
M  V30 25408 H 2286.19 -2.09688 -3.40399 0
M  V30 25409 H 2287.63 -1.27771 -4.0429 0
M  V30 25410 C 2286.09 0.0468082 -3.36867 0
M  V30 25411 O 2286.62 1.01675 -3.8862 0
M  V30 25412 N 2284.82 0.110094 -2.90391 0
M  V30 25413 H 2284.37 -0.679912 -2.48465 0
M  V30 25414 H 2284.33 0.973747 -2.98941 0
M  V30 25415 N 2288.1 0.964571 -1.24635 0
M  V30 25416 C 2289.01 2.09357 -1.05863 0
M  V30 25417 C 2290.02 1.74 0.00145797 0
M  V30 25418 O 2291.2 2.0043 -0.197381 0
M  V30 25419 C 2288.27 3.40185 -0.668938 0
M  V30 25420 C 2287.33 3.89471 -1.80585 0
M  V30 25421 C 2286.56 5.14056 -1.43466 0
M  V30 25422 O 2286.78 5.69468 -0.325875 0
M  V30 25423 O 2285.72 5.57803 -2.26139 0
M  V30 25424 H 2289.54 2.28091 -2.0052 0
M  V30 25425 H 2287.13 1.07758 -1.03482 0
M  V30 25426 H 2289.01 4.18846 -0.463285 0
M  V30 25427 H 2287.68 3.22745 0.24848 0
M  V30 25428 H 2286.59 3.11858 -2.06628 0
M  V30 25429 H 2287.92 4.11393 -2.70216 0
M  V30 25430 N 2289.58 1.0606 1.16572 0
M  V30 25431 C 2290.51 0.690527 2.23056 0
M  V30 25432 C 2291.49 -0.315871 1.67141 0
M  V30 25433 O 2292.67 -0.191522 1.93253 0
M  V30 25434 C 2289.8 0.073686 3.47222 0
M  V30 25435 C 2288.76 1.0058 4.16014 0
M  V30 25436 C 2288.08 0.252383 5.34104 0
M  V30 25437 C 2289.38 2.33379 4.6726 0
M  V30 25438 H 2291.08 1.58077 2.54268 0
M  V30 25439 H 2288.62 0.761512 1.22217 0
M  V30 25440 H 2290.58 -0.197066 4.20939 0
M  V30 25441 H 2289.3 -0.851555 3.15303 0
M  V30 25442 H 2287.96 1.26126 3.44221 0
M  V30 25443 H 2287.61 -0.675901 4.98438 0
M  V30 25444 H 2287.31 0.873557 5.8107 0
M  V30 25445 H 2288.83 -0.0108784 6.10599 0
M  V30 25446 H 2290.24 2.12233 5.32569 0
M  V30 25447 H 2288.64 2.90973 5.24838 0
M  V30 25448 H 2289.71 2.96617 3.83596 0
M  V30 25449 N 2291.06 -1.33168 0.84285 0
M  V30 25450 C 2292 -2.29133 0.276925 0
M  V30 25451 C 2292.97 -1.54513 -0.609499 0
M  V30 25452 O 2294.16 -1.82793 -0.546923 0
M  V30 25453 C 2291.3 -3.4087 -0.538647 0
M  V30 25454 C 2290.41 -4.30393 0.372245 0
M  V30 25455 C 2289.55 -5.29249 -0.454815 0
M  V30 25456 C 2288.58 -6.10412 0.454218 0
M  V30 25457 N 2287.72 -7.01301 -0.334952 0
M  V30 25458 H 2292.56 -2.76932 1.10057 0
M  V30 25459 H 2290.1 -1.36262 0.554185 0
M  V30 25460 H 2292.06 -4.04362 -1.02702 0
M  V30 25461 H 2290.69 -2.94253 -1.32722 0
M  V30 25462 H 2289.74 -3.67588 0.978944 0
M  V30 25463 H 2291.05 -4.8718 1.07039 0
M  V30 25464 H 2290.2 -5.98287 -1.00684 0
M  V30 25465 H 2288.94 -4.7305 -1.18638 0
M  V30 25466 H 2287.95 -5.40289 1.01823 0
M  V30 25467 H 2289.17 -6.68695 1.18421 0
M  V30 25468 H 2287.12 -6.47545 -1.04982 0
M  V30 25469 H 2287.04 -7.55387 0.304395 0
M  V30 25470 H 2288.3 -7.7464 -0.869088 0
M  V30 25471 N 2292.53 -0.599659 -1.45746 0
M  V30 25472 C 2293.47 0.161838 -2.28628 0
M  V30 25473 C 2294.48 0.839343 -1.39495 0
M  V30 25474 O 2295.67 0.706061 -1.63942 0
M  V30 25475 C 2292.77 1.24971 -3.15017 0
M  V30 25476 C 2291.94 0.660859 -4.32379 0
M  V30 25477 C 2291 1.6386 -5.00036 0
M  V30 25478 O 2290.03 1.168 -5.57087 0
M  V30 25479 N 2291.23 2.97294 -4.98594 0
M  V30 25480 H 2293.99 -0.549317 -2.94623 0
M  V30 25481 H 2291.55 -0.438592 -1.55846 0
M  V30 25482 H 2293.55 1.90344 -3.57143 0
M  V30 25483 H 2292.12 1.86349 -2.50983 0
M  V30 25484 H 2291.34 -0.170758 -3.9383 0
M  V30 25485 H 2292.62 0.24753 -5.08198 0
M  V30 25486 H 2292.02 3.38137 -4.53519 0
M  V30 25487 H 2290.58 3.58111 -5.44609 0
M  V30 25488 N 2294.01 1.53925 -0.338371 0
M  V30 25489 C 2295.26 2.00828 0.259723 0
M  V30 25490 C 2295.59 1.2263 1.5097 0
M  V30 25491 O 2294.84 0.300543 1.93378 0
M  V30 25492 C 2295.14 3.51903 0.624418 0
M  V30 25493 C 2294.81 4.47797 -0.528085 0
M  V30 25494 C 2293.47 4.73734 -0.844382 0
M  V30 25495 C 2295.82 5.04688 -1.30152 0
M  V30 25496 C 2293.15 5.53817 -1.93657 0
M  V30 25497 C 2295.5 5.85963 -2.38392 0
M  V30 25498 C 2294.16 6.10196 -2.70587 0
M  V30 25499 H 2293.43 0.73488 0.0950394 0
M  V30 25500 H 2296.08 1.85763 -0.465215 0
M  V30 25501 H 2294.39 3.64772 1.43 0
M  V30 25502 H 2296.08 3.85647 1.09898 0
M  V30 25503 H 2292.67 4.27739 -0.271496 0
M  V30 25504 H 2296.86 4.84619 -1.07042 0
M  V30 25505 H 2292.11 5.7082 -2.19031 0
M  V30 25506 H 2296.29 6.29061 -2.98757 0
M  V30 25507 H 2293.91 6.72038 -3.55344 0
M  V30 25508 N 2295.49 0.0668712 1.57458 0
M  V30 25509 C 2296.44 -0.902085 2.12441 0
M  V30 25510 C 2297.41 -1.29858 1.03567 0
M  V30 25511 O 2298.59 -1.3853 1.31203 0
M  V30 25512 C 2295.73 -2.16609 2.68653 0
M  V30 25513 C 2294.84 -1.82267 3.91667 0
M  V30 25514 C 2293.98 -3.03242 4.36139 0
M  V30 25515 C 2293.02 -2.64895 5.51813 0
M  V30 25516 N 2292.16 -3.78613 5.91267 0
M  V30 25517 H 2297 -0.42633 2.94935 0
M  V30 25518 H 2294.53 -0.198793 1.45751 0
M  V30 25519 H 2296.49 -2.90594 2.99351 0
M  V30 25520 H 2295.12 -2.61734 1.88932 0
M  V30 25521 H 2294.17 -0.983654 3.67462 0
M  V30 25522 H 2295.48 -1.50051 4.75695 0
M  V30 25523 H 2294.64 -3.85511 4.68472 0
M  V30 25524 H 2293.38 -3.38649 3.50954 0
M  V30 25525 H 2292.38 -1.81046 5.19136 0
M  V30 25526 H 2293.61 -2.30664 6.38726 0
M  V30 25527 H 2291.55 -4.13791 5.09032 0
M  V30 25528 H 2291.47 -3.50148 6.70024 0
M  V30 25529 H 2292.74 -4.61475 6.2822 0
M  V30 25530 N 2296.97 -1.56239 -0.206647 0
M  V30 25531 C 2297.88 -1.96811 -1.27682 0
M  V30 25532 C 2298.89 -0.874062 -1.50453 0
M  V30 25533 O 2300.07 -1.17887 -1.63293 0
M  V30 25534 C 2297.13 -2.28946 -2.60354 0
M  V30 25535 C 2296.2 -3.51998 -2.45756 0
M  V30 25536 C 2295.43 -3.82591 -3.72102 0
M  V30 25537 O 2295.65 -3.1464 -4.75771 0
M  V30 25538 O 2294.59 -4.76049 -3.68321 0
M  V30 25539 H 2298.41 -2.88043 -0.962543 0
M  V30 25540 H 2296 -1.43643 -0.410721 0
M  V30 25541 H 2297.88 -2.50743 -3.38682 0
M  V30 25542 H 2296.55 -1.40885 -2.91433 0
M  V30 25543 H 2295.46 -3.35462 -1.65578 0
M  V30 25544 H 2296.79 -4.40489 -2.19613 0
M  V30 25545 N 2298.45 0.473929 -1.50305 0
M  V30 25546 C 2299.4 1.56982 -1.6535 0
M  V30 25547 C 2300.38 1.52663 -0.508203 0
M  V30 25548 O 2301.57 1.59735 -0.762474 0
M  V30 25549 C 2298.7 2.95443 -1.74837 0
M  V30 25550 C 2297.79 3.04657 -2.95034 0
M  V30 25551 N 2298.18 2.83691 -4.18752 0
M  V30 25552 C 2296.48 3.35789 -2.93533 0
M  V30 25553 C 2297.18 2.97796 -4.99692 0
M  V30 25554 N 2296.15 3.27872 -4.33591 0
M  V30 25555 H 2299.95 1.39468 -2.587 0
M  V30 25556 H 2297.47 0.680603 -1.4745 0
M  V30 25557 H 2299.47 3.74237 -1.83718 0
M  V30 25558 H 2298.13 3.14007 -0.826431 0
M  V30 25559 H 2299.14 2.59329 -4.48296 0
M  V30 25560 H 2295.81 3.60358 -2.10827 0
M  V30 25561 H 2297.2 2.8585 -6.08062 0
M  V30 25562 N 2299.92 1.39835 0.726907 0
M  V30 25563 C 2301.34 1.21617 1.03352 0
M  V30 25564 C 2301.54 0.0834153 2.01327 0
M  V30 25565 O 2300.6 -0.562337 2.46159 0
M  V30 25566 C 2301.91 2.55345 1.58806 0
M  V30 25567 C 2303.46 2.6226 1.70847 0
M  V30 25568 C 2303.93 3.96229 2.29709 0
M  V30 25569 N 2305.42 3.97912 2.37109 0
M  V30 25570 C 2306.16 4.9835 2.8361 0
M  V30 25571 N 2305.65 6.09185 3.29947 0
M  V30 25572 N 2307.45 4.85725 2.82892 0
M  V30 25573 H 2299.6 2.12259 0.0772696 0
M  V30 25574 H 2301.86 0.943035 0.0968937 0
M  V30 25575 H 2301.57 3.38828 0.942796 0
M  V30 25576 H 2301.44 2.75636 2.57497 0
M  V30 25577 H 2303.83 1.79156 2.34493 0
M  V30 25578 H 2303.91 2.45811 0.70787 0
M  V30 25579 H 2303.55 4.79768 1.66688 0
M  V30 25580 H 2303.48 4.10003 3.30462 0
M  V30 25581 H 2305.97 3.17871 2.04368 0
M  V30 25582 H 2306.29 6.81726 3.63964 0
M  V30 25583 H 2304.63 6.12767 3.27935 0
M  V30 25584 H 2307.82 3.98236 2.4602 0
M  V30 25585 H 2308 5.64145 3.18817 0
M  V30 25586 N 2301.4 -0.957948 1.25144 0
M  V30 25587 C 2302.35 -2.05411 1.05239 0
M  V30 25588 C 2303.32 -1.66058 -0.0374269 0
M  V30 25589 O 2304.5 -1.90428 0.119106 0
M  V30 25590 C 2301.64 -3.38461 0.673649 0
M  V30 25591 C 2300.76 -3.90951 1.83797 0
M  V30 25592 C 2299.89 -5.12313 1.4039 0
M  V30 25593 C 2298.93 -5.57023 2.53756 0
M  V30 25594 N 2298.07 -6.69598 2.11147 0
M  V30 25595 H 2302.91 -2.21771 1.99052 0
M  V30 25596 H 2300.44 -1.08682 0.991297 0
M  V30 25597 H 2302.4 -4.14926 0.435037 0
M  V30 25598 H 2301.03 -3.21997 -0.227497 0
M  V30 25599 H 2300.08 -3.11037 2.18998 0
M  V30 25600 H 2301.4 -4.20084 2.68944 0
M  V30 25601 H 2300.55 -5.96183 1.12474 0
M  V30 25602 H 2299.29 -4.84887 0.5231 0
M  V30 25603 H 2298.29 -4.71719 2.8242 0
M  V30 25604 H 2299.52 -5.86458 3.42408 0
M  V30 25605 H 2297.47 -6.43887 1.25479 0
M  V30 25606 H 2297.38 -6.98231 2.89844 0
M  V30 25607 H 2298.65 -7.56886 1.86399 0
M  V30 25608 N 2302.88 -1.06677 -1.16008 0
M  V30 25609 C 2303.84 -0.685039 -2.18723 0
M  V30 25610 C 2304.84 0.271218 -1.58496 0
M  V30 25611 O 2306.03 0.053085 -1.74119 0
M  V30 25612 C 2303.16 -0.0085964 -3.40899 0
M  V30 25613 H 2304.36 -1.59435 -2.54009 0
M  V30 25614 H 2301.91 -0.862464 -1.3035 0
M  V30 25615 H 2302.65 0.913282 -3.11175 0
M  V30 25616 H 2302.43 -0.696271 -3.85868 0
M  V30 25617 H 2303.92 0.244066 -4.16886 0
M  V30 25618 N 2304.36 1.32719 -0.8499 0
M  V30 25619 C 2305.3 2.28983 -0.289073 0
M  V30 25620 C 2306.27 1.54834 0.601297 0
M  V30 25621 O 2307.46 1.83081 0.537221 0
M  V30 25622 C 2304.6 3.41151 0.520563 0
M  V30 25623 C 2303.71 4.3019 -0.395064 0
M  V30 25624 C 2302.85 5.29483 0.426741 0
M  V30 25625 C 2301.89 6.10163 -0.486583 0
M  V30 25626 N 2301.02 7.01468 0.297755 0
M  V30 25627 H 2305.86 2.76345 -1.11524 0
M  V30 25628 H 2303.4 1.35966 -0.561403 0
M  V30 25629 H 2305.36 4.049 1.00556 0
M  V30 25630 H 2303.99 2.94952 1.3116 0
M  V30 25631 H 2303.04 3.67064 -0.998425 0
M  V30 25632 H 2304.35 4.86605 -1.09621 0
M  V30 25633 H 2303.51 5.98813 0.9751 0
M  V30 25634 H 2302.25 4.73673 1.16127 0
M  V30 25635 H 2301.25 5.39741 -1.04686 0
M  V30 25636 H 2302.48 6.68058 -1.21965 0
M  V30 25637 H 2300.42 6.48093 1.01547 0
M  V30 25638 H 2300.34 7.55215 -0.34445 0
M  V30 25639 H 2301.61 7.7509 0.827994 0
M  V30 25640 N 2305.84 0.60738 1.45426 0
M  V30 25641 C 2307.11 0.034491 1.9557 0
M  V30 25642 C 2307.49 -1.43332 1.54981 0
M  V30 25643 O 2306.84 -2.13575 0.812278 0
M  V30 25644 C 2307.05 0.232382 3.48225 0
M  V30 25645 C 2308.4 0.113076 4.24449 0
M  V30 25646 O 2309.42 0.162493 3.55829 0
M  V30 25647 O 2308.28 -0.00199836 5.465 0
M  V30 25648 H 2305.38 -0.0358522 0.826223 0
M  V30 25649 H 2307.92 0.677427 1.55592 0
M  V30 25650 H 2306.69 1.25181 3.70736 0
M  V30 25651 H 2306.32 -0.445826 3.95093 0
M  V30 25652 N 2307.31 -1.53743 0.34653 0
M  V30 25653 C 2308.54 -2.05851 -0.253038 0
M  V30 25654 C 2308.96 -1.21965 -1.432 0
M  V30 25655 O 2308.32 -0.234104 -1.79782 0
M  V30 25656 C 2308.37 -3.54819 -0.64313 0
M  V30 25657 O 2307.47 -3.73765 -1.74279 0
M  V30 25658 H 2306.82 -0.662711 -0.0413466 0
M  V30 25659 H 2309.35 -1.98356 0.501609 0
M  V30 25660 H 2309.36 -3.97505 -0.919456 0
M  V30 25661 H 2308.03 -4.15323 0.219039 0
M  V30 25662 H 2306.61 -3.42981 -1.4635 0
M  V30 25663 N 2308.79 -0.0752207 -1.5742 0
M  V30 25664 C 2309.76 0.876166 -2.11792 0
M  V30 25665 C 2310.76 1.22411 -1.0427 0
M  V30 25666 O 2311.95 1.15681 -1.30244 0
M  V30 25667 C 2309.08 2.1785 -2.6221 0
M  V30 25668 H 2310.27 0.404388 -2.97161 0
M  V30 25669 H 2307.82 0.17353 -1.55334 0
M  V30 25670 H 2308.56 2.69556 -1.80305 0
M  V30 25671 H 2308.34 1.93891 -3.40806 0
M  V30 25672 H 2309.83 2.85949 -3.0434 0
M  V30 25673 N 2310.27 1.56347 0.198358 0
M  V30 25674 C 2311.2 1.97312 1.24861 0
M  V30 25675 C 2312.18 0.844602 1.4765 0
M  V30 25676 O 2313.37 1.10868 1.59442 0
M  V30 25677 C 2310.5 2.30982 2.59354 0
M  V30 25678 C 2309.45 3.46541 2.51183 0
M  V30 25679 C 2308.78 3.65878 3.8992 0
M  V30 25680 C 2310.08 4.80826 2.03969 0
M  V30 25681 H 2311.77 2.85293 0.908202 0
M  V30 25682 H 2309.32 1.37259 0.435438 0
M  V30 25683 H 2311.27 2.58234 3.33006 0
M  V30 25684 H 2309.99 1.3988 2.95129 0
M  V30 25685 H 2308.65 3.19374 1.79988 0
M  V30 25686 H 2308.3 2.72112 4.23041 0
M  V30 25687 H 2308 4.43617 3.85328 0
M  V30 25688 H 2309.52 3.95503 4.65198 0
M  V30 25689 H 2310.94 5.07132 2.67377 0
M  V30 25690 H 2309.34 5.62012 2.10387 0
M  V30 25691 H 2310.41 4.74628 0.992778 0
M  V30 25692 N 2311.75 -0.465951 1.50554 0
M  V30 25693 C 2312.68 -1.5809 1.65952 0
M  V30 25694 C 2313.69 -1.53553 0.540854 0
M  V30 25695 O 2314.88 -1.58848 0.814215 0
M  V30 25696 C 2311.98 -2.9698 1.63267 0
M  V30 25697 C 2311.16 -3.26331 2.9125 0
M  V30 25698 C 2310.21 -4.44801 2.81138 0
M  V30 25699 O 2309.24 -4.44856 3.55094 0
M  V30 25700 N 2310.44 -5.46753 1.95042 0
M  V30 25701 H 2313.21 -1.45296 2.62124 0
M  V30 25702 H 2310.77 -0.654454 1.48083 0
M  V30 25703 H 2312.76 -3.7421 1.54108 0
M  V30 25704 H 2311.33 -3.03517 0.748086 0
M  V30 25705 H 2310.55 -2.37666 3.14497 0
M  V30 25706 H 2311.84 -3.42755 3.76028 0
M  V30 25707 H 2311.24 -5.49532 1.34279 0
M  V30 25708 H 2309.79 -6.22947 1.91783 0
M  V30 25709 N 2313.23 -1.40218 -0.719481 0
M  V30 25710 C 2314.45 -1.41783 -1.51368 0
M  V30 25711 C 2314.88 -0.0182685 -1.88091 0
M  V30 25712 O 2314.23 0.97268 -1.52999 0
M  V30 25713 C 2314.28 -2.3112 -2.76796 0
M  V30 25714 O 2313.39 -1.75177 -3.73345 0
M  V30 25715 H 2312.73 -0.482167 -0.456521 0
M  V30 25716 H 2315.26 -1.84402 -0.886408 0
M  V30 25717 H 2315.27 -2.46172 -3.25366 0
M  V30 25718 H 2313.94 -3.32824 -2.49401 0
M  V30 25719 H 2312.52 -1.6945 -3.32176 0
M  V30 25720 N 2314.7 0.951297 -1.25651 0
M  V30 25721 C 2315.95 1.69071 -1.09991 0
M  V30 25722 C 2316.27 1.9229 0.358322 0
M  V30 25723 O 2317.47 2.6396 0.63542 0
M  V30 25724 C 2315.93 3.04397 -1.92017 0
M  V30 25725 C 2315.54 2.88962 -3.42353 0
M  V30 25726 C 2317.28 3.82098 -1.84937 0
M  V30 25727 C 2315.19 4.19698 -4.16662 0
M  V30 25728 H 2314.12 0.634073 -0.408005 0
M  V30 25729 H 2316.77 1.05876 -1.49875 0
M  V30 25730 H 2315.15 3.68515 -1.44959 0
M  V30 25731 H 2316.32 2.33755 -3.97108 0
M  V30 25732 H 2314.64 2.24712 -3.50561 0
M  V30 25733 H 2317.24 4.78937 -2.37747 0
M  V30 25734 H 2317.58 4.08185 -0.817954 0
M  V30 25735 H 2318.11 3.24736 -2.29764 0
M  V30 25736 H 2314.85 3.98798 -5.20231 0
M  V30 25737 H 2314.37 4.74657 -3.66689 0
M  V30 25738 H 2316.05 4.88219 -4.2456 0
M  V30 25739 N 2316.18 1.07291 1.1544 0
M  V30 25740 C 2317.09 0.704096 2.23785 0
M  V30 25741 C 2318.11 -0.284383 1.7166 0
M  V30 25742 O 2319.28 -0.13117 2.00972 0
M  V30 25743 C 2316.35 0.106853 3.46535 0
M  V30 25744 C 2315.41 1.14849 4.13652 0
M  V30 25745 C 2314.64 0.579653 5.30543 0
M  V30 25746 O 2314.87 -0.604485 5.67188 0
M  V30 25747 O 2313.8 1.32424 5.87152 0
M  V30 25748 H 2317.63 1.60761 2.57662 0
M  V30 25749 H 2315.21 0.845825 1.23151 0
M  V30 25750 H 2317.09 -0.223974 4.20804 0
M  V30 25751 H 2315.77 -0.769994 3.14409 0
M  V30 25752 H 2314.68 1.53166 3.41308 0
M  V30 25753 H 2316.01 1.99722 4.49858 0
M  V30 25754 N 2317.66 -1.32267 0.856927 0
M  V30 25755 C 2318.89 -2.01897 0.474605 0
M  V30 25756 C 2319.31 -1.63968 -0.921738 0
M  V30 25757 O 2318.67 -0.841509 -1.60587 0
M  V30 25758 C 2318.72 -3.55162 0.623861 0
M  V30 25759 O 2317.82 -4.10976 -0.342387 0
M  V30 25760 H 2317.16 -0.636106 0.190433 0
M  V30 25761 H 2319.69 -1.68762 1.15675 0
M  V30 25762 H 2319.7 -4.04772 0.51224 0
M  V30 25763 H 2318.38 -3.8211 1.64209 0
M  V30 25764 H 2316.95 -3.72432 -0.186814 0
M  V30 25765 N 2319.14 -0.615084 -1.45102 0
M  V30 25766 C 2320.09 0.0993573 -2.30586 0
M  V30 25767 C 2321.06 0.852644 -1.42545 0
M  V30 25768 O 2322.24 0.836887 -1.71467 0
M  V30 25769 C 2319.38 1.08577 -3.27574 0
M  V30 25770 C 2318.49 0.33258 -4.30718 0
M  V30 25771 C 2317.63 1.30938 -5.14809 0
M  V30 25772 C 2316.67 0.544431 -6.09674 0
M  V30 25773 N 2315.8 1.47089 -6.8652 0
M  V30 25774 H 2320.64 -0.635594 -2.91143 0
M  V30 25775 H 2318.18 -0.325231 -1.4346 0
M  V30 25776 H 2320.14 1.67089 -3.82279 0
M  V30 25777 H 2318.77 1.78805 -2.68754 0
M  V30 25778 H 2317.82 -0.368173 -3.78614 0
M  V30 25779 H 2319.13 -0.263929 -4.98101 0
M  V30 25780 H 2318.29 1.96633 -5.73952 0
M  V30 25781 H 2317.03 1.93982 -4.47462 0
M  V30 25782 H 2316.03 -0.1261 -5.49655 0
M  V30 25783 H 2317.26 -0.0810663 -6.79052 0
M  V30 25784 H 2315.2 2.08884 -6.21855 0
M  V30 25785 H 2315.12 0.928005 -7.50283 0
M  V30 25786 H 2316.39 2.11718 -7.50197 0
M  V30 25787 N 2320.62 1.53557 -0.354678 0
M  V30 25788 C 2321.55 2.21713 0.540234 0
M  V30 25789 C 2322.53 1.20512 1.09159 0
M  V30 25790 O 2323.71 1.49374 1.14977 0
M  V30 25791 C 2320.84 2.90331 1.7443 0
M  V30 25792 C 2319.89 4.05514 1.32139 0
M  V30 25793 S 2320.72 5.34471 0.33183 0
M  V30 25794 C 2321.87 6.06596 1.54247 0
M  V30 25795 H 2322.11 2.97275 -0.0386299 0
M  V30 25796 H 2319.64 1.53775 -0.138763 0
M  V30 25797 H 2321.6 3.3048 2.43501 0
M  V30 25798 H 2320.26 2.14514 2.2944 0
M  V30 25799 H 2319.45 4.525 2.21944 0
M  V30 25800 H 2319.05 3.67198 0.710027 0
M  V30 25801 H 2321.35 6.30665 2.47523 0
M  V30 25802 H 2322.29 6.99279 1.11419 0
M  V30 25803 H 2322.7 5.36898 1.74358 0
M  V30 25804 N 2322.1 0.083568 1.57378 0
M  V30 25805 C 2323.03 -0.876822 2.16412 0
M  V30 25806 C 2324.01 -1.30226 1.09431 0
M  V30 25807 O 2325.19 -1.37121 1.37519 0
M  V30 25808 C 2322.32 -2.14017 2.73521 0
M  V30 25809 C 2321.28 -1.85375 3.85772 0
M  V30 25810 C 2320.6 -3.1844 4.29534 0
M  V30 25811 C 2321.9 -1.14975 5.09488 0
M  V30 25812 H 2323.6 -0.385006 2.96914 0
M  V30 25813 H 2321.14 -0.183745 1.42823 0
M  V30 25814 H 2323.09 -2.81631 3.13468 0
M  V30 25815 H 2321.82 -2.65462 1.90257 0
M  V30 25816 H 2320.48 -1.20163 3.46347 0
M  V30 25817 H 2320.13 -3.67749 3.43176 0
M  V30 25818 H 2319.83 -3.00063 5.05209 0
M  V30 25819 H 2321.35 -3.87231 4.72106 0
M  V30 25820 H 2322.76 -1.72677 5.46677 0
M  V30 25821 H 2321.16 -1.06816 5.90517 0
M  V30 25822 H 2322.23 -0.130663 4.84724 0
M  V30 25823 N 2323.57 -1.5645 -0.190064 0
M  V30 25824 C 2324.48 -1.98154 -1.25587 0
M  V30 25825 C 2325.5 -0.88997 -1.49518 0
M  V30 25826 O 2326.68 -1.19612 -1.62034 0
M  V30 25827 C 2323.74 -2.31695 -2.57912 0
M  V30 25828 C 2322.8 -3.54585 -2.42009 0
M  V30 25829 C 2322.03 -3.86516 -3.68023 0
M  V30 25830 O 2322.26 -3.19668 -4.72407 0
M  V30 25831 O 2321.19 -4.79929 -3.63251 0
M  V30 25832 H 2325.02 -2.89048 -0.931938 0
M  V30 25833 H 2322.6 -1.44071 -0.395463 0
M  V30 25834 H 2324.48 -2.54321 -3.36004 0
M  V30 25835 H 2323.16 -1.43968 -2.89922 0
M  V30 25836 H 2322.07 -3.37199 -1.62011 0
M  V30 25837 H 2323.4 -4.42794 -2.14929 0
M  V30 25838 N 2325.05 0.45796 -1.50799 0
M  V30 25839 C 2325.98 1.56207 -1.73556 0
M  V30 25840 C 2326.96 1.59731 -0.584802 0
M  V30 25841 O 2328.15 1.75789 -0.825345 0
M  V30 25842 C 2325.28 2.94444 -1.84175 0
M  V30 25843 C 2324.23 3.05784 -2.99466 0
M  V30 25844 C 2323.56 4.45798 -2.95243 0
M  V30 25845 C 2324.86 2.81778 -4.39771 0
M  V30 25846 H 2326.55 1.37416 -2.66002 0
M  V30 25847 H 2324.1 0.659639 -1.28003 0
M  V30 25848 H 2326.05 3.71625 -1.98678 0
M  V30 25849 H 2324.77 3.1442 -0.8836 0
M  V30 25850 H 2323.43 2.31039 -2.84634 0
M  V30 25851 H 2323.08 4.62712 -1.97248 0
M  V30 25852 H 2322.78 4.54319 -3.72649 0
M  V30 25853 H 2324.31 5.24981 -3.11813 0
M  V30 25854 H 2325.72 3.48702 -4.5506 0
M  V30 25855 H 2324.12 3.01731 -5.18727 0
M  V30 25856 H 2325.19 1.77532 -4.51232 0
M  V30 25857 N 2326.53 1.40598 0.712035 0
M  V30 25858 C 2327.76 1.4239 1.50109 0
M  V30 25859 C 2328.17 0.0245727 1.88784 0
M  V30 25860 O 2327.53 -0.952324 1.55683 0
M  V30 25861 C 2327.58 2.31781 2.77416 0
M  V30 25862 O 2327.3 3.66267 2.40375 0
M  V30 25863 C 2328.8 2.42203 3.71285 0
M  V30 25864 H 2326.02 0.485541 0.463132 0
M  V30 25865 H 2328.57 1.84691 0.878035 0
M  V30 25866 H 2326.72 1.92833 3.35997 0
M  V30 25867 H 2327.14 4.13778 3.22317 0
M  V30 25868 H 2328.61 3.08951 4.57442 0
M  V30 25869 H 2329.09 1.44817 4.14638 0
M  V30 25870 H 2329.69 2.81718 3.18614 0
M  V30 25871 N 2328.01 -0.94462 1.26153 0
M  V30 25872 C 2328.96 -2.06415 1.07218 0
M  V30 25873 C 2329.95 -1.694 0.000121783 0
M  V30 25874 O 2331.16 -1.79318 0.156531 0
M  V30 25875 H 2327.53 -0.675799 0.329849 0
M  V30 25876 H 2329.5 -2.19538 2.02103 0
M  V30 25877 C 2328.25 -3.402 0.718257 0
M  V30 25878 H 2327.57 -3.69157 1.53504 0
M  V30 25879 H 2329.01 -4.1936 0.625533 0
M  V30 25880 C 2327.47 -3.31933 -0.576376 0
M  V30 25881 O 2328 -3.67776 -1.61567 0
M  V30 25882 N 2326.21 -2.8504 -0.565731 0
M  V30 25883 H 2325.76 -2.56069 0.280412 0
M  V30 25884 H 2325.71 -2.79891 -1.43208 0
M  V30 25885 N 2329.49 -1.07901 -1.1487 0
M  V30 25886 C 2330.9 -0.80563 -1.37774 0
M  V30 25887 C 2331.1 0.587521 -1.92744 0
M  V30 25888 O 2330.16 1.34525 -2.1368 0
M  V30 25889 C 2331.47 -1.88406 -2.34358 0
M  V30 25890 C 2333.02 -1.90947 -2.48009 0
M  V30 25891 C 2333.49 -2.97889 -3.47888 0
M  V30 25892 N 2334.98 -2.97028 -3.55428 0
M  V30 25893 C 2335.72 -3.76419 -4.32546 0
M  V30 25894 N 2335.22 -4.65676 -5.1295 0
M  V30 25895 N 2337.01 -3.64743 -4.27691 0
M  V30 25896 H 2329.16 -1.97743 -0.77533 0
M  V30 25897 H 2331.42 -0.857839 -0.403506 0
M  V30 25898 H 2331.13 -2.88538 -2.01093 0
M  V30 25899 H 2331 -1.74895 -3.34203 0
M  V30 25900 H 2333.39 -0.914628 -2.80568 0
M  V30 25901 H 2333.47 -2.08536 -1.48143 0
M  V30 25902 H 2333.11 -3.97576 -3.16062 0
M  V30 25903 H 2333.04 -2.77546 -4.47522 0
M  V30 25904 H 2335.54 -2.32332 -2.98044 0
M  V30 25905 H 2335.85 -5.22872 -5.69056 0
M  V30 25906 H 2334.19 -4.69721 -5.12237 0
M  V30 25907 H 2337.38 -2.94385 -3.63944 0
M  V30 25908 H 2337.56 -4.26856 -4.87542 0
M  V30 25909 N 2330.96 1.31811 -0.863929 0
M  V30 25910 C 2331.89 2.31144 -0.330883 0
M  V30 25911 C 2332.87 1.60088 0.574977 0
M  V30 25912 O 2334.06 1.87831 0.493271 0
M  V30 25913 C 2331.19 3.44055 0.473679 0
M  V30 25914 C 2330.14 4.26659 -0.338556 0
M  V30 25915 C 2329.47 5.3142 0.591318 0
M  V30 25916 C 2330.77 4.98165 -1.56935 0
M  V30 25917 H 2332.46 2.75977 -1.16091 0
M  V30 25918 H 2330.01 1.32678 -0.559681 0
M  V30 25919 H 2331.96 4.12592 0.857071 0
M  V30 25920 H 2330.69 2.97973 1.33716 0
M  V30 25921 H 2329.35 3.5978 -0.703818 0
M  V30 25922 H 2328.99 4.8159 1.4519 0
M  V30 25923 H 2328.69 5.87577 0.0517989 0
M  V30 25924 H 2330.22 6.02819 0.971685 0
M  V30 25925 H 2331.63 5.59333 -1.25774 0
M  V30 25926 H 2330.03 5.6409 -2.04749 0
M  V30 25927 H 2331.1 4.25497 -2.32552 0
M  V30 25928 N 2332.44 0.62277 1.44773 0
M  V30 25929 C 2333.37 -0.125445 2.28856 0
M  V30 25930 C 2334.39 -0.817044 1.40813 0
M  V30 25931 O 2335.58 -0.679889 1.65045 0
M  V30 25932 C 2332.68 -1.19944 3.16965 0
M  V30 25933 C 2331.85 -0.591988 4.33375 0
M  V30 25934 C 2330.91 -1.55884 5.0258 0
M  V30 25935 O 2329.93 -1.07923 5.58875 0
M  V30 25936 N 2331.14 -2.89325 5.03261 0
M  V30 25937 H 2333.9 0.596119 2.93712 0
M  V30 25938 H 2331.46 0.46333 1.55129 0
M  V30 25939 H 2333.45 -1.84638 3.60126 0
M  V30 25940 H 2332.02 -1.82333 2.53916 0
M  V30 25941 H 2331.24 0.233391 3.93508 0
M  V30 25942 H 2332.53 -0.166649 5.08527 0
M  V30 25943 H 2331.93 -3.30879 4.58842 0
M  V30 25944 H 2330.49 -3.49402 5.50238 0
M  V30 25945 N 2333.92 -1.53367 0.362817 0
M  V30 25946 C 2334.83 -2.29362 -0.492953 0
M  V30 25947 C 2335.85 -1.35221 -1.09505 0
M  V30 25948 O 2337.02 -1.68275 -1.10659 0
M  V30 25949 C 2334.09 -3.06603 -1.6185 0
M  V30 25950 C 2333.15 -4.16407 -1.04422 0
M  V30 25951 C 2332.38 -4.89955 -2.11613 0
M  V30 25952 O 2332.6 -4.63339 -3.32676 0
M  V30 25953 O 2331.54 -5.75951 -1.74825 0
M  V30 25954 H 2335.36 -3.03441 0.125384 0
M  V30 25955 H 2332.95 -1.48857 0.12728 0
M  V30 25956 H 2334.83 -3.54845 -2.27295 0
M  V30 25957 H 2333.51 -2.35363 -2.22229 0
M  V30 25958 H 2332.41 -3.72424 -0.353754 0
M  V30 25959 H 2333.75 -4.89804 -0.485027 0
M  V30 25960 N 2335.4 -0.091913 -1.57332 0
M  V30 25961 C 2336.62 0.584407 -1.98996 0
M  V30 25962 C 2337.05 1.61127 -0.970556 0
M  V30 25963 O 2336.41 1.81196 0.0613586 0
M  V30 25964 C 2336.45 1.21155 -3.39638 0
M  V30 25965 O 2335.56 2.32738 -3.40451 0
M  V30 25966 H 2334.9 0.148561 -0.647167 0
M  V30 25967 H 2337.43 -0.172383 -2.03873 0
M  V30 25968 H 2337.44 1.55361 -3.77263 0
M  V30 25969 H 2336.11 0.45924 -4.13357 0
M  V30 25970 H 2334.69 2.00175 -3.14618 0
M  V30 25971 N 2336.88 1.56548 0.181765 0
M  V30 25972 C 2337.81 1.92144 1.24953 0
M  V30 25973 C 2338.82 0.813446 1.41021 0
M  V30 25974 O 2340.01 1.09188 1.4121 0
M  V30 25975 C 2337.11 2.14991 2.61977 0
M  V30 25976 C 2336.28 3.46188 2.67344 0
M  V30 25977 C 2335.34 3.57987 3.85657 0
M  V30 25978 O 2334.37 4.30697 3.72141 0
M  V30 25979 N 2335.57 2.92062 5.01677 0
M  V30 25980 H 2338.34 2.84336 0.947279 0
M  V30 25981 H 2335.9 1.57578 0.371602 0
M  V30 25982 H 2337.89 2.2016 3.39576 0
M  V30 25983 H 2336.46 1.29235 2.84635 0
M  V30 25984 H 2335.68 3.52769 1.75919 0
M  V30 25985 H 2336.97 4.32539 2.67931 0
M  V30 25986 H 2336.36 2.32841 5.1556 0
M  V30 25987 H 2334.92 3.0284 5.77175 0
M  V30 25988 N 2338.35 -0.449957 1.5104 0
M  V30 25989 C 2339.26 -1.57064 1.74264 0
M  V30 25990 C 2340.28 -1.62334 0.626391 0
M  V30 25991 O 2341.46 -1.79811 0.907194 0
M  V30 25992 C 2338.52 -2.93141 1.8512 0
M  V30 25993 C 2337.58 -2.9809 3.08935 0
M  V30 25994 C 2336.82 -4.27676 3.19263 0
M  V30 25995 O 2337.04 -5.19359 2.35844 0
M  V30 25996 O 2335.97 -4.38651 4.12152 0
M  V30 25997 H 2339.8 -1.40386 2.69305 0
M  V30 25998 H 2337.38 -0.631665 1.3539 0
M  V30 25999 H 2339.27 -3.73923 1.94318 0
M  V30 26000 H 2337.94 -3.09973 0.932643 0
M  V30 26001 H 2336.85 -2.16309 3.05224 0
M  V30 26002 H 2338.18 -2.86199 4.00438 0
M  V30 26003 N 2339.83 -1.40974 -0.704569 0
M  V30 26004 C 2340.74 -1.44452 -1.84854 0
M  V30 26005 C 2341.76 -0.335991 -1.70725 0
M  V30 26006 O 2342.93 -0.58231 -1.92798 0
M  V30 26007 C 2340 -1.31593 -3.20756 0
M  V30 26008 C 2339.06 -2.52683 -3.47058 0
M  V30 26009 C 2338.29 -2.40429 -4.76476 0
M  V30 26010 O 2338.52 -1.424 -5.52339 0
M  V30 26011 O 2337.45 -3.30016 -5.03362 0
M  V30 26012 H 2341.28 -2.40945 -1.84876 0
M  V30 26013 H 2338.86 -1.22415 -0.856449 0
M  V30 26014 H 2340.74 -1.26672 -4.01911 0
M  V30 26015 H 2339.42 -0.382105 -3.21437 0
M  V30 26016 H 2338.33 -2.63182 -2.65869 0
M  V30 26017 H 2339.66 -3.44864 -3.51184 0
M  V30 26018 N 2341.31 0.937917 -1.26653 0
M  V30 26019 C 2342.56 1.67895 -1.11778 0
M  V30 26020 C 2342.87 1.92659 0.337906 0
M  V30 26021 O 2344.08 2.64619 0.607387 0
M  V30 26022 C 2342.53 3.02343 -1.95235 0
M  V30 26023 C 2342.14 2.85314 -3.45398 0
M  V30 26024 C 2343.89 3.80115 -1.88979 0
M  V30 26025 C 2341.79 4.15255 -4.2109 0
M  V30 26026 H 2340.72 0.62971 -0.414707 0
M  V30 26027 H 2343.37 1.0428 -1.5099 0
M  V30 26028 H 2341.76 3.66956 -1.48859 0
M  V30 26029 H 2342.93 2.2953 -3.99565 0
M  V30 26030 H 2341.25 2.20982 -3.52925 0
M  V30 26031 H 2343.84 4.76388 -2.42814 0
M  V30 26032 H 2344.19 4.07295 -0.861202 0
M  V30 26033 H 2344.72 3.22281 -2.33195 0
M  V30 26034 H 2341.46 3.93258 -5.24431 0
M  V30 26035 H 2340.98 4.70741 -3.71703 0
M  V30 26036 H 2342.66 4.83689 -4.29714 0
M  V30 26037 N 2342.79 1.08509 1.14296 0
M  V30 26038 C 2343.72 0.673897 2.19069 0
M  V30 26039 C 2344.73 -0.279549 1.60382 0
M  V30 26040 O 2345.92 -0.067044 1.78374 0
M  V30 26041 C 2343.02 -0.0290383 3.38888 0
M  V30 26042 C 2342.2 0.943569 4.27101 0
M  V30 26043 C 2341.25 0.275768 5.25477 0
M  V30 26044 O 2340.28 0.9205 5.61708 0
M  V30 26045 N 2341.48 -0.973913 5.72272 0
M  V30 26046 H 2344.25 1.57525 2.54963 0
M  V30 26047 H 2341.81 0.97131 1.29527 0
M  V30 26048 H 2343.8 -0.486759 4.01762 0
M  V30 26049 H 2342.37 -0.832502 3.01311 0
M  V30 26050 H 2341.59 1.5801 3.61146 0
M  V30 26051 H 2342.88 1.6026 4.82902 0
M  V30 26052 H 2342.28 -1.51745 5.44968 0
M  V30 26053 H 2340.83 -1.37511 6.37129 0
M  V30 26054 N 2344.27 -1.31351 0.870907 0
M  V30 26055 C 2345.52 -1.95943 0.478443 0
M  V30 26056 C 2345.83 -1.69598 -0.974463 0
M  V30 26057 O 2347.03 -2.2806 -1.47312 0
M  V30 26058 C 2345.49 -3.50789 0.804671 0
M  V30 26059 C 2345.1 -3.85973 2.2744 0
M  V30 26060 C 2346.84 -4.21769 0.480722 0
M  V30 26061 C 2344.75 -5.33934 2.54299 0
M  V30 26062 H 2343.68 -0.733366 0.175188 0
M  V30 26063 H 2346.33 -1.49508 1.06394 0
M  V30 26064 H 2344.71 -3.95722 0.148417 0
M  V30 26065 H 2345.89 -3.51997 2.9738 0
M  V30 26066 H 2344.2 -3.2806 2.56448 0
M  V30 26067 H 2346.8 -5.30628 0.658612 0
M  V30 26068 H 2347.14 -4.12255 -0.578907 0
M  V30 26069 H 2347.67 -3.82474 1.09356 0
M  V30 26070 H 2344.41 -5.48485 3.58949 0
M  V30 26071 H 2343.93 -5.69259 1.88955 0
M  V30 26072 H 2345.61 -6.01208 2.39077 0
M  V30 26073 N 2345.74 -0.630439 -1.44441 0
M  V30 26074 C 2346.68 0.124207 -2.27862 0
M  V30 26075 C 2347.66 0.851907 -1.38497 0
M  V30 26076 O 2348.84 0.856136 -1.67936 0
M  V30 26077 C 2345.97 1.18191 -3.17409 0
M  V30 26078 C 2345.01 0.554817 -4.22876 0
M  V30 26079 S 2345.85 -0.654583 -5.31484 0
M  V30 26080 C 2347 0.40315 -6.246 0
M  V30 26081 H 2347.23 -0.583486 -2.91518 0
M  V30 26082 H 2344.77 -0.418591 -1.48618 0
M  V30 26083 H 2346.73 1.78722 -3.69552 0
M  V30 26084 H 2345.39 1.86179 -2.52974 0
M  V30 26085 H 2344.58 1.3514 -4.85544 0
M  V30 26086 H 2344.18 0.0241448 -3.73992 0
M  V30 26087 H 2346.47 1.2759 -6.65377 0
M  V30 26088 H 2347.42 -0.187937 -7.07851 0
M  V30 26089 H 2347.82 0.728739 -5.59776 0
M  V30 26090 N 2347.22 1.53172 -0.370945 0
M  V30 26091 C 2348.47 2.00516 0.218214 0
M  V30 26092 C 2348.78 1.26218 1.49427 0
M  V30 26093 O 2349.99 1.64178 2.16236 0
M  V30 26094 C 2348.45 3.57207 0.439417 0
M  V30 26095 C 2348.05 4.40388 -0.822321 0
M  V30 26096 C 2349.8 4.12892 0.985939 0
M  V30 26097 C 2347.71 5.88643 -0.570407 0
M  V30 26098 H 2346.64 0.749157 0.0853201 0
M  V30 26099 H 2349.29 1.76823 -0.490514 0
M  V30 26100 H 2347.67 3.77076 1.20954 0
M  V30 26101 H 2348.84 4.32291 -1.59565 0
M  V30 26102 H 2347.16 3.95834 -1.29245 0
M  V30 26103 H 2349.75 5.21294 1.18982 0
M  V30 26104 H 2350.1 3.67823 1.94966 0
M  V30 26105 H 2350.63 3.96842 0.27585 0
M  V30 26106 H 2347.37 6.37998 -1.50461 0
M  V30 26107 H 2346.89 5.99575 0.164322 0
M  V30 26108 H 2348.57 6.46697 -0.197954 0
M  V30 26109 N 2348.7 0.100255 1.57281 0
M  V30 26110 C 2349.65 -0.85682 2.14306 0
M  V30 26111 C 2350.62 -1.27632 1.06298 0
M  V30 26112 O 2351.8 -1.35716 1.34112 0
M  V30 26113 C 2348.94 -2.10862 2.73187 0
M  V30 26114 C 2348.06 -1.73918 3.95445 0
M  V30 26115 C 2347.19 -2.93923 4.42473 0
M  V30 26116 C 2346.23 -2.5313 5.57307 0
M  V30 26117 N 2345.37 -3.65987 5.99165 0
M  V30 26118 H 2350.21 -0.363674 2.95773 0
M  V30 26119 H 2347.74 -0.167833 1.46139 0
M  V30 26120 H 2349.7 -2.84179 3.05447 0
M  V30 26121 H 2348.33 -2.57667 1.94441 0
M  V30 26122 H 2347.38 -0.905489 3.69466 0
M  V30 26123 H 2348.7 -1.39927 4.78771 0
M  V30 26124 H 2347.85 -3.75487 4.76544 0
M  V30 26125 H 2346.59 -3.31128 3.58058 0
M  V30 26126 H 2345.59 -1.69994 5.2286 0
M  V30 26127 H 2346.82 -2.17063 6.43475 0
M  V30 26128 H 2344.76 -4.029 5.17694 0
M  V30 26129 H 2344.68 -3.35857 6.773 0
M  V30 26130 H 2345.95 -4.48046 6.37868 0
M  V30 26131 N 2350.18 -1.56643 -0.17346 0
M  V30 26132 C 2351.09 -1.99475 -1.23479 0
M  V30 26133 C 2352.11 -0.905778 -1.48565 0
M  V30 26134 O 2353.28 -1.21324 -1.60756 0
M  V30 26135 C 2350.35 -2.34417 -2.5544 0
M  V30 26136 C 2349.41 -3.57131 -2.38234 0
M  V30 26137 C 2348.64 -3.90398 -3.63903 0
M  V30 26138 O 2348.86 -3.24661 -4.6899 0
M  V30 26139 O 2347.8 -4.83755 -3.58141 0
M  V30 26140 H 2351.62 -2.9002 -0.901228 0
M  V30 26141 H 2349.21 -1.44482 -0.38016 0
M  V30 26142 H 2351.09 -2.57871 -3.33287 0
M  V30 26143 H 2349.77 -1.47035 -2.88379 0
M  V30 26144 H 2348.67 -3.38899 -1.58425 0
M  V30 26145 H 2350.01 -4.45049 -2.1022 0
M  V30 26146 N 2351.66 0.44194 -1.51277 0
M  V30 26147 C 2352.6 1.53609 -1.72258 0
M  V30 26148 C 2353.57 1.56224 -0.564191 0
M  V30 26149 O 2354.76 1.73306 -0.798104 0
M  V30 26150 C 2351.9 2.91363 -1.84937 0
M  V30 26151 C 2351.01 2.98312 -3.12465 0
M  V30 26152 C 2350.15 4.2716 -3.15765 0
M  V30 26153 C 2349.19 4.2796 -4.37627 0
M  V30 26154 N 2348.32 5.48325 -4.38502 0
M  V30 26155 H 2353.16 1.35021 -2.65656 0
M  V30 26156 H 2350.7 0.655986 -1.31663 0
M  V30 26157 H 2352.66 3.71286 -1.90269 0
M  V30 26158 H 2351.29 3.08519 -0.949515 0
M  V30 26159 H 2350.34 2.1108 -3.16464 0
M  V30 26160 H 2351.65 2.94764 -4.02388 0
M  V30 26161 H 2350.81 5.15454 -3.19988 0
M  V30 26162 H 2349.55 4.33358 -2.23723 0
M  V30 26163 H 2348.55 3.3806 -4.33585 0
M  V30 26164 H 2349.78 4.23429 -5.30928 0
M  V30 26165 H 2347.72 5.55253 -3.49328 0
M  V30 26166 H 2347.64 5.46638 -5.22229 0
M  V30 26167 H 2348.91 6.38663 -4.46912 0
M  V30 26168 N 2353.14 1.41345 0.697083 0
M  V30 26169 C 2354.05 1.4543 1.84085 0
M  V30 26170 C 2355.06 0.34504 1.70545 0
M  V30 26171 O 2356.24 0.592526 1.92487 0
M  V30 26172 C 2353.3 1.33292 3.20053 0
M  V30 26173 C 2352.36 2.5452 3.45713 0
M  V30 26174 C 2351.6 2.42952 4.75195 0
M  V30 26175 O 2351.82 1.45328 5.51576 0
M  V30 26176 O 2350.75 3.32681 5.01604 0
M  V30 26177 H 2354.58 2.41922 1.83595 0
M  V30 26178 H 2352.16 1.22867 0.849945 0
M  V30 26179 H 2354.05 1.28801 4.01233 0
M  V30 26180 H 2352.72 0.399146 3.2123 0
M  V30 26181 H 2351.63 2.64588 2.64469 0
M  V30 26182 H 2352.96 3.46721 3.4935 0
M  V30 26183 N 2354.61 -0.931187 1.27148 0
M  V30 26184 C 2355.52 -2.06476 1.11376 0
M  V30 26185 C 2356.54 -1.73943 0.0446756 0
M  V30 26186 O 2357.72 -1.99837 0.250452 0
M  V30 26187 C 2354.78 -3.38292 0.758897 0
M  V30 26188 C 2353.84 -3.84546 1.90848 0
M  V30 26189 C 2353.07 -5.10071 1.57045 0
M  V30 26190 O 2353.3 -5.68404 0.476745 0
M  V30 26191 O 2352.23 -5.51612 2.40849 0
M  V30 26192 H 2356.06 -2.22694 2.06497 0
M  V30 26193 H 2353.64 -1.04976 1.06303 0
M  V30 26194 H 2355.52 -4.1747 0.574171 0
M  V30 26195 H 2354.2 -3.2329 -0.162822 0
M  V30 26196 H 2353.11 -3.0627 2.14824 0
M  V30 26197 H 2354.44 -4.04084 2.81028 0
M  V30 26198 N 2356.09 -1.09114 -1.13719 0
M  V30 26199 C 2357.02 -0.671618 -2.18093 0
M  V30 26200 C 2358 0.320271 -1.59415 0
M  V30 26201 O 2359.19 0.222411 -1.87183 0
M  V30 26202 C 2356.31 0.0110594 -3.38698 0
M  V30 26203 C 2355.36 -0.942128 -4.15964 0
M  V30 26204 S 2356.19 -2.45255 -4.76036 0
M  V30 26205 C 2357.35 -1.78219 -5.99991 0
M  V30 26206 H 2357.58 -1.55581 -2.53341 0
M  V30 26207 H 2355.11 -0.906811 -1.24965 0
M  V30 26208 H 2357.07 0.398645 -4.0856 0
M  V30 26209 H 2355.73 0.871852 -3.01757 0
M  V30 26210 H 2354.93 -0.411485 -5.02317 0
M  V30 26211 H 2354.53 -1.27096 -3.51742 0
M  V30 26212 H 2356.82 -1.10435 -6.68439 0
M  V30 26213 H 2357.76 -2.62474 -6.57657 0
M  V30 26214 H 2358.17 -1.25247 -5.5043 0
M  V30 26215 N 2357.57 1.30887 -0.877861 0
M  V30 26216 C 2358.52 2.28318 -0.337578 0
M  V30 26217 C 2359.49 1.56075 0.568319 0
M  V30 26218 O 2360.67 1.84179 0.498266 0
M  V30 26219 C 2357.81 3.42179 0.448082 0
M  V30 26220 C 2356.92 4.29255 -0.486225 0
M  V30 26221 C 2356.06 5.30269 0.314334 0
M  V30 26222 C 2355.1 6.08994 -0.615898 0
M  V30 26223 N 2354.24 7.01942 0.148897 0
M  V30 26224 H 2359.08 2.73917 -1.1736 0
M  V30 26225 H 2356.61 1.34744 -0.590117 0
M  V30 26226 H 2358.57 4.06942 0.919445 0
M  V30 26227 H 2357.2 2.97668 1.24874 0
M  V30 26228 H 2356.25 3.64863 -1.07606 0
M  V30 26229 H 2357.56 4.84171 -1.19918 0
M  V30 26230 H 2356.72 6.00746 0.847863 0
M  V30 26231 H 2355.46 4.76029 1.06054 0
M  V30 26232 H 2354.46 5.37399 -1.16112 0
M  V30 26233 H 2355.69 6.6532 -1.36108 0
M  V30 26234 H 2353.63 6.50101 0.87777 0
M  V30 26235 H 2353.55 7.54314 -0.504565 0
M  V30 26236 H 2354.82 7.76672 0.6634 0
M  V30 26237 N 2359.05 0.638091 1.44105 0
M  V30 26238 C 2360.46 0.304314 1.56672 0
M  V30 26239 C 2360.66 -1.19225 1.62442 0
M  V30 26240 O 2359.72 -1.97657 1.57124 0
M  V30 26241 C 2361.03 1.00236 2.83502 0
M  V30 26242 C 2362.58 0.981168 2.97224 0
M  V30 26243 C 2363.06 1.65982 4.26865 0
M  V30 26244 N 2364.55 1.62674 4.33695 0
M  V30 26245 C 2365.28 2.12072 5.32741 0
M  V30 26246 N 2364.78 2.69692 6.38152 0
M  V30 26247 N 2366.57 2.0266 5.24295 0
M  V30 26248 H 2358.72 1.60945 1.38602 0
M  V30 26249 H 2360.98 0.675977 0.66465 0
M  V30 26250 H 2360.69 2.05735 2.85247 0
M  V30 26251 H 2360.56 0.544456 3.7325 0
M  V30 26252 H 2362.95 -0.065367 2.95028 0
M  V30 26253 H 2363.03 1.47763 2.08806 0
M  V30 26254 H 2362.68 2.70584 4.29822 0
M  V30 26255 H 2362.61 1.13813 5.14154 0
M  V30 26256 H 2365.1 1.20612 3.58136 0
M  V30 26257 H 2365.41 3.05099 7.10024 0
M  V30 26258 H 2363.76 2.73746 6.38818 0
M  V30 26259 H 2366.95 1.57361 4.40857 0
M  V30 26260 H 2367.12 2.41468 6.0133 0
M  V30 26261 N 2360.53 -1.52973 0.379063 0
M  V30 26262 C 2361.77 -2.01744 -0.206692 0
M  V30 26263 C 2362.1 -1.26542 -1.47312 0
M  V30 26264 O 2361.38 -0.362937 -1.91084 0
M  V30 26265 C 2361.66 -3.56819 -0.485003 0
M  V30 26266 C 2361.52 -4.42701 0.795997 0
M  V30 26267 C 2362.83 -4.21076 -1.27995 0
M  V30 26268 H 2359.95 -0.733311 -0.0736478 0
M  V30 26269 H 2362.6 -1.83121 0.506613 0
M  V30 26270 H 2360.75 -3.72818 -1.09266 0
M  V30 26271 H 2362.42 -4.38473 1.43315 0
M  V30 26272 H 2360.66 -4.10125 1.41351 0
M  V30 26273 H 2361.33 -5.49192 0.556044 0
M  V30 26274 H 2363.81 -4.08992 -0.765795 0
M  V30 26275 H 2362.68 -5.29581 -1.44343 0
M  V30 26276 H 2362.94 -3.7803 -2.29229 0
M  V30 26277 N 2362 -0.108595 -1.57225 0
M  V30 26278 C 2362.94 0.875714 -2.11811 0
M  V30 26279 C 2363.95 1.23699 -1.05841 0
M  V30 26280 O 2365.14 1.18775 -1.33247 0
M  V30 26281 C 2362.24 2.18076 -2.59415 0
M  V30 26282 C 2361.41 1.99277 -3.89368 0
M  V30 26283 C 2360.47 3.13416 -4.22678 0
M  V30 26284 O 2359.5 2.86786 -4.91673 0
M  V30 26285 N 2360.7 4.39564 -3.79162 0
M  V30 26286 H 2363.46 0.409424 -2.9689 0
M  V30 26287 H 2361.02 0.0761296 -1.61721 0
M  V30 26288 H 2363.02 2.93409 -2.78735 0
M  V30 26289 H 2361.59 2.56086 -1.79272 0
M  V30 26290 H 2360.81 1.08197 -3.79061 0
M  V30 26291 H 2362.09 1.84009 -4.74361 0
M  V30 26292 H 2361.49 4.64078 -3.23494 0
M  V30 26293 H 2360.05 5.11802 -4.03611 0
M  V30 26294 N 2363.48 1.56732 0.16515 0
M  V30 26295 C 2364.39 2.00127 1.22419 0
M  V30 26296 C 2365.41 0.913645 1.48083 0
M  V30 26297 O 2366.58 1.22175 1.6011 0
M  V30 26298 C 2363.65 2.35769 2.54193 0
M  V30 26299 C 2362.71 3.5839 2.36337 0
M  V30 26300 C 2361.94 3.92322 3.61827 0
M  V30 26301 O 2362.17 3.27143 4.67262 0
M  V30 26302 O 2361.1 4.85647 3.5557 0
M  V30 26303 H 2364.93 2.90494 0.885835 0
M  V30 26304 H 2362.51 1.44682 0.372492 0
M  V30 26305 H 2364.39 2.59635 3.31915 0
M  V30 26306 H 2363.07 1.48562 2.87595 0
M  V30 26307 H 2361.97 3.39734 1.56626 0
M  V30 26308 H 2363.31 4.46157 2.07857 0
M  V30 26309 N 2364.96 -0.433911 1.51509 0
M  V30 26310 C 2365.92 -1.50946 1.72476 0
M  V30 26311 C 2366.92 -1.49397 0.594751 0
M  V30 26312 O 2368.11 -1.51358 0.862342 0
M  V30 26313 C 2365.24 -2.90471 1.78437 0
M  V30 26314 H 2366.44 -1.33658 2.68469 0
M  V30 26315 H 2363.99 -0.662811 1.4155 0
M  V30 26316 H 2364.73 -3.1316 0.8427 0
M  V30 26317 H 2364.51 -2.93 2.60563 0
M  V30 26318 H 2366 -3.68488 1.96485 0
M  V30 26319 N 2366.44 -1.41713 -0.689577 0
M  V30 26320 C 2367.37 -1.4681 -1.81574 0
M  V30 26321 C 2368.35 -0.326134 -1.66944 0
M  V30 26322 O 2369.53 -0.53841 -1.86587 0
M  V30 26323 C 2366.66 -1.35541 -3.19759 0
M  V30 26324 C 2365.62 -2.47611 -3.49103 0
M  V30 26325 C 2364.94 -2.21405 -4.86707 0
M  V30 26326 C 2366.24 -3.89945 -3.47477 0
M  V30 26327 H 2367.94 -2.41061 -1.77566 0
M  V30 26328 H 2365.48 -1.16027 -0.852866 0
M  V30 26329 H 2367.44 -1.37717 -3.98261 0
M  V30 26330 H 2366.16 -0.377765 -3.24408 0
M  V30 26331 H 2364.82 -2.44727 -2.72955 0
M  V30 26332 H 2364.47 -1.21969 -4.87988 0
M  V30 26333 H 2364.17 -2.96506 -5.07304 0
M  V30 26334 H 2365.69 -2.25307 -5.67511 0
M  V30 26335 H 2367.11 -3.94512 -4.15973 0
M  V30 26336 H 2365.5 -4.64778 -3.79607 0
M  V30 26337 H 2366.57 -4.1767 -2.46333 0
M  V30 26338 N 2367.92 0.924431 -1.2764 0
M  V30 26339 C 2368.85 2.02983 -1.06445 0
M  V30 26340 C 2369.86 1.62788 -0.0195057 0
M  V30 26341 O 2371.05 1.76575 -0.261419 0
M  V30 26342 C 2368.15 3.33666 -0.593328 0
M  V30 26343 C 2367.32 4.02534 -1.7113 0
M  V30 26344 C 2366.38 5.11493 -1.23536 0
M  V30 26345 O 2365.41 5.35278 -1.93563 0
M  V30 26346 N 2366.61 5.80426 -0.0927698 0
M  V30 26347 H 2369.38 2.21726 -2.01637 0
M  V30 26348 H 2366.94 1.09503 -1.1925 0
M  V30 26349 H 2368.93 4.03872 -0.258757 0
M  V30 26350 H 2367.5 3.11471 0.265447 0
M  V30 26351 H 2366.72 3.26018 -2.21599 0
M  V30 26352 H 2368.01 4.45293 -2.46153 0
M  V30 26353 H 2367.4 5.6356 0.491642 0
M  V30 26354 H 2365.96 6.51544 0.182599 0
M  V30 26355 N 2369.39 1.09715 1.13139 0
M  V30 26356 C 2370.64 0.829883 1.83836 0
M  V30 26357 C 2370.96 -0.646696 1.846 0
M  V30 26358 O 2372.16 -1.0296 2.5122 0
M  V30 26359 C 2370.62 1.43472 3.30066 0
M  V30 26360 C 2370.23 2.94405 3.37682 0
M  V30 26361 C 2371.97 1.24652 4.05786 0
M  V30 26362 C 2369.88 3.4796 4.78202 0
M  V30 26363 H 2368.81 0.306789 0.688765 0
M  V30 26364 H 2371.46 1.32023 1.27445 0
M  V30 26365 H 2369.84 0.872064 3.86278 0
M  V30 26366 H 2371.01 3.56923 2.91449 0
M  V30 26367 H 2369.33 3.12293 2.7543 0
M  V30 26368 H 2371.93 1.62115 5.09532 0
M  V30 26369 H 2372.27 0.18743 4.15878 0
M  V30 26370 H 2372.8 1.77685 3.55912 0
M  V30 26371 H 2369.54 4.53503 4.73303 0
M  V30 26372 H 2369.06 2.90208 5.24919 0
M  V30 26373 H 2370.74 3.45341 5.47127 0
M  V30 26374 N 2370.87 -1.30419 0.88479 0
M  V30 26375 C 2371.78 -2.31892 0.355439 0
M  V30 26376 C 2372.8 -1.65336 -0.542232 0
M  V30 26377 O 2373.97 -1.96637 -0.435397 0
M  V30 26378 C 2371.04 -3.44127 -0.421601 0
M  V30 26379 C 2370.1 -4.2631 0.505801 0
M  V30 26380 C 2369.33 -5.33186 -0.234249 0
M  V30 26381 O 2369.56 -5.51389 -1.46035 0
M  V30 26382 O 2368.49 -6.00464 0.415548 0
M  V30 26383 H 2372.32 -2.7912 1.1969 0
M  V30 26384 H 2369.9 -1.34586 0.64862 0
M  V30 26385 H 2371.78 -4.12498 -0.861568 0
M  V30 26386 H 2370.46 -2.99034 -1.23936 0
M  V30 26387 H 2369.37 -3.60637 0.994577 0
M  V30 26388 H 2370.7 -4.75006 1.28957 0
M  V30 26389 N 2372.35 -0.645724 -1.43764 0
M  V30 26390 C 2373.77 -0.312618 -1.56508 0
M  V30 26391 C 2373.97 1.18362 -1.63072 0
M  V30 26392 O 2373.02 1.96821 -1.5817 0
M  V30 26393 C 2374.34 -1.01738 -2.82966 0
M  V30 26394 C 2375.88 -0.996917 -2.96699 0
M  V30 26395 C 2376.36 -1.68243 -4.25979 0
M  V30 26396 N 2377.85 -1.64971 -4.32826 0
M  V30 26397 C 2378.58 -2.14894 -5.31609 0
M  V30 26398 N 2378.08 -2.73072 -6.36713 0
M  V30 26399 N 2379.87 -2.05437 -5.23213 0
M  V30 26400 H 2372.02 -1.61677 -1.37747 0
M  V30 26401 H 2374.29 -0.679492 -0.661055 0
M  V30 26402 H 2373.99 -2.07245 -2.84152 0
M  V30 26403 H 2373.87 -0.564243 -3.72956 0
M  V30 26404 H 2376.25 0.04972 -2.95058 0
M  V30 26405 H 2376.34 -1.48868 -2.08019 0
M  V30 26406 H 2375.98 -2.7286 -4.28381 0
M  V30 26407 H 2375.91 -1.16538 -5.13543 0
M  V30 26408 H 2378.4 -1.2251 -3.57491 0
M  V30 26409 H 2378.71 -3.08861 -7.08396 0
M  V30 26410 H 2377.06 -2.7713 -6.37357 0
M  V30 26411 H 2380.25 -1.59697 -4.40016 0
M  V30 26412 H 2380.42 -2.44653 -6.00041 0
M  V30 26413 N 2373.83 1.5277 -0.38717 0
M  V30 26414 C 2375.11 1.93955 0.253163 0
M  V30 26415 C 2375.49 1.32246 1.64543 0
M  V30 26416 O 2374.83 0.489738 2.2319 0
M  V30 26417 C 2375.04 3.47862 0.281661 0
M  V30 26418 C 2376.39 4.21506 0.511641 0
M  V30 26419 O 2377.42 3.54356 0.361961 0
M  V30 26420 O 2376.27 5.40542 0.804752 0
M  V30 26421 H 2373.37 0.811993 0.15683 0
M  V30 26422 H 2375.91 1.63856 -0.441523 0
M  V30 26423 H 2374.69 3.85103 -0.693639 0
M  V30 26424 H 2374.31 3.84258 1.02136 0
M  V30 26425 N 2375.31 0.116931 1.57166 0
M  V30 26426 C 2376.24 -0.864469 2.12272 0
M  V30 26427 C 2377.25 -1.23136 1.06496 0
M  V30 26428 O 2378.44 -1.18067 1.33875 0
M  V30 26429 C 2375.54 -2.16698 2.60567 0
M  V30 26430 C 2374.71 -1.97209 3.90419 0
M  V30 26431 C 2373.77 -3.1117 4.24334 0
M  V30 26432 O 2372.8 -2.84175 4.93187 0
M  V30 26433 N 2374 -4.37547 3.81488 0
M  V30 26434 H 2376.77 -0.393674 2.97103 0
M  V30 26435 H 2374.33 -0.0675521 1.61759 0
M  V30 26436 H 2376.32 -2.91927 2.80287 0
M  V30 26437 H 2374.89 -2.55132 1.80628 0
M  V30 26438 H 2374.11 -1.06185 3.79629 0
M  V30 26439 H 2375.4 -1.81491 4.7533 0
M  V30 26440 H 2374.79 -4.62355 3.25951 0
M  V30 26441 H 2373.35 -5.09654 4.0632 0
M  V30 26442 N 2376.78 -1.56818 -0.156836 0
M  V30 26443 C 2377.71 -2.00553 -1.19586 0
M  V30 26444 C 2378.7 -0.883452 -1.45359 0
M  V30 26445 O 2379.88 -1.15057 -1.56447 0
M  V30 26446 C 2377.01 -2.37777 -2.53139 0
M  V30 26447 C 2375.96 -3.53079 -2.41907 0
M  V30 26448 C 2375.29 -3.76088 -3.80082 0
M  V30 26449 C 2376.59 -4.86065 -1.91149 0
M  V30 26450 H 2378.28 -2.87601 -0.832243 0
M  V30 26451 H 2375.83 -1.38365 -0.398894 0
M  V30 26452 H 2377.78 -2.66972 -3.26042 0
M  V30 26453 H 2376.51 -1.47655 -2.91317 0
M  V30 26454 H 2375.17 -3.24034 -1.71457 0
M  V30 26455 H 2374.81 -2.83233 -4.15678 0
M  V30 26456 H 2374.51 -4.53677 -3.73431 0
M  V30 26457 H 2376.04 -4.07698 -4.54549 0
M  V30 26458 H 2377.45 -5.14042 -2.53837 0
M  V30 26459 H 2375.85 -5.67392 -1.95412 0
M  V30 26460 H 2376.92 -4.77094 -0.866589 0
M  V30 26461 N 2378.26 0.425871 -1.51737 0
M  V30 26462 C 2379.21 1.51773 -1.73878 0
M  V30 26463 C 2380.18 1.55617 -0.580729 0
M  V30 26464 O 2381.36 1.7245 -0.816441 0
M  V30 26465 C 2378.5 2.89385 -1.88017 0
M  V30 26466 C 2377.62 2.94981 -3.15611 0
M  V30 26467 C 2376.75 4.23787 -3.20278 0
M  V30 26468 C 2375.79 4.23294 -4.42141 0
M  V30 26469 N 2374.93 5.43643 -4.44293 0
M  V30 26470 H 2379.77 1.32196 -2.67073 0
M  V30 26471 H 2377.31 0.641985 -1.32352 0
M  V30 26472 H 2379.26 3.69247 -1.94197 0
M  V30 26473 H 2377.89 3.07495 -0.982185 0
M  V30 26474 H 2376.95 2.07712 -3.18685 0
M  V30 26475 H 2378.26 2.90479 -4.05491 0
M  V30 26476 H 2377.41 5.12031 -3.25437 0
M  V30 26477 H 2376.15 4.30961 -2.28307 0
M  V30 26478 H 2375.16 3.33442 -4.37146 0
M  V30 26479 H 2376.38 4.17774 -5.35389 0
M  V30 26480 H 2374.33 5.51517 -3.55198 0
M  V30 26481 H 2374.24 5.41068 -5.27997 0
M  V30 26482 H 2375.51 6.33887 -4.5366 0
M  V30 26483 N 2379.74 1.42077 0.682052 0
M  V30 26484 C 2380.65 1.47374 1.82532 0
M  V30 26485 C 2381.67 0.363109 1.70169 0
M  V30 26486 O 2382.84 0.612908 1.91847 0
M  V30 26487 C 2379.91 1.36679 3.18622 0
M  V30 26488 C 2378.97 2.58173 3.42995 0
M  V30 26489 C 2378.2 2.47979 4.72591 0
M  V30 26490 O 2378.42 1.5117 5.50004 0
M  V30 26491 O 2377.36 3.37982 4.98048 0
M  V30 26492 H 2381.18 2.43856 1.81019 0
M  V30 26493 H 2378.77 1.23762 0.836865 0
M  V30 26494 H 2380.65 1.3305 3.99845 0
M  V30 26495 H 2379.33 0.433195 3.20788 0
M  V30 26496 H 2378.23 2.67378 2.61648 0
M  V30 26497 H 2379.57 3.50407 3.45653 0
M  V30 26498 N 2381.22 -0.917649 1.28129 0
M  V30 26499 C 2382.17 -2.04094 1.11573 0
M  V30 26500 C 2383.16 -1.69362 0.036054 0
M  V30 26501 O 2384.37 -1.78946 0.194532 0
M  V30 26502 H 2380.74 -0.66865 0.344109 0
M  V30 26503 H 2382.71 -2.15202 2.06714 0
M  V30 26504 C 2381.46 -3.386 0.790257 0
M  V30 26505 H 2380.79 -3.65818 1.613 0
M  V30 26506 H 2382.23 -4.17939 0.714345 0
M  V30 26507 C 2380.68 -3.33081 -0.505839 0
M  V30 26508 O 2381.21 -3.7112 -1.5373 0
M  V30 26509 N 2379.42 -2.86176 -0.505143 0
M  V30 26510 H 2378.97 -2.55417 0.334665 0
M  V30 26511 H 2378.93 -2.82866 -1.37238 0
M  V30 26512 N 2382.7 -1.10314 -1.12555 0
M  V30 26513 C 2383.93 -0.866906 -1.87863 0
M  V30 26514 C 2384.34 0.582525 -1.79589 0
M  V30 26515 O 2383.7 1.40154 -1.1689 0
M  V30 26516 C 2383.75 -1.30502 -3.37122 0
M  V30 26517 O 2383.47 -2.69761 -3.45196 0
M  V30 26518 C 2384.97 -1.1025 -4.29371 0
M  V30 26519 H 2382.19 -0.311246 -0.594447 0
M  V30 26520 H 2384.73 -1.46748 -1.42426 0
M  V30 26521 H 2382.89 -0.748148 -3.80107 0
M  V30 26522 H 2383.3 -2.88465 -4.3805 0
M  V30 26523 H 2384.78 -1.45821 -5.32391 0
M  V30 26524 H 2385.25 -0.0410263 -4.39181 0
M  V30 26525 H 2385.86 -1.64578 -3.92166 0
M  V30 26526 N 2384.18 1.29948 -0.891694 0
M  V30 26527 C 2385.12 2.27947 -0.361776 0
M  V30 26528 C 2386.09 1.56669 0.551733 0
M  V30 26529 O 2387.28 1.84697 0.478703 0
M  V30 26530 C 2384.42 3.42635 0.411764 0
M  V30 26531 C 2383.53 4.28715 -0.531726 0
M  V30 26532 C 2382.67 5.30573 0.258074 0
M  V30 26533 C 2381.7 6.08306 -0.680455 0
M  V30 26534 N 2380.84 7.02061 0.0744379 0
M  V30 26535 H 2385.68 2.72657 -1.20259 0
M  V30 26536 H 2383.22 1.34111 -0.604376 0
M  V30 26537 H 2385.18 4.07895 0.876232 0
M  V30 26538 H 2383.81 2.98976 1.2171 0
M  V30 26539 H 2382.86 3.63701 -1.1147 0
M  V30 26540 H 2384.17 4.82871 -1.25046 0
M  V30 26541 H 2383.32 6.01612 0.784098 0
M  V30 26542 H 2382.06 4.77127 1.00999 0
M  V30 26543 H 2381.07 5.36138 -1.21805 0
M  V30 26544 H 2382.29 6.63839 -1.43157 0
M  V30 26545 H 2380.24 6.50995 0.808769 0
M  V30 26546 H 2380.16 7.53737 -0.584542 0
M  V30 26547 H 2381.42 7.77332 0.580986 0
M  V30 26548 N 2385.65 0.653339 1.4342 0
M  V30 26549 C 2386.56 -0.0388153 2.34568 0
M  V30 26550 C 2387.58 -0.812043 1.53889 0
M  V30 26551 O 2388.76 -0.759261 1.8654 0
M  V30 26552 C 2385.82 -0.99321 3.32169 0
M  V30 26553 C 2384.88 -0.216902 4.28752 0
M  V30 26554 C 2384.11 -1.12584 5.2169 0
M  V30 26555 O 2384.34 -2.3651 5.19056 0
M  V30 26556 O 2383.27 -0.598179 5.9892 0
M  V30 26557 H 2387.1 0.711438 2.95249 0
M  V30 26558 H 2384.68 0.413527 1.43563 0
M  V30 26559 H 2386.56 -1.54169 3.92186 0
M  V30 26560 H 2385.24 -1.72369 2.7399 0
M  V30 26561 H 2384.15 0.375166 3.72214 0
M  V30 26562 H 2385.48 0.474011 4.89912 0
M  V30 26563 N 2387.13 -1.52563 0.395266 0
M  V30 26564 C 2388.38 -2.00838 -0.186286 0
M  V30 26565 C 2388.69 -1.28579 -1.474 0
M  V30 26566 O 2389.9 -1.67597 -2.13597 0
M  V30 26567 C 2388.36 -3.57861 -0.382533 0
M  V30 26568 C 2387.96 -4.39024 0.892279 0
M  V30 26569 C 2389.71 -4.14408 -0.920127 0
M  V30 26570 C 2387.61 -5.87661 0.663983 0
M  V30 26571 H 2386.54 -0.75042 -0.0733909 0
M  V30 26572 H 2389.2 -1.7602 0.518583 0
M  V30 26573 H 2387.58 -3.78952 -1.1494 0
M  V30 26574 H 2388.75 -4.29698 1.66422 0
M  V30 26575 H 2387.07 -3.93728 1.35526 0
M  V30 26576 H 2389.66 -5.23121 -1.10674 0
M  V30 26577 H 2390.01 -3.70879 -1.89089 0
M  V30 26578 H 2390.54 -3.97231 -0.212681 0
M  V30 26579 H 2387.28 -6.35524 1.60592 0
M  V30 26580 H 2386.8 -5.9976 -0.0689139 0
M  V30 26581 H 2388.48 -6.463 0.300813 0
M  V30 26582 N 2388.61 -0.125265 -1.57101 0
M  V30 26583 C 2389.86 0.532 -1.95698 0
M  V30 26584 C 2390.19 1.65928 -1.00903 0
M  V30 26585 O 2389.46 1.94442 -0.0473812 0
M  V30 26586 C 2389.75 1.05878 -3.44183 0
M  V30 26587 C 2389.6 -0.0655182 -4.49752 0
M  V30 26588 C 2390.92 1.94764 -3.94658 0
M  V30 26589 H 2388.04 0.191913 -0.711575 0
M  V30 26590 H 2390.68 -0.202094 -1.88922 0
M  V30 26591 H 2388.83 1.68436 -3.50088 0
M  V30 26592 H 2390.5 -0.701063 -4.55942 0
M  V30 26593 H 2388.74 -0.727784 -4.27651 0
M  V30 26594 H 2389.42 0.344409 -5.50925 0
M  V30 26595 H 2391.89 1.42067 -3.91096 0
M  V30 26596 H 2390.77 2.28538 -4.99061 0
M  V30 26597 H 2391.03 2.8765 -3.35723 0
M  V30 26598 N 2390.09 1.56899 0.148518 0
M  V30 26599 C 2391.05 1.97246 1.16733 0
M  V30 26600 C 2392.05 0.858801 1.35946 0
M  V30 26601 O 2393.24 1.12545 1.32964 0
M  V30 26602 C 2390.37 2.28709 2.52794 0
M  V30 26603 H 2391.57 2.88437 0.821228 0
M  V30 26604 H 2389.12 1.5131 0.391804 0
M  V30 26605 H 2389.85 1.40305 2.92378 0
M  V30 26606 H 2389.64 3.09906 2.4021 0
M  V30 26607 H 2391.13 2.60768 3.26175 0
M  V30 26608 N 2391.57 -0.417818 1.51961 0
M  V30 26609 C 2392.51 -1.50849 1.7468 0
M  V30 26610 C 2393.48 -1.55307 0.588974 0
M  V30 26611 O 2394.67 -1.72014 0.825575 0
M  V30 26612 C 2391.81 -2.88384 1.89549 0
M  V30 26613 C 2390.92 -2.93303 3.17171 0
M  V30 26614 C 2390.06 -4.22083 3.22521 0
M  V30 26615 C 2389.09 -4.20943 4.4438 0
M  V30 26616 N 2388.23 -5.41279 4.4717 0
M  V30 26617 H 2393.07 -1.30778 2.67771 0
M  V30 26618 H 2390.61 -0.634957 1.3269 0
M  V30 26619 H 2392.57 -3.68212 1.96152 0
M  V30 26620 H 2391.2 -3.06969 0.998478 0
M  V30 26621 H 2390.25 -2.06019 3.19782 0
M  V30 26622 H 2391.56 -2.88325 4.07026 0
M  V30 26623 H 2390.71 -5.10298 3.28148 0
M  V30 26624 H 2389.45 -4.29744 2.30589 0
M  V30 26625 H 2388.46 -3.31119 4.38908 0
M  V30 26626 H 2389.68 -4.14929 5.37597 0
M  V30 26627 H 2387.63 -5.49625 3.58117 0
M  V30 26628 H 2387.55 -5.38261 5.30859 0
M  V30 26629 H 2388.81 -6.31472 4.57016 0
M  V30 26630 N 2393.04 -1.42436 -0.674508 0
M  V30 26631 C 2393.98 -1.40369 -1.79921 0
M  V30 26632 C 2394.95 -0.267927 -1.60377 0
M  V30 26633 O 2396.14 -0.458191 -1.82847 0
M  V30 26634 C 2393.27 -1.19484 -3.16925 0
M  V30 26635 C 2392.31 -2.36057 -3.55217 0
M  V30 26636 S 2393.14 -3.98589 -3.57613 0
M  V30 26637 C 2394.3 -3.80047 -4.97308 0
M  V30 26638 H 2394.53 -2.35544 -1.81401 0
M  V30 26639 H 2392.07 -1.29212 -0.845199 0
M  V30 26640 H 2394.02 -1.08121 -3.96005 0
M  V30 26641 H 2392.69 -0.258939 -3.13031 0
M  V30 26642 H 2391.88 -2.17193 -4.548 0
M  V30 26643 H 2391.48 -2.43937 -2.83498 0
M  V30 26644 H 2393.77 -3.41055 -5.85395 0
M  V30 26645 H 2394.72 -4.79307 -5.2122 0
M  V30 26646 H 2395.12 -3.12907 -4.6984 0
M  V30 26647 N 2394.52 0.910841 -1.28614 0
M  V30 26648 C 2395.47 2.01363 -1.1279 0
M  V30 26649 C 2396.44 1.66082 -0.0242302 0
M  V30 26650 O 2397.62 1.89855 -0.1897 0
M  V30 26651 C 2394.76 3.35728 -0.798802 0
M  V30 26652 C 2393.88 3.8386 -1.9818 0
M  V30 26653 C 2393.01 5.06749 -1.59307 0
M  V30 26654 C 2392.05 5.47221 -2.74254 0
M  V30 26655 N 2391.19 6.613 -2.35854 0
M  V30 26656 H 2396.03 2.1423 -2.07146 0
M  V30 26657 H 2393.56 1.04928 -1.03095 0
M  V30 26658 H 2395.52 4.13025 -0.588734 0
M  V30 26659 H 2394.15 3.2262 0.107833 0
M  V30 26660 H 2393.2 3.02695 -2.30391 0
M  V30 26661 H 2394.52 4.09813 -2.8435 0
M  V30 26662 H 2393.67 5.91598 -1.34524 0
M  V30 26663 H 2392.41 4.82611 -0.702702 0
M  V30 26664 H 2391.41 4.60912 -2.99733 0
M  V30 26665 H 2392.64 5.73346 -3.63938 0
M  V30 26666 H 2390.59 6.38787 -1.4929 0
M  V30 26667 H 2390.5 6.86993 -3.15558 0
M  V30 26668 H 2391.77 7.49446 -2.14361 0
M  V30 26669 N 2396 1.10909 1.11969 0
M  V30 26670 C 2396.91 0.774935 2.21432 0
M  V30 26671 C 2397.93 -0.229627 1.72478 0
M  V30 26672 O 2399.1 -0.0671654 2.01288 0
M  V30 26673 C 2396.17 0.217047 3.4602 0
M  V30 26674 C 2395.23 1.27951 4.09789 0
M  V30 26675 C 2394.46 0.748148 5.2843 0
M  V30 26676 O 2394.68 -0.423733 5.68824 0
M  V30 26677 O 2393.62 1.51037 5.82642 0
M  V30 26678 H 2397.44 1.68877 2.52417 0
M  V30 26679 H 2395.03 0.884576 1.20398 0
M  V30 26680 H 2396.91 -0.089985 4.21304 0
M  V30 26681 H 2395.59 -0.669577 3.16699 0
M  V30 26682 H 2394.49 1.63947 3.36262 0
M  V30 26683 H 2395.83 2.13932 4.43276 0
M  V30 26684 N 2397.48 -1.29474 0.898573 0
M  V30 26685 C 2398.7 -2.00285 0.538596 0
M  V30 26686 C 2399.13 -1.66818 -0.869106 0
M  V30 26687 O 2398.49 -0.892172 -1.57829 0
M  V30 26688 C 2398.53 -3.52998 0.736537 0
M  V30 26689 O 2397.64 -4.11857 -0.211465 0
M  V30 26690 H 2396.98 -0.629726 0.210574 0
M  V30 26691 H 2399.51 -1.64996 1.20985 0
M  V30 26692 H 2399.52 -4.02937 0.640756 0
M  V30 26693 H 2398.19 -3.76693 1.76283 0
M  V30 26694 H 2396.77 -3.72838 -0.0682336 0
M  V30 26695 N 2398.96 -0.660936 -1.43071 0
M  V30 26696 C 2399.89 0.0647239 -2.29109 0
M  V30 26697 C 2400.9 0.779423 -1.4293 0
M  V30 26698 O 2402.09 0.635892 -1.66789 0
M  V30 26699 C 2399.19 1.11498 -3.20034 0
M  V30 26700 C 2398.36 0.476878 -4.34793 0
M  V30 26701 C 2397.42 1.42504 -5.06536 0
M  V30 26702 O 2396.45 0.930672 -5.6154 0
M  V30 26703 N 2397.65 2.7588 -5.10755 0
M  V30 26704 H 2400.42 -0.673782 -2.92028 0
M  V30 26705 H 2397.98 -0.504297 -1.53846 0
M  V30 26706 H 2399.97 1.75025 -3.64895 0
M  V30 26707 H 2398.54 1.75537 -2.58661 0
M  V30 26708 H 2397.76 -0.337641 -3.92751 0
M  V30 26709 H 2399.05 0.0317631 -5.0879 0
M  V30 26710 H 2398.44 3.18597 -4.67453 0
M  V30 26711 H 2397 3.3469 -5.59308 0
M  V30 26712 N 2400.43 1.52351 -0.403352 0
M  V30 26713 C 2401.34 2.30589 0.431969 0
M  V30 26714 C 2402.36 1.38077 1.05881 0
M  V30 26715 O 2403.54 1.7115 1.06158 0
M  V30 26716 C 2400.6 3.10787 1.53664 0
M  V30 26717 C 2399.66 4.19029 0.933451 0
M  V30 26718 C 2398.9 4.95393 1.98548 0
M  V30 26719 O 2399.12 4.71996 3.20274 0
M  V30 26720 O 2398.05 5.80384 1.59493 0
M  V30 26721 H 2401.88 3.03002 -0.205792 0
M  V30 26722 H 2399.46 1.48467 -0.166702 0
M  V30 26723 H 2401.35 3.60746 2.17808 0
M  V30 26724 H 2400.02 2.41173 2.15911 0
M  V30 26725 H 2398.93 3.73231 0.254888 0
M  V30 26726 H 2400.26 4.90918 0.354993 0
M  V30 26727 N 2401.91 0.133594 1.57033 0
M  V30 26728 C 2402.86 -0.81117 2.16076 0
M  V30 26729 C 2403.83 -1.25348 1.08982 0
M  V30 26730 O 2405.01 -1.3284 1.3696 0
M  V30 26731 C 2402.15 -2.05019 2.77599 0
M  V30 26732 C 2401.27 -1.65491 3.99045 0
M  V30 26733 C 2400.4 -2.84471 4.48608 0
M  V30 26734 C 2399.44 -2.41252 5.62551 0
M  V30 26735 N 2398.58 -3.53195 6.06793 0
M  V30 26736 H 2403.42 -0.300854 2.96477 0
M  V30 26737 H 2400.96 -0.136796 1.46463 0
M  V30 26738 H 2402.91 -2.77636 3.11406 0
M  V30 26739 H 2401.54 -2.53485 1.99863 0
M  V30 26740 H 2400.6 -0.826916 3.71303 0
M  V30 26741 H 2401.91 -1.2974 4.81632 0
M  V30 26742 H 2401.06 -3.65295 4.84401 0
M  V30 26743 H 2399.8 -3.23459 3.65001 0
M  V30 26744 H 2398.81 -1.58865 5.26348 0
M  V30 26745 H 2400.03 -2.03366 6.47935 0
M  V30 26746 H 2397.98 -3.91829 5.26124 0
M  V30 26747 H 2397.89 -3.21415 6.84272 0
M  V30 26748 H 2399.16 -4.34415 6.47228 0
M  V30 26749 N 2403.39 -1.56975 -0.140195 0
M  V30 26750 C 2404.3 -2.02049 -1.1922 0
M  V30 26751 C 2405.32 -0.937088 -1.46611 0
M  V30 26752 O 2406.49 -1.24707 -1.58146 0
M  V30 26753 C 2403.56 -2.39783 -2.5041 0
M  V30 26754 C 2402.62 -3.62104 -2.30605 0
M  V30 26755 C 2401.85 -3.98029 -3.5554 0
M  V30 26756 O 2402.07 -3.34536 -4.61998 0
M  V30 26757 O 2401.01 -4.91243 -3.47799 0
M  V30 26758 H 2404.83 -2.91866 -0.839508 0
M  V30 26759 H 2402.42 -1.45256 -0.349427 0
M  V30 26760 H 2404.3 -2.64882 -3.27743 0
M  V30 26761 H 2402.98 -1.53119 -2.85195 0
M  V30 26762 H 2401.88 -3.42183 -1.51201 0
M  V30 26763 H 2403.22 -4.49408 -2.00733 0
M  V30 26764 N 2404.87 0.409753 -1.5218 0
M  V30 26765 C 2406.1 1.17679 -1.69809 0
M  V30 26766 C 2406.51 1.84772 -0.406941 0
M  V30 26767 O 2405.85 1.72675 0.626833 0
M  V30 26768 C 2405.91 2.28285 -2.77716 0
M  V30 26769 C 2405.58 1.81333 -4.19485 0
M  V30 26770 C 2406.57 1.30145 -5.03347 0
M  V30 26771 C 2404.26 1.88186 -4.65716 0
M  V30 26772 C 2406.25 0.864305 -6.31513 0
M  V30 26773 C 2403.94 1.44083 -5.93871 0
M  V30 26774 C 2404.94 0.932904 -6.76599 0
M  V30 26775 O 2404.62 0.498239 -8.02355 0
M  V30 26776 H 2404.36 0.359664 -0.572379 0
M  V30 26777 H 2406.91 0.488276 -1.99512 0
M  V30 26778 H 2405.14 3.00498 -2.43388 0
M  V30 26779 H 2406.83 2.90046 -2.83951 0
M  V30 26780 H 2407.6 1.24224 -4.68821 0
M  V30 26781 H 2403.47 2.26664 -4.01428 0
M  V30 26782 H 2407.02 0.467164 -6.96034 0
M  V30 26783 H 2402.92 1.49683 -6.27905 0
M  V30 26784 H 2403.68 0.621604 -8.16136 0
M  V30 26785 N 2406.35 1.42792 0.666944 0
M  V30 26786 C 2407.28 1.42839 1.79248 0
M  V30 26787 C 2408.29 0.326361 1.59495 0
M  V30 26788 O 2409.48 0.589946 1.68469 0
M  V30 26789 C 2406.58 1.21234 3.16473 0
M  V30 26790 C 2405.75 2.44019 3.63006 0
M  V30 26791 C 2404.81 2.17843 4.7899 0
M  V30 26792 O 2403.84 2.911 4.89132 0
M  V30 26793 N 2405.04 1.18645 5.68246 0
M  V30 26794 H 2407.81 2.39857 1.79691 0
M  V30 26795 H 2405.37 1.37773 0.850314 0
M  V30 26796 H 2407.36 1.01627 3.91732 0
M  V30 26797 H 2405.93 0.327115 3.10884 0
M  V30 26798 H 2405.15 2.79142 2.78341 0
M  V30 26799 H 2406.44 3.25764 3.90839 0
M  V30 26800 H 2405.83 0.580714 5.62711 0
M  V30 26801 H 2404.39 1.05024 6.43283 0
M  V30 26802 N 2407.82 -0.904008 1.29095 0
M  V30 26803 C 2409.07 -1.65409 1.16816 0
M  V30 26804 C 2409.4 -1.92456 -0.281247 0
M  V30 26805 O 2408.65 -1.53015 -1.22003 0
M  V30 26806 C 2408.95 -3.01301 1.9223 0
M  V30 26807 C 2408.62 -2.93879 3.41973 0
M  V30 26808 C 2407.28 -2.91562 3.82812 0
M  V30 26809 C 2409.63 -2.83405 4.37414 0
M  V30 26810 C 2406.96 -2.76584 5.17415 0
M  V30 26811 C 2409.31 -2.69967 5.72102 0
M  V30 26812 C 2407.98 -2.66013 6.12203 0
M  V30 26813 H 2407.25 -0.605276 0.427461 0
M  V30 26814 H 2409.89 -1.05252 1.59982 0
M  V30 26815 H 2408.2 -3.65301 1.41641 0
M  V30 26816 H 2409.9 -3.58262 1.80137 0
M  V30 26817 H 2406.49 -2.96483 3.09509 0
M  V30 26818 H 2410.67 -2.84275 4.06818 0
M  V30 26819 H 2405.93 -2.71925 5.47601 0
M  V30 26820 H 2410.1 -2.60832 6.45708 0
M  V30 26821 H 2407.73 -2.54165 7.16452 0
M  V30 26822 N 2409.3 -1.11501 -1.11379 0
M  V30 26823 C 2410.23 -0.796163 -2.19507 0
M  V30 26824 C 2411.21 0.235766 -1.68458 0
M  V30 26825 O 2412.4 0.0991003 -1.93947 0
M  V30 26826 C 2409.53 -0.239266 -3.46475 0
M  V30 26827 C 2408.48 -1.20314 -4.10741 0
M  V30 26828 C 2407.81 -0.506924 -5.32292 0
M  V30 26829 C 2409.11 -2.55407 -4.55593 0
M  V30 26830 H 2410.8 -1.70028 -2.46436 0
M  V30 26831 H 2408.35 -0.818956 -1.18445 0
M  V30 26832 H 2410.3 -0.00399414 -4.214 0
M  V30 26833 H 2409.03 0.70015 -3.19007 0
M  V30 26834 H 2407.68 -1.42405 -3.37811 0
M  V30 26835 H 2407.33 0.43732 -5.01095 0
M  V30 26836 H 2407.03 -1.1498 -5.76241 0
M  V30 26837 H 2408.56 -0.280459 -6.09956 0
M  V30 26838 H 2409.97 -2.374 -5.21837 0
M  V30 26839 H 2408.37 -3.15682 -5.10358 0
M  V30 26840 H 2409.44 -3.14581 -3.69007 0
M  V30 26841 N 2410.78 1.28995 -0.905426 0
M  V30 26842 C 2411.73 2.2755 -0.385932 0
M  V30 26843 C 2412.7 1.57245 0.535085 0
M  V30 26844 O 2413.88 1.85195 0.459087 0
M  V30 26845 C 2411.02 3.43052 0.3754 0
M  V30 26846 C 2410.14 4.28127 -0.577167 0
M  V30 26847 C 2409.27 5.30817 0.201785 0
M  V30 26848 C 2408.31 6.0755 -0.744936 0
M  V30 26849 N 2407.45 7.021 -2.91531e-05 0
M  V30 26850 H 2412.29 2.71366 -1.23144 0
M  V30 26851 H 2409.82 1.33462 -0.618566 0
M  V30 26852 H 2411.78 4.08801 0.83292 0
M  V30 26853 H 2410.41 3.0025 1.18532 0
M  V30 26854 H 2409.46 3.62499 -1.15321 0
M  V30 26855 H 2410.78 4.81518 -1.30161 0
M  V30 26856 H 2409.93 6.0241 0.720245 0
M  V30 26857 H 2408.67 4.78172 0.959329 0
M  V30 26858 H 2407.67 5.34816 -1.27485 0
M  V30 26859 H 2408.9 6.62284 -1.5019 0
M  V30 26860 H 2406.85 6.51817 0.739676 0
M  V30 26861 H 2406.76 7.53074 -0.664453 0
M  V30 26862 H 2408.03 7.77904 0.498507 0
M  V30 26863 N 2412.26 0.668514 1.42719 0
M  V30 26864 C 2413.19 -0.0637497 2.28111 0
M  V30 26865 C 2414.17 -0.814887 1.40707 0
M  V30 26866 O 2415.35 -0.81131 1.70147 0
M  V30 26867 C 2412.48 -1.09734 3.20431 0
M  V30 26868 C 2411.53 -0.442504 4.24198 0
M  V30 26869 S 2412.36 0.795266 5.29562 0
M  V30 26870 C 2413.52 -0.237406 6.2545 0
M  V30 26871 H 2413.75 0.660572 2.89868 0
M  V30 26872 H 2411.28 0.457847 1.47455 0
M  V30 26873 H 2413.24 -1.68861 3.74161 0
M  V30 26874 H 2411.9 -1.79407 2.57822 0
M  V30 26875 H 2411.09 -1.22219 4.88957 0
M  V30 26876 H 2410.7 0.0750212 3.73925 0
M  V30 26877 H 2412.99 -1.09904 6.68526 0
M  V30 26878 H 2413.93 0.375545 7.07103 0
M  V30 26879 H 2414.34 -0.580068 5.61512 0
M  V30 26880 N 2413.74 -1.52135 0.411426 0
M  V30 26881 C 2414.97 -2.06257 -0.16304 0
M  V30 26882 C 2415.38 -1.28128 -1.38668 0
M  V30 26883 O 2414.74 -0.333753 -1.79422 0
M  V30 26884 C 2414.79 -3.57867 -0.511189 0
M  V30 26885 O 2414.51 -4.33041 0.663857 0
M  V30 26886 C 2416.01 -4.28414 -1.13914 0
M  V30 26887 H 2413.23 -0.67072 -0.0193779 0
M  V30 26888 H 2415.77 -1.96012 0.583041 0
M  V30 26889 H 2413.93 -3.68112 -1.20716 0
M  V30 26890 H 2414.34 -5.23174 0.372693 0
M  V30 26891 H 2415.82 -5.35665 -1.33293 0
M  V30 26892 H 2416.29 -3.85037 -2.11289 0
M  V30 26893 H 2416.9 -4.22545 -0.483299 0
M  V30 26894 N 2415.22 -0.14192 -1.5696 0
M  V30 26895 C 2416.18 0.785549 -2.15318 0
M  V30 26896 C 2417.18 1.17878 -1.09368 0
M  V30 26897 O 2418.37 1.10053 -1.35033 0
M  V30 26898 C 2415.5 2.06532 -2.71214 0
M  V30 26899 H 2416.69 0.277988 -2.98609 0
M  V30 26900 H 2414.25 0.107491 -1.5593 0
M  V30 26901 H 2414.98 2.61667 -1.91575 0
M  V30 26902 H 2414.77 1.79262 -3.48723 0
M  V30 26903 H 2416.26 2.72784 -3.16194 0
M  V30 26904 N 2416.69 1.57047 0.131868 0
M  V30 26905 C 2417.94 1.84442 0.843147 0
M  V30 26906 C 2418.27 0.725781 1.80128 0
M  V30 26907 O 2417.55 -0.269436 1.92625 0
M  V30 26908 C 2417.83 3.22385 1.60437 0
M  V30 26909 C 2417.68 4.44832 0.666704 0
M  V30 26910 C 2419 3.57735 2.56347 0
M  V30 26911 H 2416.12 0.670896 0.305069 0
M  V30 26912 H 2418.76 1.89694 0.107806 0
M  V30 26913 H 2416.91 3.18039 2.23122 0
M  V30 26914 H 2418.59 4.61273 0.0496835 0
M  V30 26915 H 2416.83 4.33794 -0.0226853 0
M  V30 26916 H 2417.5 5.37991 1.23569 0
M  V30 26917 H 2419.98 3.62789 2.03773 0
M  V30 26918 H 2418.85 4.55256 3.06649 0
M  V30 26919 H 2419.11 2.84479 3.38414 0
M  V30 26920 N 2418.17 -0.401677 1.52395 0
M  V30 26921 C 2419.12 -1.51036 1.76892 0
M  V30 26922 C 2420.11 -1.56994 0.636326 0
M  V30 26923 O 2421.32 -1.60312 0.818535 0
M  V30 26924 H 2417.69 -0.502446 0.559511 0
M  V30 26925 H 2419.67 -1.27563 2.6976 0
M  V30 26926 C 2418.41 -2.8832 1.94336 0
M  V30 26927 H 2417.74 -2.84481 2.8091 0
M  V30 26928 H 2419.18 -3.65168 2.15473 0
M  V30 26929 C 2417.64 -3.29281 0.712454 0
M  V30 26930 O 2418.17 -4.01532 -0.116147 0
M  V30 26931 N 2416.37 -2.85421 0.546204 0
M  V30 26932 H 2415.92 -2.26792 1.2216 0
M  V30 26933 H 2415.88 -3.13186 -0.276058 0
M  V30 26934 N 2419.65 -1.43144 -0.659362 0
M  V30 26935 C 2420.56 -1.50259 -1.80165 0
M  V30 26936 C 2421.58 -0.390136 -1.6957 0
M  V30 26937 O 2422.75 -0.643352 -1.90848 0
M  V30 26938 C 2419.82 -1.41731 -3.16407 0
M  V30 26939 C 2418.88 -2.63597 -3.38844 0
M  V30 26940 C 2418.11 -2.55466 -4.68586 0
M  V30 26941 O 2418.33 -1.59901 -5.47529 0
M  V30 26942 O 2417.27 -3.45863 -4.92608 0
M  V30 26943 H 2421.09 -2.46705 -1.77117 0
M  V30 26944 H 2418.68 -1.25077 -0.81707 0
M  V30 26945 H 2420.56 -1.39394 -3.97677 0
M  V30 26946 H 2419.24 -0.484174 -3.20058 0
M  V30 26947 H 2418.14 -2.71507 -2.57361 0
M  V30 26948 H 2419.48 -3.55862 -3.40034 0
M  V30 26949 N 2421.13 0.897149 -1.29572 0
M  V30 26950 C 2422.36 1.68127 -1.20585 0
M  V30 26951 C 2422.77 1.87355 0.233148 0
M  V30 26952 O 2422.13 1.41238 1.15577 0
M  V30 26953 C 2422.18 3.06437 -1.91777 0
M  V30 26954 O 2421.9 2.88086 -3.30058 0
M  V30 26955 C 2423.4 4.00851 -1.89298 0
M  V30 26956 H 2420.62 0.525029 -0.417835 0
M  V30 26957 H 2423.16 1.12174 -1.70989 0
M  V30 26958 H 2421.32 3.59159 -1.45202 0
M  V30 26959 H 2421.73 3.75742 -3.65948 0
M  V30 26960 H 2423.21 4.95306 -2.43671 0
M  V30 26961 H 2423.68 4.30515 -0.869089 0
M  V30 26962 H 2424.29 3.54061 -2.35628 0
M  V30 26963 N 2422.61 1.1209 1.10786 0
M  V30 26964 C 2423.54 0.743251 2.16814 0
M  V30 26965 C 2424.55 -0.228383 1.6119 0
M  V30 26966 O 2425.74 -0.0102617 1.78497 0
M  V30 26967 C 2422.84 0.0787909 3.38808 0
M  V30 26968 C 2422.01 1.07897 4.23883 0
M  V30 26969 C 2421.07 0.442805 5.24334 0
M  V30 26970 O 2420.1 1.09874 5.58495 0
M  V30 26971 N 2421.3 -0.791356 5.75081 0
M  V30 26972 H 2424.06 1.65557 2.49822 0
M  V30 26973 H 2421.63 1.01203 1.26371 0
M  V30 26974 H 2423.62 -0.358696 4.03107 0
M  V30 26975 H 2422.19 -0.736221 3.03807 0
M  V30 26976 H 2421.41 1.6942 3.55936 0
M  V30 26977 H 2422.7 1.75542 4.77559 0
M  V30 26978 H 2422.09 -1.3433 5.4952 0
M  V30 26979 H 2420.65 -1.17172 6.41182 0
M  V30 26980 N 2424.08 -1.28513 0.912254 0
M  V30 26981 C 2424.99 -2.31086 0.404547 0
M  V30 26982 C 2426.01 -1.66448 -0.50704 0
M  V30 26983 O 2427.19 -1.97517 -0.393589 0
M  V30 26984 C 2424.25 -3.44944 -0.348512 0
M  V30 26985 C 2423.31 -4.25141 0.596114 0
M  V30 26986 C 2422.54 -5.33563 -0.1211 0
M  V30 26987 O 2422.77 -5.54363 -1.34307 0
M  V30 26988 O 2421.7 -5.99447 0.542822 0
M  V30 26989 H 2425.53 -2.76519 1.25583 0
M  V30 26990 H 2423.11 -1.33179 0.677022 0
M  V30 26991 H 2424.99 -4.14233 -0.773877 0
M  V30 26992 H 2423.67 -3.01596 -1.17566 0
M  V30 26993 H 2422.58 -3.58446 1.07085 0
M  V30 26994 H 2423.91 -4.72164 1.39003 0
M  V30 26995 N 2425.56 -0.676073 -1.42362 0
M  V30 26996 C 2426.51 0.00146847 -2.308 0
M  V30 26997 C 2427.48 0.791418 -1.46034 0
M  V30 26998 O 2428.66 0.763409 -1.74862 0
M  V30 26999 C 2425.8 0.945861 -3.31885 0
M  V30 27000 C 2424.92 0.149599 -4.31741 0
M  V30 27001 C 2424.05 1.08986 -5.199 0
M  V30 27002 C 2423.09 0.285357 -6.11434 0
M  V30 27003 N 2422.23 1.17839 -6.9214 0
M  V30 27004 H 2427.07 -0.758505 -2.88185 0
M  V30 27005 H 2424.61 -0.385785 -1.41951 0
M  V30 27006 H 2426.56 1.50724 -3.89022 0
M  V30 27007 H 2425.19 1.67245 -2.76096 0
M  V30 27008 H 2424.25 -0.528425 -3.76712 0
M  V30 27009 H 2425.56 -0.474954 -4.96534 0
M  V30 27010 H 2424.71 1.72113 -5.81775 0
M  V30 27011 H 2423.45 1.74829 -4.55287 0
M  V30 27012 H 2422.46 -0.359114 -5.48626 0
M  V30 27013 H 2423.68 -0.369002 -6.78097 0
M  V30 27014 H 2421.63 1.82321 -6.30155 0
M  V30 27015 H 2421.54 0.60895 -7.53543 0
M  V30 27016 H 2422.81 1.79709 -7.58502 0
M  V30 27017 N 2427.04 1.51915 -0.419488 0
M  V30 27018 C 2427.97 2.23805 0.445712 0
M  V30 27019 C 2428.95 1.25033 1.03949 0
M  V30 27020 O 2430.14 1.54116 1.08538 0
M  V30 27021 C 2427.26 2.97468 1.61959 0
M  V30 27022 C 2426.31 4.10753 1.14821 0
M  V30 27023 S 2427.14 5.35397 0.104844 0
M  V30 27024 C 2428.3 6.12592 1.28381 0
M  V30 27025 H 2428.53 2.96844 -0.16468 0
M  V30 27026 H 2426.06 1.53048 -0.20386 0
M  V30 27027 H 2428.02 3.40511 2.29265 0
M  V30 27028 H 2426.68 2.24052 2.20135 0
M  V30 27029 H 2425.88 4.61507 2.02553 0
M  V30 27030 H 2425.48 3.69879 0.553647 0
M  V30 27031 H 2427.77 6.40596 2.20552 0
M  V30 27032 H 2428.71 7.03376 0.8166 0
M  V30 27033 H 2429.12 5.4381 1.51429 0
M  V30 27034 N 2428.52 0.150242 1.56882 0
M  V30 27035 C 2429.76 -0.502769 1.9812 0
M  V30 27036 C 2430.12 -1.61824 1.0333 0
M  V30 27037 O 2431.32 -2.33233 1.33625 0
M  V30 27038 C 2429.59 -0.992927 3.4333 0
M  V30 27039 S 2431.15 -1.65008 4.06593 0
M  V30 27040 H 2427.97 -0.162454 0.692192 0
M  V30 27041 H 2430.57 0.242723 1.93987 0
M  V30 27042 H 2429.28 -0.170364 4.10046 0
M  V30 27043 H 2428.81 -1.77296 3.51183 0
M  V30 27044 H 2430.82 -2.93745 3.99911 0
M  V30 27045 N 2430 -1.57115 -0.123538 0
M  V30 27046 C 2430.91 -2.03302 -1.1707 0
M  V30 27047 C 2431.92 -0.952585 -1.45608 0
M  V30 27048 O 2433.1 -1.26377 -1.56815 0
M  V30 27049 C 2430.16 -2.42425 -2.47852 0
M  V30 27050 C 2429.22 -3.6453 -2.26752 0
M  V30 27051 C 2428.46 -4.01778 -3.51298 0
M  V30 27052 O 2428.68 -3.39417 -4.58424 0
M  V30 27053 O 2427.61 -4.94904 -3.42569 0
M  V30 27054 H 2431.44 -2.9274 -0.808504 0
M  V30 27055 H 2429.03 -1.45619 -0.334001 0
M  V30 27056 H 2430.91 -2.68344 -3.24915 0
M  V30 27057 H 2429.58 -1.56135 -2.83555 0
M  V30 27058 H 2428.49 -3.43767 -1.47563 0
M  V30 27059 H 2429.82 -4.51511 -1.95955 0
M  V30 27060 N 2431.47 0.393589 -1.52606 0
M  V30 27061 C 2432.72 1.13624 -1.66651 0
M  V30 27062 C 2433.04 1.91246 -0.410397 0
M  V30 27063 O 2434.24 2.68059 -0.430901 0
M  V30 27064 C 2432.7 2.06886 -2.94493 0
M  V30 27065 C 2432.31 1.34707 -4.27268 0
M  V30 27066 C 2434.05 2.81314 -3.17904 0
M  V30 27067 C 2431.96 2.26708 -5.46221 0
M  V30 27068 H 2430.89 0.427861 -0.620847 0
M  V30 27069 H 2433.54 0.399396 -1.79101 0
M  V30 27070 H 2431.92 2.84186 -2.75779 0
M  V30 27071 H 2433.09 0.626634 -4.56519 0
M  V30 27072 H 2431.41 0.722571 -4.10083 0
M  V30 27073 H 2434.01 3.50321 -4.03955 0
M  V30 27074 H 2434.35 3.45135 -2.32783 0
M  V30 27075 H 2434.88 2.11107 -3.37162 0
M  V30 27076 H 2431.62 1.67509 -6.33736 0
M  V30 27077 H 2431.14 2.9668 -5.21288 0
M  V30 27078 H 2432.82 2.86893 -5.79915 0
M  V30 27079 N 2432.95 1.43492 0.651762 0
M  V30 27080 C 2433.86 1.51213 1.79365 0
M  V30 27081 C 2434.88 0.399123 1.69361 0
M  V30 27082 O 2436.05 0.653464 1.90504 0
M  V30 27083 C 2433.12 1.43407 3.15651 0
M  V30 27084 C 2432.18 2.6539 3.37441 0
M  V30 27085 C 2431.41 2.57947 4.67225 0
M  V30 27086 O 2431.64 1.62802 5.46673 0
M  V30 27087 O 2430.57 3.48471 4.90767 0
M  V30 27088 H 2434.4 2.47641 1.75806 0
M  V30 27089 H 2431.98 1.25509 0.810425 0
M  V30 27090 H 2433.86 1.41501 3.96932 0
M  V30 27091 H 2432.54 0.501141 3.19797 0
M  V30 27092 H 2431.45 2.72868 2.55918 0
M  V30 27093 H 2432.78 3.5766 3.38142 0
M  V30 27094 N 2434.43 -0.890264 1.30046 0
M  V30 27095 C 2435.38 -1.98258 1.12595 0
M  V30 27096 C 2436.36 -1.60844 0.0426303 0
M  V30 27097 O 2437.56 -1.74999 0.265377 0
M  V30 27098 C 2434.69 -3.33501 0.814359 0
M  V30 27099 C 2433.77 -3.77246 1.93768 0
M  V30 27100 N 2434.16 -3.93138 3.18239 0
M  V30 27101 C 2432.46 -4.06599 1.83285 0
M  V30 27102 C 2433.16 -4.30156 3.91588 0
M  V30 27103 N 2432.14 -4.39724 3.19599 0
M  V30 27104 H 2435.94 -2.08628 2.07007 0
M  V30 27105 H 2433.45 -1.07972 1.21308 0
M  V30 27106 H 2435.45 -4.11475 0.670362 0
M  V30 27107 H 2434.11 -3.24472 -0.12174 0
M  V30 27108 H 2435.12 -3.78412 3.53588 0
M  V30 27109 H 2431.8 -4.06073 0.970081 0
M  V30 27110 H 2433.19 -4.50218 4.98752 0
M  V30 27111 N 2435.91 -1.12676 -1.1019 0
M  V30 27112 C 2436.84 -0.8194 -2.18651 0
M  V30 27113 C 2437.82 0.217886 -1.68699 0
M  V30 27114 O 2439 0.078524 -1.94041 0
M  V30 27115 C 2436.13 -0.276001 -3.46202 0
M  V30 27116 C 2435.09 -1.24664 -4.09442 0
M  V30 27117 C 2434.41 -0.563352 -5.31724 0
M  V30 27118 C 2435.71 -2.60225 -4.52858 0
M  V30 27119 H 2437.41 -1.72632 -2.44619 0
M  V30 27120 H 2434.95 -0.831472 -1.17569 0
M  V30 27121 H 2436.91 -0.048689 -4.21372 0
M  V30 27122 H 2435.63 0.666275 -3.19732 0
M  V30 27123 H 2434.29 -1.4598 -3.36282 0
M  V30 27124 H 2433.94 0.384147 -5.01531 0
M  V30 27125 H 2433.64 -1.21085 -5.74989 0
M  V30 27126 H 2435.16 -0.345137 -6.09624 0
M  V30 27127 H 2436.58 -2.42922 -5.1929 0
M  V30 27128 H 2434.97 -3.21077 -5.06981 0
M  V30 27129 H 2436.04 -3.18478 -3.6565 0
M  V30 27130 N 2437.39 1.28028 -0.919057 0
M  V30 27131 C 2438.33 2.27128 -0.410045 0
M  V30 27132 C 2439.3 1.57804 0.518377 0
M  V30 27133 O 2440.49 1.85671 0.439419 0
M  V30 27134 C 2437.63 3.43431 0.338994 0
M  V30 27135 C 2436.74 4.27491 -0.622543 0
M  V30 27136 C 2435.88 5.31001 0.145474 0
M  V30 27137 C 2434.92 6.06726 -0.809333 0
M  V30 27138 N 2434.05 7.0206 -0.0744962 0
M  V30 27139 H 2438.89 2.70045 -1.26015 0
M  V30 27140 H 2436.43 1.32799 -0.632687 0
M  V30 27141 H 2438.39 4.09661 0.789514 0
M  V30 27142 H 2437.02 3.0149 1.15341 0
M  V30 27143 H 2436.07 3.61255 -1.19159 0
M  V30 27144 H 2437.38 4.8011 -1.35261 0
M  V30 27145 H 2436.54 6.0314 0.656311 0
M  V30 27146 H 2435.27 4.79162 0.908559 0
M  V30 27147 H 2434.28 5.33433 -1.3315 0
M  V30 27148 H 2435.5 6.60654 -1.57206 0
M  V30 27149 H 2433.45 6.52564 0.670501 0
M  V30 27150 H 2433.37 7.52327 -0.744289 0
M  V30 27151 H 2434.64 7.78389 0.415972 0
M  V30 27152 N 2438.86 0.683613 1.42002 0
M  V30 27153 C 2439.77 0.0109488 2.34597 0
M  V30 27154 C 2440.79 -0.779218 1.55577 0
M  V30 27155 O 2441.97 -0.719522 1.88109 0
M  V30 27156 C 2439.03 -0.922529 3.34201 0
M  V30 27157 C 2438.09 -0.125908 4.29115 0
M  V30 27158 C 2437.33 -1.01493 5.23961 0
M  V30 27159 O 2437.55 -2.25447 5.23956 0
M  V30 27160 O 2436.48 -0.471004 6.00054 0
M  V30 27161 H 2440.31 0.773904 2.93674 0
M  V30 27162 H 2437.89 0.443886 1.42653 0
M  V30 27163 H 2439.78 -1.45816 3.95368 0
M  V30 27164 H 2438.45 -1.66518 2.77585 0
M  V30 27165 H 2437.36 0.454034 3.71335 0
M  V30 27166 H 2438.69 0.577822 4.88797 0
M  V30 27167 N 2440.34 -1.5169 0.427538 0
M  V30 27168 C 2441.28 -2.25235 -0.424481 0
M  V30 27169 C 2442.29 -1.28882 -0.994648 0
M  V30 27170 O 2443.48 -1.54703 -0.890455 0
M  V30 27171 C 2440.58 -2.98498 -1.60474 0
M  V30 27172 C 2439.75 -4.2187 -1.1552 0
M  V30 27173 C 2438.81 -4.77797 -2.20446 0
M  V30 27174 O 2437.84 -5.39896 -1.80281 0
M  V30 27175 N 2439.04 -4.60973 -3.52823 0
M  V30 27176 H 2441.8 -2.98993 0.205802 0
M  V30 27177 H 2439.36 -1.59865 0.255895 0
M  V30 27178 H 2441.36 -3.32803 -2.3027 0
M  V30 27179 H 2439.93 -2.27813 -2.14057 0
M  V30 27180 H 2439.15 -3.93171 -0.284667 0
M  V30 27181 H 2440.43 -5.0195 -0.832085 0
M  V30 27182 H 2439.83 -4.11488 -3.88193 0
M  V30 27183 H 2438.39 -4.99666 -4.18542 0
M  V30 27184 N 2441.82 -0.15856 -1.568 0
M  V30 27185 C 2443.07 0.489645 -1.96491 0
M  V30 27186 C 2443.4 1.64108 -1.04397 0
M  V30 27187 O 2442.65 1.95554 -0.0754745 0
M  V30 27188 C 2442.95 1.02617 -3.42351 0
M  V30 27189 C 2442.62 -0.00802452 -4.50899 0
M  V30 27190 C 2441.28 -0.292292 -4.80311 0
M  V30 27191 C 2443.63 -0.710675 -5.16332 0
M  V30 27192 C 2440.96 -1.28482 -5.72459 0
M  V30 27193 C 2443.31 -1.6921 -6.0955 0
M  V30 27194 C 2441.97 -1.98394 -6.37335 0
M  V30 27195 H 2441.24 0.179174 -0.719012 0
M  V30 27196 H 2443.89 -0.247831 -1.8989 0
M  V30 27197 H 2442.2 1.84122 -3.45842 0
M  V30 27198 H 2443.89 1.53649 -3.70396 0
M  V30 27199 H 2440.48 0.223715 -4.28016 0
M  V30 27200 H 2444.67 -0.504261 -4.93732 0
M  V30 27201 H 2439.92 -1.51725 -5.92275 0
M  V30 27202 H 2444.1 -2.242 -6.59323 0
M  V30 27203 H 2441.72 -2.75453 -7.08541 0
M  V30 27204 N 2443.3 1.57178 0.115204 0
M  V30 27205 C 2444.21 2.0392 1.1599 0
M  V30 27206 C 2445.23 0.960293 1.45101 0
M  V30 27207 O 2446.4 1.27207 1.56142 0
M  V30 27208 C 2443.47 2.43736 2.46563 0
M  V30 27209 C 2442.53 3.65727 2.24815 0
M  V30 27210 C 2441.76 4.03635 3.49163 0
M  V30 27211 O 2441.98 3.41843 4.56617 0
M  V30 27212 O 2440.92 4.96714 3.3994 0
M  V30 27213 H 2444.74 2.93165 0.792968 0
M  V30 27214 H 2442.33 1.45794 0.326274 0
M  V30 27215 H 2444.21 2.70063 3.23487 0
M  V30 27216 H 2442.89 1.57636 2.82723 0
M  V30 27217 H 2441.79 3.44545 1.45738 0
M  V30 27218 H 2443.13 4.52544 1.93558 0
M  V30 27219 N 2444.78 -0.38549 1.52813 0
M  V30 27220 C 2446.01 -1.1513 1.71909 0
M  V30 27221 C 2446.42 -1.83624 0.439036 0
M  V30 27222 O 2445.78 -1.72811 -0.586734 0
M  V30 27223 C 2445.83 -2.19668 2.87103 0
M  V30 27224 O 2445.55 -1.53965 4.10154 0
M  V30 27225 C 2447.05 -3.08949 3.17908 0
M  V30 27226 H 2444.27 -0.345047 0.575485 0
M  V30 27227 H 2446.81 -0.450485 1.99477 0
M  V30 27228 H 2444.97 -2.85379 2.61987 0
M  V30 27229 H 2445.38 -2.23456 4.74518 0
M  V30 27230 H 2446.86 -3.78323 4.01965 0
M  V30 27231 H 2447.33 -3.72653 2.32436 0
M  V30 27232 H 2447.94 -2.48879 3.44876 0
M  V30 27233 N 2446.26 -1.43835 -0.644143 0
M  V30 27234 C 2447.19 -1.45672 -1.76953 0
M  V30 27235 C 2448.2 -0.351694 -1.58956 0
M  V30 27236 O 2449.39 -0.616673 -1.67509 0
M  V30 27237 C 2446.49 -1.26254 -3.14505 0
M  V30 27238 C 2445.66 -2.49763 -3.59078 0
M  V30 27239 C 2444.72 -2.25435 -4.75463 0
M  V30 27240 O 2443.75 -2.98844 -4.84438 0
M  V30 27241 N 2444.95 -1.27671 -5.66287 0
M  V30 27242 H 2447.71 -2.42685 -1.75852 0
M  V30 27243 H 2445.28 -1.39108 -0.828288 0
M  V30 27244 H 2447.27 -1.07847 -3.90066 0
M  V30 27245 H 2445.84 -0.376532 -3.10324 0
M  V30 27246 H 2445.06 -2.83535 -2.73865 0
M  V30 27247 H 2446.35 -3.3194 -3.85607 0
M  V30 27248 H 2445.74 -0.670163 -5.61716 0
M  V30 27249 H 2444.3 -1.15245 -6.41531 0
M  V30 27250 N 2447.73 0.883355 -1.30517 0
M  V30 27251 C 2448.68 1.98925 -1.17036 0
M  V30 27252 C 2449.65 1.65994 -0.0594533 0
M  V30 27253 O 2450.84 1.8941 -0.229929 0
M  V30 27254 C 2447.98 3.33958 -0.869835 0
M  V30 27255 C 2447.09 3.7957 -2.06278 0
M  V30 27256 C 2446.22 5.03256 -1.7002 0
M  V30 27257 C 2445.26 5.41281 -2.858 0
M  V30 27258 N 2444.4 6.56148 -2.49828 0
M  V30 27259 H 2449.24 2.09788 -2.11644 0
M  V30 27260 H 2446.78 1.02717 -1.05297 0
M  V30 27261 H 2448.73 4.11683 -0.676211 0
M  V30 27262 H 2447.36 3.22776 0.0393764 0
M  V30 27263 H 2446.42 2.9774 -2.3676 0
M  V30 27264 H 2447.73 4.03689 -2.92979 0
M  V30 27265 H 2446.88 5.88612 -1.47042 0
M  V30 27266 H 2445.62 4.81012 -0.804913 0
M  V30 27267 H 2444.63 4.54451 -3.09442 0
M  V30 27268 H 2445.85 5.65497 -3.76018 0
M  V30 27269 H 2443.8 6.35476 -1.62806 0
M  V30 27270 H 2443.71 6.80145 -3.3006 0
M  V30 27271 H 2444.98 7.44731 -2.3021 0
M  V30 27272 N 2449.21 1.13259 1.09591 0
M  V30 27273 C 2450.14 0.830984 2.18213 0
M  V30 27274 C 2451.12 -0.208936 1.68812 0
M  V30 27275 O 2452.31 -0.0682324 1.9408 0
M  V30 27276 C 2449.44 0.294357 3.4605 0
M  V30 27277 C 2448.39 1.26833 4.08775 0
M  V30 27278 C 2447.72 0.591542 5.31418 0
M  V30 27279 C 2449.02 2.62623 4.51472 0
M  V30 27280 H 2450.71 1.73927 2.437 0
M  V30 27281 H 2448.26 0.837695 1.17127 0
M  V30 27282 H 2450.21 0.0710347 4.2134 0
M  V30 27283 H 2448.93 -0.64931 3.20081 0
M  V30 27284 H 2447.59 1.47762 3.35503 0
M  V30 27285 H 2447.24 -0.357544 5.01728 0
M  V30 27286 H 2446.94 1.24133 5.74339 0
M  V30 27287 H 2448.47 0.377462 6.09432 0
M  V30 27288 H 2449.88 2.45672 5.17994 0
M  V30 27289 H 2448.28 3.23761 5.05271 0
M  V30 27290 H 2449.35 3.20412 3.63956 0
M  V30 27291 N 2450.69 -1.27539 0.925834 0
M  V30 27292 C 2451.64 -2.28887 0.413937 0
M  V30 27293 C 2452.63 -1.6183 -0.50075 0
M  V30 27294 O 2453.84 -1.75929 -0.380659 0
M  V30 27295 H 2450.21 -0.74311 0.115287 0
M  V30 27296 H 2452.18 -2.69478 1.28156 0
M  V30 27297 C 2450.93 -3.46227 -0.319731 0
M  V30 27298 H 2450.26 -3.98038 0.374916 0
M  V30 27299 H 2451.7 -4.19106 -0.642362 0
M  V30 27300 C 2450.15 -3.0005 -1.53204 0
M  V30 27301 O 2450.68 -3.03562 -2.63084 0
M  V30 27302 N 2448.89 -2.55569 -1.38322 0
M  V30 27303 H 2448.44 -2.52911 -0.489248 0
M  V30 27304 H 2448.4 -2.25035 -2.1956 0
M  V30 27305 N 2452.17 -0.691135 -1.41637 0
M  V30 27306 C 2453.1 -0.037289 -2.3347 0
M  V30 27307 C 2454.08 0.771921 -1.51576 0
M  V30 27308 O 2455.26 0.725788 -1.80128 0
M  V30 27309 C 2452.39 0.903005 -3.35355 0
M  V30 27310 C 2451.35 0.201213 -4.27527 0
M  V30 27311 C 2450.67 1.25556 -5.1975 0
M  V30 27312 C 2451.97 -0.92978 -5.13958 0
M  V30 27313 H 2453.67 -0.804278 -2.88395 0
M  V30 27314 H 2451.21 -0.388214 -1.38668 0
M  V30 27315 H 2453.17 1.36962 -3.98521 0
M  V30 27316 H 2451.89 1.70161 -2.7877 0
M  V30 27317 H 2450.55 -0.24533 -3.65778 0
M  V30 27318 H 2450.2 2.04658 -4.59483 0
M  V30 27319 H 2449.9 0.791026 -5.82251 0
M  V30 27320 H 2451.42 1.72278 -5.85792 0
M  V30 27321 H 2452.84 -0.543647 -5.70717 0
M  V30 27322 H 2451.23 -1.32113 -5.85377 0
M  V30 27323 H 2452.3 -1.77141 -4.51386 0
M  V30 27324 N 2453.65 1.51461 -0.435577 0
M  V30 27325 C 2454.56 2.31453 0.38296 0
M  V30 27326 C 2455.57 1.40291 1.02929 0
M  V30 27327 O 2456.75 1.73363 1.02504 0
M  V30 27328 C 2453.81 3.13976 1.47037 0
M  V30 27329 C 2452.87 4.20915 0.844359 0
M  V30 27330 C 2452.11 4.99493 1.87995 0
M  V30 27331 O 2452.33 4.78684 3.10191 0
M  V30 27332 O 2451.26 5.83636 1.47147 0
M  V30 27333 H 2455.09 3.02497 -0.270017 0
M  V30 27334 H 2452.67 1.4808 -0.198156 0
M  V30 27335 H 2454.56 3.65285 2.10107 0
M  V30 27336 H 2453.23 2.45698 2.10746 0
M  V30 27337 H 2452.14 3.73687 0.175663 0
M  V30 27338 H 2453.47 4.91561 0.250782 0
M  V30 27339 N 2455.12 0.166873 1.56714 0
M  V30 27340 C 2456.07 -0.782084 2.19058 0
M  V30 27341 C 2457.07 -1.24077 1.15331 0
M  V30 27342 O 2458.27 -1.20695 1.3354 0
M  V30 27343 H 2454.65 -0.270474 0.701675 0
M  V30 27344 H 2456.62 -0.232269 2.97495 0
M  V30 27345 C 2455.37 -2.00301 2.84209 0
M  V30 27346 H 2454.69 -1.65908 3.63751 0
M  V30 27347 H 2456.13 -2.64598 3.31306 0
M  V30 27348 C 2454.59 -2.82379 1.83749 0
M  V30 27349 O 2455.12 -3.79386 1.32021 0
M  V30 27350 N 2453.33 -2.47305 1.52606 0
M  V30 27351 H 2452.87 -1.68482 1.94863 0
M  V30 27352 H 2452.83 -3.02511 0.856404 0
M  V30 27353 N 2456.6 -1.57237 -0.106866 0
M  V30 27354 C 2457.85 -1.84671 -0.811131 0
M  V30 27355 C 2458.16 -0.754374 -1.80468 0
M  V30 27356 O 2459.37 -0.915484 -2.556 0
M  V30 27357 C 2457.83 -3.27457 -1.49332 0
M  V30 27358 C 2457.43 -4.44732 -0.540139 0
M  V30 27359 C 2459.18 -3.64128 -2.182 0
M  V30 27360 C 2457.09 -5.78548 -1.22624 0
M  V30 27361 H 2456.02 -0.688819 -0.306667 0
M  V30 27362 H 2458.67 -1.83389 -0.0639565 0
M  V30 27363 H 2457.05 -3.23246 -2.28754 0
M  V30 27364 H 2458.22 -4.60266 0.22174 0
M  V30 27365 H 2456.54 -4.16379 0.0422192 0
M  V30 27366 H 2459.13 -4.61381 -2.70244 0
M  V30 27367 H 2459.48 -2.92164 -2.96557 0
M  V30 27368 H 2460.01 -3.70176 -1.45652 0
M  V30 27369 H 2456.75 -6.53713 -0.483717 0
M  V30 27370 H 2456.27 -5.66878 -1.95983 0
M  V30 27371 H 2457.95 -6.22714 -1.75604 0
M  V30 27372 N 2458.08 0.377381 -1.53015 0
M  V30 27373 C 2458.99 1.48571 -1.81559 0
M  V30 27374 C 2460.01 1.59161 -0.70313 0
M  V30 27375 O 2461.18 1.75278 -0.991951 0
M  V30 27376 C 2458.25 2.83975 -1.98895 0
M  V30 27377 C 2457.31 2.83011 -3.22806 0
M  V30 27378 C 2456.54 4.11956 -3.39305 0
M  V30 27379 O 2456.76 5.07515 -2.60354 0
M  V30 27380 O 2455.7 4.18487 -4.32611 0
M  V30 27381 H 2459.52 1.27377 -2.75697 0
M  V30 27382 H 2457.11 0.566349 -1.38249 0
M  V30 27383 H 2458.99 3.64226 -2.11937 0
M  V30 27384 H 2457.67 3.05171 -1.07947 0
M  V30 27385 H 2456.57 2.015 -3.15196 0
M  V30 27386 H 2457.91 2.66768 -4.13637 0
M  V30 27387 N 2459.56 1.44175 0.636506 0
M  V30 27388 C 2460.79 1.50147 1.4235 0
M  V30 27389 C 2461.2 0.124608 1.88388 0
M  V30 27390 O 2460.56 -0.868461 1.60512 0
M  V30 27391 C 2460.61 2.46161 2.6474 0
M  V30 27392 O 2460.33 3.78494 2.20622 0
M  V30 27393 C 2461.83 2.61543 3.57925 0
M  V30 27394 H 2459.05 0.509408 0.436743 0
M  V30 27395 H 2461.6 1.89086 0.7789 0
M  V30 27396 H 2459.75 2.10372 3.25303 0
M  V30 27397 H 2460.16 4.30281 2.99931 0
M  V30 27398 H 2461.64 3.32764 4.40422 0
M  V30 27399 H 2462.12 1.66592 4.06379 0
M  V30 27400 H 2462.72 2.98211 3.03233 0
M  V30 27401 N 2461.04 -0.876421 1.30983 0
M  V30 27402 C 2461.95 -2.01567 1.20033 0
M  V30 27403 C 2462.96 -1.73597 0.11841 0
M  V30 27404 O 2464.14 -1.98595 0.334984 0
M  V30 27405 C 2461.2 -3.34769 0.901696 0
M  V30 27406 C 2460.26 -3.76105 2.06986 0
M  V30 27407 C 2459.5 -5.02951 1.78538 0
M  V30 27408 O 2459.72 -5.65871 0.717396 0
M  V30 27409 O 2458.65 -5.409 2.64028 0
M  V30 27410 H 2462.48 -2.13735 2.15757 0
M  V30 27411 H 2460.07 -1.00373 1.1066 0
M  V30 27412 H 2461.95 -4.14659 0.750718 0
M  V30 27413 H 2460.62 -3.2369 -0.0255572 0
M  V30 27414 H 2459.53 -2.96883 2.27621 0
M  V30 27415 H 2460.86 -3.91801 2.97914 0
M  V30 27416 N 2462.51 -1.13839 -1.08989 0
M  V30 27417 C 2463.46 -0.815385 -2.1784 0
M  V30 27418 C 2464.46 0.204204 -1.68165 0
M  V30 27419 O 2465.66 0.0608988 -1.79897 0
M  V30 27420 H 2462.04 -0.245928 -0.71065 0
M  V30 27421 H 2464.01 -1.74148 -2.42312 0
M  V30 27422 C 2462.76 -0.302675 -3.4638 0
M  V30 27423 H 2462.08 -1.07857 -3.84977 0
M  V30 27424 H 2463.52 -0.115148 -4.23844 0
M  V30 27425 C 2461.98 0.972535 -3.22558 0
M  V30 27426 O 2462.51 2.04748 -3.45603 0
M  V30 27427 N 2460.72 0.905407 -2.76135 0
M  V30 27428 H 2460.26 0.0304968 -2.57582 0
M  V30 27429 H 2460.22 1.75922 -2.60574 0
M  V30 27430 N 2463.99 1.27046 -0.932584 0
M  V30 27431 C 2465.24 1.93438 -0.571385 0
M  V30 27432 C 2465.55 1.74054 0.892436 0
M  V30 27433 O 2466.76 2.34829 1.36263 0
M  V30 27434 C 2465.22 3.46551 -0.971121 0
M  V30 27435 C 2464.82 3.74682 -2.45596 0
M  V30 27436 C 2466.57 4.18995 -0.681406 0
M  V30 27437 C 2464.48 5.21193 -2.79484 0
M  V30 27438 H 2463.41 0.724172 -0.209978 0
M  V30 27439 H 2466.06 1.44261 -1.13406 0
M  V30 27440 H 2464.44 3.94563 -0.337052 0
M  V30 27441 H 2465.61 3.37408 -3.13835 0
M  V30 27442 H 2463.93 3.15451 -2.71808 0
M  V30 27443 H 2466.52 5.26882 -0.911032 0
M  V30 27444 H 2466.87 4.14548 0.381555 0
M  V30 27445 H 2467.4 3.76821 -1.2748 0
M  V30 27446 H 2464.14 5.30735 -3.84709 0
M  V30 27447 H 2463.66 5.59596 -2.159 0
M  V30 27448 H 2465.34 5.89117 -2.67489 0
M  V30 27449 N 2465.47 0.698636 1.41269 0
M  V30 27450 C 2466.89 0.37049 1.5524 0
M  V30 27451 C 2467.09 -1.12228 1.67353 0
M  V30 27452 O 2466.14 -1.90815 1.65366 0
M  V30 27453 C 2467.46 1.1217 2.78995 0
M  V30 27454 C 2469 1.10635 2.92795 0
M  V30 27455 C 2469.48 1.83937 4.19441 0
M  V30 27456 N 2470.97 1.80922 4.26405 0
M  V30 27457 C 2471.7 2.34476 5.23267 0
M  V30 27458 N 2471.2 2.96515 6.26139 0
M  V30 27459 N 2472.99 2.24715 5.15228 0
M  V30 27460 H 2465.14 1.66678 1.31651 0
M  V30 27461 H 2467.41 0.703559 0.635381 0
M  V30 27462 H 2467.11 2.17648 2.76265 0
M  V30 27463 H 2466.99 0.702274 3.70605 0
M  V30 27464 H 2469.37 0.0598232 2.95039 0
M  V30 27465 H 2469.46 1.56486 2.0235 0
M  V30 27466 H 2469.1 2.88571 4.17959 0
M  V30 27467 H 2469.03 1.35518 5.08864 0
M  V30 27468 H 2471.52 1.35693 3.52698 0
M  V30 27469 H 2471.83 3.34939 6.96445 0
M  V30 27470 H 2470.18 3.00594 6.26633 0
M  V30 27471 H 2473.37 1.75918 4.33786 0
M  V30 27472 H 2473.54 2.66755 5.90547 0
M  V30 27473 N 2466.95 -1.51228 0.443603 0
M  V30 27474 C 2467.88 -2.30784 -0.355102 0
M  V30 27475 C 2468.86 -1.3647 -1.01538 0
M  V30 27476 O 2470.04 -1.65391 -1.01782 0
M  V30 27477 C 2467.17 -3.15442 -1.45306 0
M  V30 27478 C 2466.13 -4.18085 -0.915929 0
M  V30 27479 C 2465.45 -4.91303 -2.11011 0
M  V30 27480 C 2466.75 -5.22272 0.053952 0
M  V30 27481 H 2468.45 -2.97803 0.308819 0
M  V30 27482 H 2465.99 -1.43217 0.149963 0
M  V30 27483 H 2467.95 -3.6988 -2.01908 0
M  V30 27484 H 2466.67 -2.46255 -2.14536 0
M  V30 27485 H 2465.33 -3.64707 -0.372081 0
M  V30 27486 H 2464.98 -4.18614 -2.78875 0
M  V30 27487 H 2464.68 -5.60715 -1.75707 0
M  V30 27488 H 2466.2 -5.48567 -2.68155 0
M  V30 27489 H 2467.62 -5.71745 -0.421969 0
M  V30 27490 H 2466.01 -5.99247 0.319881 0
M  V30 27491 H 2467.08 -4.74714 0.988663 0
M  V30 27492 N 2468.43 -0.175182 -1.56623 0
M  V30 27493 C 2469.65 0.474936 -2.01375 0
M  V30 27494 C 2470.07 1.56547 -1.0554 0
M  V30 27495 O 2469.43 1.82411 -0.0568989 0
M  V30 27496 C 2469.48 1.04969 -3.45925 0
M  V30 27497 O 2469.2 0.00268904 -4.381 0
M  V30 27498 C 2470.7 1.77766 -4.06096 0
M  V30 27499 H 2467.92 0.121194 -0.659964 0
M  V30 27500 H 2470.46 -0.278046 -2.02601 0
M  V30 27501 H 2468.62 1.75315 -3.45461 0
M  V30 27502 H 2469.03 0.427589 -5.22754 0
M  V30 27503 H 2470.51 2.13236 -5.09151 0
M  V30 27504 H 2470.98 2.67408 -3.4841 0
M  V30 27505 H 2471.59 1.12052 -4.10274 0
M  V30 27506 N 2469.91 1.57292 0.0985263 0
M  V30 27507 C 2470.84 1.98498 1.14592 0
M  V30 27508 C 2471.85 0.887055 1.36511 0
M  V30 27509 O 2473.04 1.1652 1.35223 0
M  V30 27510 C 2470.14 2.28576 2.50212 0
M  V30 27511 C 2469.31 3.59872 2.48617 0
M  V30 27512 C 2468.37 3.77927 3.66139 0
M  V30 27513 O 2467.4 4.49818 3.48787 0
M  V30 27514 N 2468.6 3.18244 4.85491 0
M  V30 27515 H 2471.36 2.88957 0.795227 0
M  V30 27516 H 2468.93 1.59326 0.287551 0
M  V30 27517 H 2470.92 2.37851 3.27428 0
M  V30 27518 H 2469.49 1.44141 2.77384 0
M  V30 27519 H 2468.71 3.61599 1.56972 0
M  V30 27520 H 2470 4.46134 2.44627 0
M  V30 27521 H 2469.39 2.59842 5.02492 0
M  V30 27522 H 2467.95 3.33009 5.60311 0
M  V30 27523 N 2471.38 -0.369261 1.53213 0
M  V30 27524 C 2472.63 -1.10958 1.68438 0
M  V30 27525 C 2472.95 -1.90569 0.440771 0
M  V30 27526 O 2474.15 -2.67339 0.473493 0
M  V30 27527 C 2472.61 -2.02174 2.97747 0
M  V30 27528 C 2472.22 -1.27892 4.29357 0
M  V30 27529 C 2473.96 -2.76221 3.22339 0
M  V30 27530 C 2471.87 -2.17989 5.49759 0
M  V30 27531 H 2470.8 -0.417929 0.627576 0
M  V30 27532 H 2473.45 -0.370853 1.79713 0
M  V30 27533 H 2471.83 -2.79763 2.80265 0
M  V30 27534 H 2473 -0.553926 4.57459 0
M  V30 27535 H 2471.32 -0.657239 4.1118 0
M  V30 27536 H 2473.92 -3.4385 4.09477 0
M  V30 27537 H 2474.26 -3.41387 2.38244 0
M  V30 27538 H 2474.79 -2.05717 3.40478 0
M  V30 27539 H 2471.53 -1.57406 6.3632 0
M  V30 27540 H 2471.05 -2.88349 5.25942 0
M  V30 27541 H 2472.73 -2.77631 5.84406 0
M  V30 27542 N 2472.86 -1.4451 -0.628851 0
M  V30 27543 C 2473.79 -1.54379 -1.75184 0
M  V30 27544 C 2474.77 -0.396647 -1.65411 0
M  V30 27545 O 2475.96 -0.617063 -1.84136 0
M  V30 27546 C 2473.09 -1.48981 -3.13723 0
M  V30 27547 C 2472.04 -2.62195 -3.38287 0
M  V30 27548 C 2471.37 -2.41849 -4.76879 0
M  V30 27549 C 2472.67 -4.04332 -3.30625 0
M  V30 27550 H 2474.36 -2.48376 -1.67182 0
M  V30 27551 H 2471.91 -1.1954 -0.802888 0
M  V30 27552 H 2473.86 -1.54485 -3.92062 0
M  V30 27553 H 2472.58 -0.515017 -3.22514 0
M  V30 27554 H 2471.24 -2.56084 -2.62329 0
M  V30 27555 H 2470.89 -1.42557 -4.82376 0
M  V30 27556 H 2470.59 -3.17756 -4.94272 0
M  V30 27557 H 2472.12 -2.49174 -5.57445 0
M  V30 27558 H 2473.53 -4.118 -3.98866 0
M  V30 27559 H 2471.93 -4.8046 -3.59553 0
M  V30 27560 H 2473 -4.27742 -2.28397 0
M  V30 27561 N 2474.34 0.869463 -1.31446 0
M  V30 27562 C 2475.29 1.96442 -1.15735 0
M  V30 27563 C 2476.27 1.60755 -0.0682138 0
M  V30 27564 O 2477.47 1.74555 -0.293184 0
M  V30 27565 C 2474.59 3.32163 -0.867313 0
M  V30 27566 C 2473.68 3.74116 -1.99745 0
M  V30 27567 N 2474.07 3.88025 -3.24454 0
M  V30 27568 C 2472.37 4.03632 -1.8973 0
M  V30 27569 C 2473.07 4.23872 -3.98381 0
M  V30 27570 N 2472.05 4.34584 -3.26554 0
M  V30 27571 H 2475.85 2.05308 -2.10299 0
M  V30 27572 H 2473.36 1.06029 -1.23011 0
M  V30 27573 H 2475.36 4.10357 -0.73574 0
M  V30 27574 H 2474.02 3.24624 0.0701043 0
M  V30 27575 H 2475.03 3.72739 -3.59563 0
M  V30 27576 H 2471.71 4.04479 -1.03456 0
M  V30 27577 H 2473.1 4.42226 -5.05852 0
M  V30 27578 N 2475.82 1.14415 1.08383 0
M  V30 27579 C 2476.73 0.84499 2.18854 0
M  V30 27580 C 2477.74 -0.174638 1.73121 0
M  V30 27581 O 2478.92 -0.00309317 2.014 0
M  V30 27582 C 2475.98 0.32702 3.45154 0
M  V30 27583 C 2475.05 1.40923 4.05511 0
M  V30 27584 C 2474.28 0.915885 5.25782 0
M  V30 27585 O 2474.5 -0.242551 5.69884 0
M  V30 27586 O 2473.44 1.69497 5.77542 0
M  V30 27587 H 2477.26 1.76822 2.46916 0
M  V30 27588 H 2474.85 0.922432 1.17523 0
M  V30 27589 H 2476.73 0.0440952 4.21377 0
M  V30 27590 H 2475.4 -0.568483 3.18669 0
M  V30 27591 H 2474.31 1.74562 3.30876 0
M  V30 27592 H 2475.64 2.27927 4.36246 0
M  V30 27593 N 2477.3 -1.26549 0.939309 0
M  V30 27594 C 2478.24 -2.28435 0.43819 0
M  V30 27595 C 2479.24 -1.62352 -0.483558 0
M  V30 27596 O 2480.44 -1.76323 -0.361978 0
M  V30 27597 H 2476.82 -0.741846 0.123162 0
M  V30 27598 H 2478.79 -2.68104 1.31007 0
M  V30 27599 C 2477.54 -3.46546 -0.282991 0
M  V30 27600 H 2476.86 -3.97618 0.417112 0
M  V30 27601 H 2478.3 -4.19764 -0.597874 0
M  V30 27602 C 2476.76 -3.01658 -1.50013 0
M  V30 27603 O 2477.29 -3.06335 -2.5985 0
M  V30 27604 N 2475.5 -2.57022 -1.35603 0
M  V30 27605 H 2475.04 -2.53416 -0.462395 0
M  V30 27606 H 2475 -2.27351 -2.17161 0
M  V30 27607 N 2478.77 -0.706118 -1.40896 0
M  V30 27608 C 2479.7 -0.0620496 -2.33418 0
M  V30 27609 C 2480.68 0.755801 -1.52387 0
M  V30 27610 O 2481.87 0.706642 -1.80887 0
M  V30 27611 C 2479 0.867386 -3.36294 0
M  V30 27612 C 2477.95 0.155857 -4.27716 0
M  V30 27613 C 2477.28 1.20037 -5.21052 0
M  V30 27614 C 2478.58 -0.984239 -5.12943 0
M  V30 27615 H 2480.27 -0.834821 -2.87526 0
M  V30 27616 H 2477.82 -0.4029 -1.38249 0
M  V30 27617 H 2479.77 1.32728 -3.99952 0
M  V30 27618 H 2478.5 1.67194 -2.80559 0
M  V30 27619 H 2477.16 -0.284111 -3.65497 0
M  V30 27620 H 2476.8 1.99773 -4.61627 0
M  V30 27621 H 2476.5 0.729226 -5.83058 0
M  V30 27622 H 2478.03 1.66055 -5.87587 0
M  V30 27623 H 2479.44 -0.604148 -5.70108 0
M  V30 27624 H 2477.84 -1.38314 -5.83943 0
M  V30 27625 H 2478.91 -1.81918 -4.49482 0
M  V30 27626 N 2480.25 1.50991 -0.451617 0
M  V30 27627 C 2481.16 2.31846 0.35839 0
M  V30 27628 C 2482.18 1.41375 1.01435 0
M  V30 27629 O 2483.35 1.74441 1.0066 0
M  V30 27630 C 2480.42 3.15518 1.43699 0
M  V30 27631 C 2479.48 4.21786 0.799668 0
M  V30 27632 C 2478.71 5.01459 1.82687 0
M  V30 27633 O 2478.94 4.81947 3.05096 0
M  V30 27634 O 2477.87 5.85164 1.40948 0
M  V30 27635 H 2481.7 3.02194 -0.302085 0
M  V30 27636 H 2479.28 1.47862 -0.213851 0
M  V30 27637 H 2481.16 3.67493 2.0622 0
M  V30 27638 H 2479.84 2.4792 2.08129 0
M  V30 27639 H 2478.74 3.73853 0.136018 0
M  V30 27640 H 2480.08 4.91799 0.198632 0
M  V30 27641 N 2481.73 0.183486 1.56528 0
M  V30 27642 C 2482.64 -0.754233 2.22145 0
M  V30 27643 C 2483.66 -1.24372 1.21687 0
M  V30 27644 O 2484.83 -1.29331 1.54388 0
M  V30 27645 C 2481.9 -1.96136 2.85887 0
M  V30 27646 C 2480.96 -1.51758 4.01582 0
M  V30 27647 C 2480.19 -2.66717 4.62275 0
M  V30 27648 O 2480.41 -3.83902 4.21872 0
M  V30 27649 O 2479.35 -2.40094 5.5194 0
M  V30 27650 H 2483.17 -0.225473 3.02862 0
M  V30 27651 H 2480.76 -0.045277 1.49331 0
M  V30 27652 H 2482.64 -2.6671 3.26257 0
M  V30 27653 H 2481.32 -2.47895 2.08158 0
M  V30 27654 H 2480.22 -0.780985 3.65857 0
M  V30 27655 H 2481.56 -1.04678 4.8094 0
M  V30 27656 N 2483.21 -1.57342 -0.0901833 0
M  V30 27657 C 2484.14 -1.97666 -1.14032 0
M  V30 27658 C 2485.12 -0.850641 -1.38574 0
M  V30 27659 O 2486.3 -1.11136 -1.52253 0
M  V30 27660 C 2483.43 -2.29764 -2.4885 0
M  V30 27661 C 2482.48 -3.52185 -2.40557 0
M  V30 27662 S 2483.31 -5.03718 -1.81736 0
M  V30 27663 C 2484.46 -5.38998 -3.18169 0
M  V30 27664 H 2484.7 -2.86429 -0.796586 0
M  V30 27665 H 2482.23 -1.51496 -0.298046 0
M  V30 27666 H 2484.19 -2.48933 -3.26409 0
M  V30 27667 H 2482.85 -1.41563 -2.8039 0
M  V30 27668 H 2482.04 -3.72102 -3.39936 0
M  V30 27669 H 2481.64 -3.32552 -1.71129 0
M  V30 27670 H 2483.94 -5.35944 -4.14452 0
M  V30 27671 H 2484.88 -6.39973 -3.03051 0
M  V30 27672 H 2485.29 -4.66458 -3.17927 0
M  V30 27673 N 2484.69 0.36113 -1.53407 0
M  V30 27674 C 2486.1 0.703099 -1.43278 0
M  V30 27675 C 2486.3 1.93109 -0.575418 0
M  V30 27676 O 2485.36 2.5243 -0.0595806 0
M  V30 27677 C 2486.67 0.912149 -2.86532 0
M  V30 27678 C 2488.22 1.01188 -2.96193 0
M  V30 27679 C 2488.69 1.25337 -4.40516 0
M  V30 27680 N 2490.19 1.32097 -4.43965 0
M  V30 27681 C 2490.92 1.525 -5.52749 0
M  V30 27682 N 2490.42 1.70191 -6.7157 0
M  V30 27683 N 2492.21 1.54906 -5.40334 0
M  V30 27684 H 2484.36 -0.446512 -2.07654 0
M  V30 27685 H 2486.62 -0.137731 -0.937941 0
M  V30 27686 H 2486.33 0.0815796 -3.51605 0
M  V30 27687 H 2486.2 1.81897 -3.30444 0
M  V30 27688 H 2488.59 1.83299 -2.3127 0
M  V30 27689 H 2488.67 0.0823479 -2.55667 0
M  V30 27690 H 2488.32 0.437257 -5.06014 0
M  V30 27691 H 2488.25 2.19619 -4.78618 0
M  V30 27692 H 2490.74 1.20021 -3.58334 0
M  V30 27693 H 2491.05 1.85346 -7.50244 0
M  V30 27694 H 2489.39 1.67361 -6.74548 0
M  V30 27695 H 2492.59 1.40656 -4.46468 0
M  V30 27696 H 2492.76 1.70466 -6.25176 0
M  V30 27697 N 2486.16 1.44842 0.621179 0
M  V30 27698 C 2487.39 1.51874 1.41242 0
M  V30 27699 C 2487.81 0.147797 1.87518 0
M  V30 27700 O 2487.17 -0.864972 1.59336 0
M  V30 27701 C 2487.22 2.49639 2.60217 0
M  V30 27702 O 2486.32 2.0048 3.60391 0
M  V30 27703 H 2485.67 0.51247 0.422221 0
M  V30 27704 H 2488.2 1.9007 0.757272 0
M  V30 27705 H 2488.21 2.68001 3.07635 0
M  V30 27706 H 2486.88 3.49214 2.25881 0
M  V30 27707 H 2485.46 1.91931 3.19714 0
M  V30 27708 N 2487.64 -0.862479 1.31905 0
M  V30 27709 C 2488.89 -1.61849 1.222 0
M  V30 27710 C 2489.22 -1.92977 -0.217607 0
M  V30 27711 O 2488.5 -1.56668 -1.15262 0
M  V30 27712 C 2488.78 -2.94388 2.07384 0
M  V30 27713 C 2488.63 -2.7009 3.59682 0
M  V30 27714 C 2489.95 -3.95574 1.92898 0
M  V30 27715 H 2487.07 -0.587288 0.445266 0
M  V30 27716 H 2489.71 -0.996481 1.61772 0
M  V30 27717 H 2487.86 -3.47474 1.73765 0
M  V30 27718 H 2489.53 -2.23618 4.03476 0
M  V30 27719 H 2487.78 -2.0419 3.82739 0
M  V30 27720 H 2488.45 -3.6443 4.14602 0
M  V30 27721 H 2490.92 -3.5172 2.22333 0
M  V30 27722 H 2489.8 -4.86183 2.5479 0
M  V30 27723 H 2490.06 -4.32958 0.894391 0
M  V30 27724 N 2489.12 -1.14988 -1.07775 0
M  V30 27725 C 2490.35 -0.945805 -1.84017 0
M  V30 27726 C 2490.76 0.505831 -1.81898 0
M  V30 27727 O 2490.12 1.3507 -1.22729 0
M  V30 27728 C 2490.17 -1.44683 -3.31284 0
M  V30 27729 O 2489.89 -2.8416 -3.33444 0
M  V30 27730 C 2491.39 -1.28362 -4.24309 0
M  V30 27731 H 2488.61 -0.336179 -0.580711 0
M  V30 27732 H 2491.16 -1.52657 -1.36074 0
M  V30 27733 H 2489.31 -0.908691 -3.76592 0
M  V30 27734 H 2489.73 -3.06785 -4.25422 0
M  V30 27735 H 2491.2 -1.6827 -5.25727 0
M  V30 27736 H 2491.68 -0.227261 -4.38612 0
M  V30 27737 H 2492.28 -1.81063 -3.84833 0
M  V30 27738 N 2490.6 1.26049 -0.946007 0
M  V30 27739 C 2491.55 2.26207 -0.45813 0
M  V30 27740 C 2492.52 1.58868 0.484788 0
M  V30 27741 O 2493.7 1.86561 0.399936 0
M  V30 27742 C 2490.84 3.44073 0.266071 0
M  V30 27743 C 2489.95 4.26074 -0.71308 0
M  V30 27744 C 2489.09 5.3119 0.032808 0
M  V30 27745 C 2488.13 6.04873 -0.937846 0
M  V30 27746 N 2487.26 7.01745 -0.223397 0
M  V30 27747 H 2492.1 2.67311 -1.31715 0
M  V30 27748 H 2489.64 1.31427 -0.660713 0
M  V30 27749 H 2491.6 4.11244 0.702441 0
M  V30 27750 H 2490.23 3.03869 1.0892 0
M  V30 27751 H 2489.28 3.58646 -1.26795 0
M  V30 27752 H 2490.59 4.77133 -1.45414 0
M  V30 27753 H 2489.75 6.04396 0.528229 0
M  V30 27754 H 2488.49 4.80982 0.806717 0
M  V30 27755 H 2487.49 5.30489 -1.44435 0
M  V30 27756 H 2488.72 6.5717 -1.71184 0
M  V30 27757 H 2486.66 6.5384 0.531931 0
M  V30 27758 H 2486.58 7.50579 -0.903701 0
M  V30 27759 H 2487.85 7.79097 0.250771 0
M  V30 27760 N 2492.08 0.71358 1.4052 0
M  V30 27761 C 2492.99 0.0607079 2.34521 0
M  V30 27762 C 2494 -0.746043 1.57195 0
M  V30 27763 O 2495.18 -0.67946 1.89592 0
M  V30 27764 C 2492.24 -0.851432 3.36083 0
M  V30 27765 C 2491.3 -0.0348584 4.29286 0
M  V30 27766 C 2490.54 -0.903557 5.25996 0
M  V30 27767 O 2490.76 -2.14282 5.2862 0
M  V30 27768 O 2489.69 -0.343618 6.00918 0
M  V30 27769 H 2493.52 0.836023 2.91966 0
M  V30 27770 H 2491.11 0.474045 1.4168 0
M  V30 27771 H 2492.99 -1.37397 3.98372 0
M  V30 27772 H 2491.66 -1.60593 2.81055 0
M  V30 27773 H 2490.57 0.532698 3.70288 0
M  V30 27774 H 2491.9 0.681372 4.87461 0
M  V30 27775 N 2493.55 -1.50749 0.459618 0
M  V30 27776 C 2494.97 -1.59199 0.11312 0
M  V30 27777 C 2495.17 -1.46876 -1.37948 0
M  V30 27778 O 2494.23 -1.32136 -2.15166 0
M  V30 27779 C 2495.54 -2.93522 0.653095 0
M  V30 27780 C 2497.09 -3.06889 0.615503 0
M  V30 27781 C 2497.56 -4.43769 1.13283 0
M  V30 27782 N 2499.05 -4.5015 1.09175 0
M  V30 27783 C 2499.79 -5.54431 1.46266 0
M  V30 27784 N 2499.28 -6.66022 1.90751 0
M  V30 27785 N 2501.08 -5.44911 1.37942 0
M  V30 27786 H 2493.23 -1.57003 1.43052 0
M  V30 27787 H 2495.49 -0.741331 0.590874 0
M  V30 27788 H 2495.2 -3.0798 1.69828 0
M  V30 27789 H 2495.07 -3.77092 0.0902795 0
M  V30 27790 H 2497.46 -2.92085 -0.420742 0
M  V30 27791 H 2497.54 -2.25104 1.21499 0
M  V30 27792 H 2497.18 -4.59321 2.16765 0
M  V30 27793 H 2497.11 -5.24128 0.509668 0
M  V30 27794 H 2499.6 -3.70069 0.765345 0
M  V30 27795 H 2499.92 -7.4164 2.17231 0
M  V30 27796 H 2498.26 -6.67172 1.94695 0
M  V30 27797 H 2501.45 -4.56619 1.03038 0
M  V30 27798 H 2501.63 -6.26064 1.67175 0
M  V30 27799 N 2495.03 -0.191784 -1.56429 0
M  V30 27800 C 2496.31 0.495298 -1.89225 0
M  V30 27801 C 2496.69 1.79881 -1.10481 0
M  V30 27802 O 2496.04 2.2758 -0.204892 0
M  V30 27803 C 2496.25 0.717307 -3.41549 0
M  V30 27804 C 2497.6 1.03816 -4.11713 0
M  V30 27805 O 2498.62 0.805143 -3.46981 0
M  V30 27806 O 2497.48 1.47878 -5.26112 0
M  V30 27807 H 2494.57 0.257796 -0.785793 0
M  V30 27808 H 2497.12 -0.23175 -1.6811 0
M  V30 27809 H 2495.89 -0.203356 -3.90771 0
M  V30 27810 H 2495.51 1.49693 -3.68344 0
M  V30 27811 N 2496.51 1.57387 0.0818378 0
M  V30 27812 C 2497.79 1.77798 0.815312 0
M  V30 27813 C 2498.17 0.776825 1.96287 0
M  V30 27814 O 2497.52 -0.192066 2.27691 0
M  V30 27815 C 2497.73 3.23981 1.29759 0
M  V30 27816 C 2499.07 3.87533 1.73504 0
M  V30 27817 O 2500.1 3.27811 1.39351 0
M  V30 27818 O 2498.96 4.9258 2.367 0
M  V30 27819 H 2496.05 0.729319 0.389901 0
M  V30 27820 H 2498.6 1.69584 0.0626915 0
M  V30 27821 H 2497.37 3.88394 0.476012 0
M  V30 27822 H 2496.99 3.36879 2.11183 0
M  V30 27823 N 2497.99 -0.35299 1.53596 0
M  V30 27824 C 2498.92 -1.4388 1.83904 0
M  V30 27825 C 2499.9 -1.55323 0.693448 0
M  V30 27826 O 2501.08 -1.69686 0.944482 0
M  V30 27827 C 2498.21 -2.81057 2.04021 0
M  V30 27828 C 2497.17 -2.84428 3.19819 0
M  V30 27829 C 2496.49 -4.244 3.25252 0
M  V30 27830 C 2497.79 -2.50814 4.58137 0
M  V30 27831 H 2499.49 -1.18765 2.74837 0
M  V30 27832 H 2497.03 -0.569894 1.32243 0
M  V30 27833 H 2498.99 -3.57055 2.23807 0
M  V30 27834 H 2497.71 -3.07586 1.0981 0
M  V30 27835 H 2496.37 -2.10882 2.99874 0
M  V30 27836 H 2496.02 -4.48025 2.28654 0
M  V30 27837 H 2495.72 -4.27569 4.03061 0
M  V30 27838 H 2497.24 -5.02254 3.47237 0
M  V30 27839 H 2498.66 -3.16526 4.78001 0
M  V30 27840 H 2497.05 -2.65281 5.38281 0
M  V30 27841 H 2498.12 -1.46026 4.6239 0
M  V30 27842 N 2499.47 -1.45169 -0.613489 0
M  V30 27843 C 2500.88 -1.29445 -0.933606 0
M  V30 27844 C 2501.08 -0.243137 -2.00028 0
M  V30 27845 O 2500.14 0.364948 -2.49849 0
M  V30 27846 C 2501.45 -2.67157 -1.38013 0
M  V30 27847 C 2503 -2.75007 -1.49466 0
M  V30 27848 C 2503.48 -4.1323 -1.97496 0
M  V30 27849 N 2504.97 -4.15495 -2.04739 0
M  V30 27850 C 2505.7 -5.19311 -2.43112 0
M  V30 27851 N 2505.2 -6.33478 -2.80495 0
M  V30 27852 N 2506.99 -5.06669 -2.43399 0
M  V30 27853 H 2499.14 -2.12202 0.091647 0
M  V30 27854 H 2501.4 -0.947753 -0.0216488 0
M  V30 27855 H 2501.11 -3.45248 -0.670564 0
M  V30 27856 H 2500.98 -2.95226 -2.34779 0
M  V30 27857 H 2503.37 -1.97223 -2.19515 0
M  V30 27858 H 2503.45 -2.50658 -0.510298 0
M  V30 27859 H 2503.1 -4.91497 -1.28036 0
M  V30 27860 H 2503.03 -4.34967 -2.96836 0
M  V30 27861 H 2505.52 -3.33106 -1.78462 0
M  V30 27862 H 2505.83 -7.08492 -3.08639 0
M  V30 27863 H 2504.18 -6.36889 -2.78205 0
M  V30 27864 H 2507.37 -4.16526 -2.13596 0
M  V30 27865 H 2507.54 -5.87696 -2.72979 0
M  V30 27866 N 2500.95 0.855472 -1.32361 0
M  V30 27867 C 2502.17 1.64729 -1.26013 0
M  V30 27868 C 2502.6 1.87339 0.169035 0
M  V30 27869 O 2501.95 1.42558 1.12013 0
M  V30 27870 C 2502 2.98425 -2.02422 0
M  V30 27871 O 2501.11 3.88927 -1.37147 0
M  V30 27872 H 2500.45 0.502245 -0.434334 0
M  V30 27873 H 2502.98 1.06555 -1.74663 0
M  V30 27874 H 2502.99 3.48253 -2.12565 0
M  V30 27875 H 2501.66 2.8129 -3.06348 0
M  V30 27876 H 2500.24 3.47393 -1.35546 0
M  V30 27877 N 2502.42 1.15558 1.07164 0
M  V30 27878 C 2503.67 0.933016 1.80063 0
M  V30 27879 C 2504 -0.538417 1.86587 0
M  V30 27880 O 2503.28 -1.39922 1.351 0
M  V30 27881 C 2503.56 1.55031 3.25019 0
M  V30 27882 C 2503.41 3.09247 3.26628 0
M  V30 27883 C 2504.73 1.23767 4.22338 0
M  V30 27884 H 2501.85 0.340377 0.653691 0
M  V30 27885 H 2504.49 1.42752 1.25387 0
M  V30 27886 H 2502.64 1.12979 3.7171 0
M  V30 27887 H 2504.32 3.60219 2.88166 0
M  V30 27888 H 2502.56 3.43037 2.65533 0
M  V30 27889 H 2503.23 3.47553 4.28848 0
M  V30 27890 H 2505.71 1.60146 3.84048 0
M  V30 27891 H 2504.58 1.69573 5.2205 0
M  V30 27892 H 2504.84 0.155016 4.41828 0
M  V30 27893 N 2503.9 -1.25546 0.952678 0
M  V30 27894 C 2504.81 -2.29682 0.47786 0
M  V30 27895 C 2505.83 -1.67977 -0.453829 0
M  V30 27896 O 2507 -1.98669 -0.330552 0
M  V30 27897 C 2504.07 -3.45878 -0.238594 0
M  V30 27898 C 2503.13 -4.23029 0.731068 0
M  V30 27899 C 2502.36 -5.33678 0.0487103 0
M  V30 27900 O 2502.59 -5.58355 -1.16602 0
M  V30 27901 O 2501.52 -5.97417 0.733257 0
M  V30 27902 H 2505.35 -2.72383 1.34317 0
M  V30 27903 H 2502.93 -1.30958 0.719049 0
M  V30 27904 H 2504.81 -4.16485 -0.6417 0
M  V30 27905 H 2503.49 -3.05183 -1.07911 0
M  V30 27906 H 2502.39 -3.54858 1.18434 0
M  V30 27907 H 2503.73 -4.67503 1.53954 0
M  V30 27908 N 2505.38 -0.721022 -1.40139 0
M  V30 27909 C 2506.29 -0.0731443 -2.34486 0
M  V30 27910 C 2507.31 0.737696 -1.57588 0
M  V30 27911 O 2508.48 0.669396 -1.8995 0
M  V30 27912 C 2505.55 0.833597 -3.36529 0
M  V30 27913 C 2504.61 0.0120918 -4.29298 0
M  V30 27914 C 2503.84 0.875649 -5.26468 0
M  V30 27915 O 2504.06 2.11476 -5.29749 0
M  V30 27916 O 2503 0.311745 -6.01092 0
M  V30 27917 H 2506.82 -0.851495 -2.91519 0
M  V30 27918 H 2504.41 -0.481552 -1.41426 0
M  V30 27919 H 2506.29 1.35282 -3.99095 0
M  V30 27920 H 2504.97 1.591 -2.81902 0
M  V30 27921 H 2503.87 -0.552327 -3.7 0
M  V30 27922 H 2505.21 -0.707214 -4.87093 0
M  V30 27923 N 2506.86 1.50503 -0.467606 0
M  V30 27924 C 2508.09 2.0672 0.086377 0
M  V30 27925 C 2508.5 1.33186 1.33817 0
M  V30 27926 O 2507.86 0.400114 1.7806 0
M  V30 27927 C 2507.91 3.59518 0.378016 0
M  V30 27928 O 2507.63 4.30279 -0.82412 0
M  V30 27929 C 2509.13 4.32347 0.97935 0
M  V30 27930 H 2506.35 0.670977 -0.00552876 0
M  V30 27931 H 2508.89 1.93713 -0.655388 0
M  V30 27932 H 2507.05 3.72339 1.06971 0
M  V30 27933 H 2507.46 5.21431 -0.566609 0
M  V30 27934 H 2508.94 5.40243 1.1332 0
M  V30 27935 H 2509.41 3.92614 1.96853 0
M  V30 27936 H 2510.02 4.24048 0.326141 0
M  V30 27937 N 2508.34 0.200077 1.56325 0
M  V30 27938 C 2509.27 -0.713877 2.2232 0
M  V30 27939 C 2510.25 -1.2175 1.1879 0
M  V30 27940 O 2511.43 -1.26543 1.47311 0
M  V30 27941 C 2508.56 -1.93139 2.88643 0
M  V30 27942 C 2507.52 -1.56248 3.9846 0
M  V30 27943 C 2506.84 -2.85701 4.51972 0
M  V30 27944 C 2508.14 -0.768656 5.16613 0
M  V30 27945 H 2509.84 -0.163702 2.98952 0
M  V30 27946 H 2507.38 -0.0772966 1.43792 0
M  V30 27947 H 2509.33 -2.57602 3.33495 0
M  V30 27948 H 2508.06 -2.50618 2.09424 0
M  V30 27949 H 2506.72 -0.941409 3.54306 0
M  V30 27950 H 2506.37 -3.4128 3.69509 0
M  V30 27951 H 2506.07 -2.61761 5.26075 0
M  V30 27952 H 2507.59 -3.51145 4.99529 0
M  V30 27953 H 2509 -1.3165 5.57979 0
M  V30 27954 H 2507.4 -0.627181 5.96814 0
M  V30 27955 H 2508.47 0.229253 4.84358 0
M  V30 27956 N 2509.81 -1.57429 -0.0734901 0
M  V30 27957 C 2510.76 -2.03572 -1.08752 0
M  V30 27958 C 2511.73 -0.916024 -1.38558 0
M  V30 27959 O 2512.92 -1.18357 -1.49654 0
M  V30 27960 C 2510.06 -2.48315 -2.39653 0
M  V30 27961 C 2509.17 -3.73896 -2.16392 0
M  V30 27962 C 2508.3 -4.07429 -3.40845 0
M  V30 27963 C 2507.34 -5.26056 -3.12941 0
M  V30 27964 N 2506.48 -5.55235 -4.29719 0
M  V30 27965 H 2511.32 -2.89972 -0.687053 0
M  V30 27966 H 2508.86 -1.43404 -0.327684 0
M  V30 27967 H 2510.81 -2.72308 -3.16076 0
M  V30 27968 H 2509.44 -1.64896 -2.77505 0
M  V30 27969 H 2508.5 -3.57253 -1.3067 0
M  V30 27970 H 2509.81 -4.60458 -1.9178 0
M  V30 27971 H 2508.96 -4.32314 -4.25664 0
M  V30 27972 H 2507.7 -3.19431 -3.68531 0
M  V30 27973 H 2506.71 -5.00969 -2.26517 0
M  V30 27974 H 2507.93 -6.1567 -2.86579 0
M  V30 27975 H 2505.88 -4.70196 -4.5744 0
M  V30 27976 H 2505.79 -6.36213 -4.08374 0
M  V30 27977 H 2507.06 -5.8467 -5.1554 0
M  V30 27978 N 2511.29 0.344839 -1.53781 0
M  V30 27979 C 2512.54 1.08684 -1.71218 0
M  V30 27980 C 2512.87 1.88344 -0.473314 0
M  V30 27981 O 2512.15 1.8715 0.529647 0
M  V30 27982 C 2512.43 2.02909 -2.97489 0
M  V30 27983 C 2512.28 1.2672 -4.31581 0
M  V30 27984 C 2513.6 3.02745 -3.19427 0
M  V30 27985 H 2510.72 0.393724 -0.623017 0
M  V30 27986 H 2513.36 0.36553 -1.86451 0
M  V30 27987 H 2511.51 2.64416 -2.84634 0
M  V30 27988 H 2513.18 0.67837 -4.56285 0
M  V30 27989 H 2511.43 0.569197 -4.3005 0
M  V30 27990 H 2512.1 1.95793 -5.16109 0
M  V30 27991 H 2514.57 2.51351 -3.31605 0
M  V30 27992 H 2513.45 3.65878 -4.09176 0
M  V30 27993 H 2513.71 3.74053 -2.35663 0
M  V30 27994 N 2512.77 1.45492 0.605781 0
M  V30 27995 C 2513.68 1.56843 1.74464 0
M  V30 27996 C 2514.7 0.452802 1.68005 0
M  V30 27997 O 2515.87 0.713741 1.88329 0
M  V30 27998 C 2512.94 1.53376 3.10929 0
M  V30 27999 C 2512 2.75991 3.28827 0
M  V30 28000 C 2511.23 2.72681 4.58782 0
M  V30 28001 O 2511.45 1.80112 5.41217 0
M  V30 28002 O 2510.39 3.63908 4.79432 0
M  V30 28003 H 2514.21 2.53109 1.67838 0
M  V30 28004 H 2511.8 1.28024 0.770085 0
M  V30 28005 H 2513.68 1.54058 3.9223 0
M  V30 28006 H 2512.36 0.602628 3.18041 0
M  V30 28007 H 2511.26 2.80872 2.47107 0
M  V30 28008 H 2512.6 3.68237 3.26592 0
M  V30 28009 N 2514.25 -0.848441 1.32813 0
M  V30 28010 C 2515.66 -1.13762 1.11939 0
M  V30 28011 C 2515.86 -2.01271 -0.0960435 0
M  V30 28012 O 2514.92 -2.40179 -0.779123 0
M  V30 28013 C 2516.23 -1.80895 2.40203 0
M  V30 28014 C 2517.78 -1.93504 2.46019 0
M  V30 28015 C 2518.26 -2.64052 3.7422 0
M  V30 28016 N 2519.75 -2.71572 3.75237 0
M  V30 28017 C 2520.48 -3.26825 4.7114 0
M  V30 28018 N 2519.98 -3.8284 5.77413 0
M  V30 28019 N 2521.77 -3.24987 4.58628 0
M  V30 28020 H 2513.92 -0.265818 2.1073 0
M  V30 28021 H 2516.19 -0.180415 0.930674 0
M  V30 28022 H 2515.89 -1.24052 3.29096 0
M  V30 28023 H 2515.77 -2.81 2.51632 0
M  V30 28024 H 2518.15 -2.49504 1.57582 0
M  V30 28025 H 2518.23 -0.923769 2.38538 0
M  V30 28026 H 2517.88 -2.08714 4.63035 0
M  V30 28027 H 2517.81 -3.6563 3.78975 0
M  V30 28028 H 2520.3 -2.3184 2.98427 0
M  V30 28029 H 2520.61 -4.23176 6.46639 0
M  V30 28030 H 2518.96 -3.81155 5.81159 0
M  V30 28031 H 2522.15 -2.80477 3.74767 0
M  V30 28032 H 2522.32 -3.67747 5.33541 0
M  V30 28033 N 2515.73 -1.16125 -1.06549 0
M  V30 28034 C 2517 -0.851451 -1.76096 0
M  V30 28035 C 2517.38 0.651264 -2.00803 0
M  V30 28036 O 2516.73 1.59824 -1.63305 0
M  V30 28037 C 2516.94 -1.67128 -3.06381 0
M  V30 28038 C 2518.29 -1.88262 -3.80582 0
M  V30 28039 O 2519.31 -1.63972 -3.16215 0
M  V30 28040 O 2518.17 -2.28999 -4.96208 0
M  V30 28041 H 2515.27 -0.313937 -0.765096 0
M  V30 28042 H 2517.81 -1.26747 -1.12841 0
M  V30 28043 H 2516.58 -2.69113 -2.84066 0
M  V30 28044 H 2516.21 -1.25213 -3.77369 0
M  V30 28045 N 2517.2 1.25039 -0.959323 0
M  V30 28046 C 2518.14 2.24926 -0.440583 0
M  V30 28047 C 2519.15 1.56569 0.446103 0
M  V30 28048 O 2520.34 1.76689 0.253626 0
M  V30 28049 C 2517.44 3.36717 0.384061 0
M  V30 28050 C 2516.61 4.34638 -0.490735 0
M  V30 28051 C 2515.67 5.25473 0.276494 0
M  V30 28052 O 2514.7 5.68262 -0.326714 0
M  V30 28053 N 2515.9 5.58913 1.56834 0
M  V30 28054 H 2518.66 2.70068 -1.29935 0
M  V30 28055 H 2516.22 1.38994 -0.830205 0
M  V30 28056 H 2518.22 3.94448 0.905159 0
M  V30 28057 H 2516.79 2.90926 1.14372 0
M  V30 28058 H 2516.01 3.75718 -1.19289 0
M  V30 28059 H 2517.29 4.97039 -1.08765 0
M  V30 28060 H 2516.69 5.26062 2.08026 0
M  V30 28061 H 2515.25 6.19208 2.0353 0
M  V30 28062 N 2518.68 0.728444 1.39755 0
M  V30 28063 C 2519.61 0.0991764 2.33289 0
M  V30 28064 C 2520.59 -0.731462 1.5357 0
M  V30 28065 O 2521.78 -0.677775 1.81989 0
M  V30 28066 C 2518.91 -0.813774 3.37631 0
M  V30 28067 C 2517.86 -0.0877911 4.2791 0
M  V30 28068 C 2517.19 -1.11732 5.22896 0
M  V30 28069 C 2518.49 1.06572 5.11312 0
M  V30 28070 H 2520.18 0.880458 2.86161 0
M  V30 28071 H 2517.73 0.424843 1.3759 0
M  V30 28072 H 2519.68 -1.26348 4.02013 0
M  V30 28073 H 2518.41 -1.6271 2.83184 0
M  V30 28074 H 2517.06 0.342223 3.64999 0
M  V30 28075 H 2516.71 -1.92403 4.64747 0
M  V30 28076 H 2516.41 -0.636374 5.84144 0
M  V30 28077 H 2517.94 -1.56686 5.90154 0
M  V30 28078 H 2519.35 0.694771 5.69075 0
M  V30 28079 H 2517.75 1.47587 5.81668 0
M  V30 28080 H 2518.82 1.89046 4.46531 0
M  V30 28081 N 2520.16 -1.50253 0.475581 0
M  V30 28082 C 2521.11 -2.28623 -0.316253 0
M  V30 28083 C 2522.08 -1.33874 -0.983203 0
M  V30 28084 O 2523.26 -1.62815 -0.994776 0
M  V30 28085 C 2520.4 -3.15882 -1.38969 0
M  V30 28086 C 2519.52 -4.25666 -0.737071 0
M  V30 28087 C 2518.65 -5.00176 -1.78879 0
M  V30 28088 C 2517.69 -6.01828 -1.11665 0
M  V30 28089 N 2516.83 -6.696 -2.11142 0
M  V30 28090 H 2521.67 -2.95838 0.358349 0
M  V30 28091 H 2519.2 -1.45886 0.188566 0
M  V30 28092 H 2521.16 -3.64828 -2.02376 0
M  V30 28093 H 2519.79 -2.50704 -2.0334 0
M  V30 28094 H 2518.84 -3.80399 0.00967337 0
M  V30 28095 H 2520.16 -4.98371 -0.206729 0
M  V30 28096 H 2519.31 -5.52863 -2.49855 0
M  V30 28097 H 2518.05 -4.27186 -2.35294 0
M  V30 28098 H 2517.05 -5.48397 -0.392537 0
M  V30 28099 H 2518.28 -6.76793 -0.559331 0
M  V30 28100 H 2516.22 -5.99398 -2.66566 0
M  V30 28101 H 2516.14 -7.38196 -1.63105 0
M  V30 28102 H 2517.41 -7.26902 -2.81485 0
M  V30 28103 N 2521.64 -0.208365 -1.56217 0
M  V30 28104 C 2522.55 0.718796 -2.23317 0
M  V30 28105 C 2523.56 1.2242 -1.2365 0
M  V30 28106 O 2524.74 1.26858 -1.56426 0
M  V30 28107 C 2521.81 1.91563 -2.88971 0
M  V30 28108 C 2520.87 1.4535 -4.03945 0
M  V30 28109 C 2520.1 2.59329 -4.66459 0
M  V30 28110 O 2520.32 3.77141 -4.27926 0
M  V30 28111 O 2519.26 2.31283 -5.5569 0
M  V30 28112 H 2523.08 0.177262 -3.03182 0
M  V30 28113 H 2520.67 0.0215139 -1.49385 0
M  V30 28114 H 2522.55 2.61486 -3.30459 0
M  V30 28115 H 2521.22 2.44552 -2.12076 0
M  V30 28116 H 2520.13 0.722681 -3.67053 0
M  V30 28117 H 2521.46 0.970134 -4.82545 0
M  V30 28118 N 2523.12 1.57465 0.0651402 0
M  V30 28119 C 2524.06 2.05193 1.09538 0
M  V30 28120 C 2525.06 0.958533 1.39673 0
M  V30 28121 O 2526.26 1.14362 1.39001 0
M  V30 28122 H 2522.64 0.654333 0.370612 0
M  V30 28123 H 2524.61 2.90856 0.666751 0
M  V30 28124 C 2523.36 2.51703 2.39877 0
M  V30 28125 H 2522.68 3.35434 2.17541 0
M  V30 28126 H 2524.12 2.88845 3.10394 0
M  V30 28127 C 2522.58 1.40276 3.06307 0
M  V30 28128 O 2523.11 0.748592 3.94663 0
M  V30 28129 N 2521.32 1.14623 2.67039 0
M  V30 28130 H 2520.86 1.68001 1.95278 0
M  V30 28131 H 2520.82 0.402743 3.1181 0
M  V30 28132 N 2524.59 -0.336679 1.53962 0
M  V30 28133 C 2525.52 -1.41921 1.8542 0
M  V30 28134 C 2526.51 -1.54579 0.709883 0
M  V30 28135 O 2527.69 -1.68674 0.962426 0
M  V30 28136 C 2524.82 -2.78877 2.0699 0
M  V30 28137 C 2523.77 -2.8102 3.22818 0
M  V30 28138 C 2523.1 -4.20927 3.29735 0
M  V30 28139 C 2524.4 -2.45941 4.60772 0
M  V30 28140 H 2526.09 -1.15844 2.76081 0
M  V30 28141 H 2523.64 -0.555835 1.3284 0
M  V30 28142 H 2525.59 -3.54661 2.27581 0
M  V30 28143 H 2524.32 -3.06404 1.13066 0
M  V30 28144 H 2522.98 -2.0769 3.02094 0
M  V30 28145 H 2522.62 -4.45574 2.33393 0
M  V30 28146 H 2522.32 -4.2327 4.07574 0
M  V30 28147 H 2523.85 -4.98543 3.52544 0
M  V30 28148 H 2525.26 -3.11438 4.81331 0
M  V30 28149 H 2523.66 -2.59556 5.41064 0
M  V30 28150 H 2524.73 -1.41113 4.63913 0
M  V30 28151 N 2526.07 -1.45812 -0.598057 0
M  V30 28152 C 2527.49 -1.30428 -0.919824 0
M  V30 28153 C 2527.69 -0.264339 -1.99759 0
M  V30 28154 O 2526.74 0.338428 -2.50222 0
M  V30 28155 C 2528.06 -2.68606 -1.35172 0
M  V30 28156 C 2529.61 -2.76577 -1.46541 0
M  V30 28157 C 2530.08 -4.15302 -1.93102 0
M  V30 28158 N 2531.57 -4.17643 -2.00321 0
M  V30 28159 C 2532.31 -5.21861 -2.3759 0
M  V30 28160 N 2531.8 -6.36417 -2.7376 0
M  V30 28161 N 2533.6 -5.09222 -2.38012 0
M  V30 28162 H 2525.75 -2.12093 0.114149 0
M  V30 28163 H 2528.01 -0.947929 -0.0115954 0
M  V30 28164 H 2527.72 -3.4594 -0.633909 0
M  V30 28165 H 2527.59 -2.977 -2.31635 0
M  V30 28166 H 2529.98 -1.99541 -2.17411 0
M  V30 28167 H 2530.06 -2.51185 -0.483683 0
M  V30 28168 H 2529.7 -4.92827 -1.22816 0
M  V30 28169 H 2529.63 -4.38091 -2.92206 0
M  V30 28170 H 2532.12 -3.3498 -1.74919 0
M  V30 28171 H 2532.44 -7.11726 -3.01107 0
M  V30 28172 H 2530.78 -6.39804 -2.71434 0
M  V30 28173 H 2533.97 -4.18768 -2.09167 0
M  V30 28174 H 2534.14 -5.90558 -2.6673 0
M  V30 28175 N 2527.55 0.841385 -1.33261 0
M  V30 28176 C 2528.46 1.98314 -1.25335 0
M  V30 28177 C 2529.48 1.73222 -0.164395 0
M  V30 28178 O 2530.65 1.97637 -0.387521 0
M  V30 28179 C 2527.72 3.32261 -0.990137 0
M  V30 28180 C 2526.78 3.70485 -2.16885 0
M  V30 28181 C 2526.01 4.98041 -1.9181 0
M  V30 28182 O 2526.23 5.6377 -0.867174 0
M  V30 28183 O 2525.17 5.3371 -2.78276 0
M  V30 28184 H 2528.99 2.0794 -2.21348 0
M  V30 28185 H 2526.58 0.974038 -1.13282 0
M  V30 28186 H 2528.46 4.12523 -0.860394 0
M  V30 28187 H 2527.14 3.23644 -0.0602724 0
M  V30 28188 H 2526.04 2.90744 -2.35412 0
M  V30 28189 H 2527.38 3.83765 -3.08197 0
M  V30 28190 N 2529.03 1.16688 1.05932 0
M  V30 28191 C 2530.26 0.974961 1.82489 0
M  V30 28192 C 2530.67 -0.476829 1.82679 0
M  V30 28193 O 2530.03 -1.331 1.24862 0
M  V30 28194 C 2530.08 1.49935 3.2894 0
M  V30 28195 O 2529.8 2.89428 3.28881 0
M  V30 28196 C 2531.3 1.35096 4.22213 0
M  V30 28197 H 2528.52 0.345375 0.575289 0
M  V30 28198 H 2531.07 1.54802 1.33628 0
M  V30 28199 H 2529.22 0.968489 3.75099 0
M  V30 28200 H 2529.64 3.13514 4.20487 0
M  V30 28201 H 2531.11 1.76613 5.22984 0
M  V30 28202 H 2531.59 0.297012 4.38195 0
M  V30 28203 H 2532.19 1.87162 3.81904 0
M  V30 28204 N 2530.51 -1.24529 0.96594 0
M  V30 28205 C 2531.76 -1.91855 0.622471 0
M  V30 28206 C 2532.07 -1.76359 -0.845975 0
M  V30 28207 O 2533.28 -2.38359 -1.29989 0
M  V30 28208 C 2531.73 -3.43854 1.06266 0
M  V30 28209 C 2531.34 -3.68039 2.55444 0
M  V30 28210 C 2533.08 -4.17041 0.792256 0
M  V30 28211 C 2530.99 -5.136 2.93205 0
M  V30 28212 H 2529.92 -0.71835 0.229105 0
M  V30 28213 H 2532.57 -1.41204 1.17191 0
M  V30 28214 H 2530.95 -3.93531 0.441545 0
M  V30 28215 H 2532.13 -3.28969 3.22671 0
M  V30 28216 H 2530.44 -3.08134 2.80076 0
M  V30 28217 H 2533.04 -5.24281 1.05041 0
M  V30 28218 H 2533.38 -4.15414 -0.271511 0
M  V30 28219 H 2533.92 -3.73308 1.37426 0
M  V30 28220 H 2530.65 -5.20348 3.98645 0
M  V30 28221 H 2530.17 -5.53675 2.3066 0
M  V30 28222 H 2531.85 -5.81818 2.83014 0
M  V30 28223 N 2531.99 -0.735845 -1.39367 0
M  V30 28224 C 2533.21 -0.294429 -2.04794 0
M  V30 28225 C 2533.63 1.07104 -1.5548 0
M  V30 28226 O 2532.99 1.67694 -0.720067 0
M  V30 28227 C 2533.04 -0.288134 -3.6035 0
M  V30 28228 O 2532.76 -1.59971 -4.07849 0
M  V30 28229 C 2534.26 0.169344 -4.42976 0
M  V30 28230 H 2531.48 -0.128562 -0.658569 0
M  V30 28231 H 2534.02 -0.999732 -1.78397 0
M  V30 28232 H 2532.18 0.368287 -3.85645 0
M  V30 28233 H 2532.59 -1.51384 -5.02179 0
M  V30 28234 H 2534.07 0.12259 -5.51864 0
M  V30 28235 H 2534.54 1.21464 -4.2207 0
M  V30 28236 H 2535.15 -0.457543 -4.22832 0
M  V30 28237 N 2533.46 1.49999 -0.483543 0
M  V30 28238 C 2534.88 1.58999 -0.138432 0
M  V30 28239 C 2535.08 1.49052 1.35594 0
M  V30 28240 O 2534.14 1.35543 2.13036 0
M  V30 28241 C 2535.45 2.92446 -0.699709 0
M  V30 28242 C 2537 3.0587 -0.664249 0
M  V30 28243 C 2537.47 4.41911 -1.20328 0
M  V30 28244 N 2538.96 4.48356 -1.16323 0
M  V30 28245 C 2539.7 5.52034 -1.55068 0
M  V30 28246 N 2539.19 6.62903 -2.01323 0
M  V30 28247 N 2540.99 5.42648 -1.46593 0
M  V30 28248 H 2533.14 1.54707 -1.45532 0
M  V30 28249 H 2535.4 0.731837 -0.602593 0
M  V30 28250 H 2535.11 3.05239 -1.74706 0
M  V30 28251 H 2534.98 3.76901 -0.15026 0
M  V30 28252 H 2537.37 2.92718 0.374221 0
M  V30 28253 H 2537.45 2.23142 -1.25065 0
M  V30 28254 H 2537.09 4.55814 -2.24045 0
M  V30 28255 H 2537.02 5.23251 -0.592988 0
M  V30 28256 H 2539.51 3.68804 -0.824123 0
M  V30 28257 H 2539.83 7.38091 -2.29003 0
M  V30 28258 H 2538.17 6.6399 -2.05284 0
M  V30 28259 H 2541.36 4.54922 -1.10289 0
M  V30 28260 H 2541.54 6.23326 -1.77114 0
M  V30 28261 N 2534.94 0.216646 1.56104 0
M  V30 28262 C 2536.22 -0.465131 1.89989 0
M  V30 28263 C 2536.6 -1.781 1.13329 0
M  V30 28264 O 2535.95 -2.27225 0.241072 0
M  V30 28265 C 2536.16 -0.662878 3.42647 0
M  V30 28266 C 2537.5 -0.972529 4.13312 0
M  V30 28267 O 2538.53 -0.74984 3.48218 0
M  V30 28268 O 2537.39 -1.39489 5.28398 0
M  V30 28269 H 2534.48 -0.245262 0.789795 0
M  V30 28270 H 2537.03 0.258466 1.6772 0
M  V30 28271 H 2535.8 0.265499 3.90398 0
M  V30 28272 H 2535.42 -1.43814 3.70679 0
M  V30 28273 N 2536.42 -1.57498 -0.0567885 0
M  V30 28274 C 2537.35 -2.07752 -1.06589 0
M  V30 28275 C 2538.33 -0.974106 -1.39446 0
M  V30 28276 O 2539.52 -1.24773 -1.48813 0
M  V30 28277 C 2536.65 -2.53394 -2.37505 0
M  V30 28278 C 2535.6 -3.67749 -2.18963 0
M  V30 28279 C 2534.93 -3.99498 -3.55395 0
M  V30 28280 C 2536.23 -4.97238 -1.5985 0
M  V30 28281 H 2537.92 -2.92311 -0.647655 0
M  V30 28282 H 2535.47 -1.40622 -0.310091 0
M  V30 28283 H 2537.42 -2.87167 -3.08404 0
M  V30 28284 H 2536.14 -1.65883 -2.81337 0
M  V30 28285 H 2534.8 -3.34282 -1.50502 0
M  V30 28286 H 2534.45 -3.09095 -3.96824 0
M  V30 28287 H 2534.15 -4.76508 -3.43823 0
M  V30 28288 H 2535.67 -4.3578 -4.27701 0
M  V30 28289 H 2537.09 -5.29145 -2.20632 0
M  V30 28290 H 2535.48 -5.78671 -1.58932 0
M  V30 28291 H 2536.55 -4.81639 -0.561421 0
M  V30 28292 N 2537.9 0.328509 -1.54138 0
M  V30 28293 C 2538.81 1.4272 -1.86194 0
M  V30 28294 C 2539.82 1.56843 -0.753409 0
M  V30 28295 O 2541 1.72033 -1.04721 0
M  V30 28296 C 2538.06 2.77503 -2.07829 0
M  V30 28297 C 2537.13 2.72598 -3.31646 0
M  V30 28298 C 2536.36 4.00953 -3.52239 0
M  V30 28299 O 2536.58 4.98975 -2.76369 0
M  V30 28300 O 2535.52 4.04512 -4.45706 0
M  V30 28301 H 2539.34 1.18542 -2.7961 0
M  V30 28302 H 2536.93 0.522079 -1.39981 0
M  V30 28303 H 2538.81 3.57299 -2.23417 0
M  V30 28304 H 2537.48 3.01582 -1.17601 0
M  V30 28305 H 2536.39 1.9137 -3.21447 0
M  V30 28306 H 2537.72 2.53473 -4.21915 0
M  V30 28307 N 2539.38 1.46127 0.590316 0
M  V30 28308 C 2540.32 1.56114 1.69992 0
M  V30 28309 C 2541.29 0.405895 1.61064 0
M  V30 28310 O 2542.48 0.621645 1.80389 0
M  V30 28311 C 2539.62 1.55018 3.08323 0
M  V30 28312 C 2538.73 2.81221 3.27931 0
M  V30 28313 C 2537.87 2.71681 4.56468 0
M  V30 28314 C 2536.9 3.92857 4.69393 0
M  V30 28315 N 2536.04 3.81749 5.89247 0
M  V30 28316 H 2540.88 2.50898 1.60792 0
M  V30 28317 H 2538.42 1.2448 0.783777 0
M  V30 28318 H 2540.38 1.52369 3.88381 0
M  V30 28319 H 2539.01 0.637722 3.16438 0
M  V30 28320 H 2538.06 2.93883 2.4153 0
M  V30 28321 H 2539.37 3.71051 3.33351 0
M  V30 28322 H 2538.52 2.67095 5.44743 0
M  V30 28323 H 2537.26 1.79478 4.53474 0
M  V30 28324 H 2536.27 3.97784 3.79537 0
M  V30 28325 H 2537.49 4.86147 4.74171 0
M  V30 28326 H 2535.44 2.92327 5.87265 0
M  V30 28327 H 2535.36 4.65227 5.95902 0
M  V30 28328 H 2536.62 3.81124 6.79974 0
M  V30 28329 N 2540.85 -0.834306 1.33705 0
M  V30 28330 C 2541.79 -1.95168 1.20176 0
M  V30 28331 C 2542.8 -1.62267 0.131601 0
M  V30 28332 O 2543.99 -1.74355 0.382437 0
M  V30 28333 C 2541.09 -3.28786 0.821774 0
M  V30 28334 C 2540.26 -3.89789 1.98453 0
M  V30 28335 C 2539.32 -5.01768 1.58478 0
M  V30 28336 O 2538.35 -5.20672 2.29977 0
M  V30 28337 N 2539.55 -5.78408 0.492392 0
M  V30 28338 H 2542.31 -2.07309 2.16432 0
M  V30 28339 H 2539.87 -1.01028 1.2651 0
M  V30 28340 H 2541.87 -4.0113 0.536361 0
M  V30 28341 H 2540.44 -3.1256 -0.0502509 0
M  V30 28342 H 2539.66 -3.09978 2.43531 0
M  V30 28343 H 2540.94 -4.27278 2.76244 0
M  V30 28344 H 2540.34 -5.65608 -0.102249 0
M  V30 28345 H 2538.9 -6.51254 0.266669 0
M  V30 28346 N 2542.33 -1.17248 -1.05312 0
M  V30 28347 C 2543.24 -0.902718 -2.16537 0
M  V30 28348 C 2544.26 0.128676 -1.73524 0
M  V30 28349 O 2545.43 -0.0503055 -2.01337 0
M  V30 28350 C 2542.5 -0.418417 -3.44166 0
M  V30 28351 C 2541.56 -1.51625 -4.01632 0
M  V30 28352 C 2540.79 -1.05497 -5.23169 0
M  V30 28353 O 2541.02 0.0913713 -5.70327 0
M  V30 28354 O 2539.95 -1.8475 -5.72845 0
M  V30 28355 H 2543.78 -1.83306 -2.42141 0
M  V30 28356 H 2541.36 -0.953267 -1.15036 0
M  V30 28357 H 2543.24 -0.1558 -4.21112 0
M  V30 28358 H 2541.92 0.483794 -3.20064 0
M  V30 28359 H 2540.82 -1.83273 -3.26131 0
M  V30 28360 H 2542.16 -2.39413 -4.30049 0
M  V30 28361 N 2543.81 1.24015 -0.972531 0
M  V30 28362 C 2544.72 2.28892 -0.51434 0
M  V30 28363 C 2545.74 1.68678 0.427048 0
M  V30 28364 O 2546.91 1.9917 0.298904 0
M  V30 28365 C 2543.98 3.46214 0.183537 0
M  V30 28366 C 2543.04 4.21813 -0.798276 0
M  V30 28367 C 2542.27 5.33533 -0.133608 0
M  V30 28368 O 2542.49 5.60139 1.07704 0
M  V30 28369 O 2541.43 5.96175 -0.828208 0
M  V30 28370 H 2545.25 2.70212 -1.38633 0
M  V30 28371 H 2542.84 1.29798 -0.739792 0
M  V30 28372 H 2544.72 4.17454 0.57536 0
M  V30 28373 H 2543.4 3.06862 1.03042 0
M  V30 28374 H 2542.3 3.52929 -1.24065 0
M  V30 28375 H 2543.64 4.64994 -1.61372 0
M  V30 28376 N 2545.29 0.743226 1.38974 0
M  V30 28377 C 2546.22 0.123914 2.33171 0
M  V30 28378 C 2547.2 -0.715132 1.54337 0
M  V30 28379 O 2548.38 -0.658435 1.82697 0
M  V30 28380 C 2545.51 -0.777918 3.38476 0
M  V30 28381 C 2544.47 -0.0424006 4.27979 0
M  V30 28382 C 2543.79 -1.0618 5.24051 0
M  V30 28383 C 2545.09 1.11989 5.10153 0
M  V30 28384 H 2546.79 0.91076 2.85211 0
M  V30 28385 H 2544.33 0.439412 1.37132 0
M  V30 28386 H 2546.29 -1.22077 4.0333 0
M  V30 28387 H 2545.01 -1.59697 2.84894 0
M  V30 28388 H 2543.67 0.380917 3.64616 0
M  V30 28389 H 2543.32 -1.87463 4.66762 0
M  V30 28390 H 2543.02 -0.574382 5.84786 0
M  V30 28391 H 2544.54 -1.50418 5.91783 0
M  V30 28392 H 2545.96 0.75509 5.68306 0
M  V30 28393 H 2544.35 1.53748 5.8007 0
M  V30 28394 H 2545.42 1.93772 4.445 0
M  V30 28395 N 2546.77 -1.4974 0.491491 0
M  V30 28396 C 2547.71 -2.28946 -0.291986 0
M  V30 28397 C 2548.68 -1.3491 -0.968949 0
M  V30 28398 O 2549.87 -1.63861 -0.977452 0
M  V30 28399 C 2547.01 -3.17338 -1.35611 0
M  V30 28400 C 2546.12 -4.26423 -0.691882 0
M  V30 28401 C 2545.26 -5.02045 -1.73563 0
M  V30 28402 C 2544.3 -6.02979 -1.05276 0
M  V30 28403 N 2543.43 -6.71801 -2.04028 0
M  V30 28404 H 2548.27 -2.95441 0.389706 0
M  V30 28405 H 2545.81 -1.45678 0.204029 0
M  V30 28406 H 2547.77 -3.66954 -1.98495 0
M  V30 28407 H 2546.4 -2.52847 -2.00669 0
M  V30 28408 H 2545.45 -3.80367 0.0500192 0
M  V30 28409 H 2546.76 -4.98563 -0.153858 0
M  V30 28410 H 2545.92 -5.55482 -2.43977 0
M  V30 28411 H 2544.65 -4.29658 -2.3075 0
M  V30 28412 H 2543.66 -5.48782 -0.33435 0
M  V30 28413 H 2544.88 -6.77348 -0.487517 0
M  V30 28414 H 2542.83 -6.02192 -2.60194 0
M  V30 28415 H 2542.75 -7.39884 -1.55266 0
M  V30 28416 H 2544.02 -7.29847 -2.73759 0
M  V30 28417 N 2548.24 -0.224922 -1.55987 0
M  V30 28418 C 2549.49 0.406238 -1.97567 0
M  V30 28419 C 2549.81 1.60658 -1.11572 0
M  V30 28420 O 2551.01 2.30748 -1.43066 0
M  V30 28421 C 2549.47 0.774145 -3.51475 0
M  V30 28422 C 2549.08 -0.403574 -4.46179 0
M  V30 28423 C 2550.82 1.37072 -4.01761 0
M  V30 28424 C 2548.73 -0.0130452 -5.91399 0
M  V30 28425 H 2547.66 0.155552 -0.73778 0
M  V30 28426 H 2550.31 -0.321667 -1.80659 0
M  V30 28427 H 2548.69 1.55957 -3.63997 0
M  V30 28428 H 2549.86 -1.18109 -4.45406 0
M  V30 28429 H 2548.18 -0.913607 -4.06254 0
M  V30 28430 H 2550.78 1.67587 -5.07759 0
M  V30 28431 H 2551.12 2.28767 -3.4781 0
M  V30 28432 H 2551.65 0.648664 -3.92476 0
M  V30 28433 H 2548.39 -0.896565 -6.4934 0
M  V30 28434 H 2547.91 0.728717 -5.95357 0
M  V30 28435 H 2549.59 0.412468 -6.45684 0
M  V30 28436 N 2549.72 1.57526 0.0484352 0
M  V30 28437 C 2550.97 1.88652 0.744193 0
M  V30 28438 C 2551.3 0.820243 1.76027 0
M  V30 28439 O 2550.58 -0.166951 1.93782 0
M  V30 28440 C 2550.86 3.30436 1.43122 0
M  V30 28441 C 2550.71 4.4774 0.429971 0
M  V30 28442 C 2552.03 3.7082 2.37024 0
M  V30 28443 H 2549.15 0.686124 0.269077 0
M  V30 28444 H 2551.79 1.89999 0.00710192 0
M  V30 28445 H 2549.94 3.29419 2.0595 0
M  V30 28446 H 2551.61 4.60888 -0.194897 0
M  V30 28447 H 2549.86 4.33064 -0.252598 0
M  V30 28448 H 2550.53 5.43785 0.948778 0
M  V30 28449 H 2553 3.7308 1.84256 0
M  V30 28450 H 2551.88 4.7087 2.82086 0
M  V30 28451 H 2552.14 3.02018 3.22859 0
M  V30 28452 N 2551.2 -0.32033 1.5431 0
M  V30 28453 C 2552.15 -1.39553 1.80302 0
M  V30 28454 C 2553.13 -1.46777 0.659192 0
M  V30 28455 O 2554.33 -1.51255 0.919287 0
M  V30 28456 C 2551.46 -2.76358 2.0367 0
M  V30 28457 C 2550.54 -2.73434 3.24183 0
M  V30 28458 N 2550.93 -2.40129 4.45165 0
M  V30 28459 C 2549.23 -3.04559 3.25822 0
M  V30 28460 C 2549.93 -2.46021 5.27113 0
M  V30 28461 N 2548.91 -2.82593 4.64373 0
M  V30 28462 H 2552.71 -1.12737 2.71418 0
M  V30 28463 H 2550.22 -0.528829 1.53549 0
M  V30 28464 H 2552.22 -3.53858 2.20431 0
M  V30 28465 H 2550.88 -3.04101 1.1381 0
M  V30 28466 H 2551.89 -2.12919 4.72108 0
M  V30 28467 H 2548.57 -3.37323 2.46007 0
M  V30 28468 H 2549.96 -2.23235 6.33732 0
M  V30 28469 N 2552.68 -1.46438 -0.582558 0
M  V30 28470 C 2553.61 -1.51527 -1.7063 0
M  V30 28471 C 2554.59 -0.369379 -1.58349 0
M  V30 28472 O 2555.77 -0.573547 -1.79562 0
M  V30 28473 C 2552.9 -1.39397 -3.08684 0
M  V30 28474 C 2551.95 -2.5817 -3.39486 0
M  V30 28475 S 2552.78 -4.20525 -3.3154 0
M  V30 28476 C 2553.94 -4.10904 -4.72132 0
M  V30 28477 H 2554.17 -2.46604 -1.66054 0
M  V30 28478 H 2551.7 -1.34326 -0.761314 0
M  V30 28479 H 2553.66 -1.33086 -3.88328 0
M  V30 28480 H 2552.32 -0.45749 -3.1075 0
M  V30 28481 H 2551.51 -2.45677 -4.40067 0
M  V30 28482 H 2551.12 -2.61472 -2.6741 0
M  V30 28483 H 2553.41 -3.77594 -5.6252 0
M  V30 28484 H 2554.35 -5.11485 -4.89683 0
M  V30 28485 H 2554.76 -3.42154 -4.48989 0
M  V30 28486 N 2554.16 0.827204 -1.34146 0
M  V30 28487 C 2555.11 1.9266 -1.21926 0
M  V30 28488 C 2556.09 1.60457 -0.119322 0
M  V30 28489 O 2557.28 1.73534 -0.348569 0
M  V30 28490 C 2554.41 3.29236 -0.972549 0
M  V30 28491 C 2553.5 3.67572 -2.11546 0
M  V30 28492 N 2553.89 3.77507 -3.36634 0
M  V30 28493 C 2552.19 3.97391 -2.02475 0
M  V30 28494 C 2552.89 4.10983 -4.11665 0
M  V30 28495 N 2551.86 4.23975 -3.40215 0
M  V30 28496 H 2555.67 1.98513 -2.16725 0
M  V30 28497 H 2553.18 1.02062 -1.26322 0
M  V30 28498 H 2555.18 4.07808 -0.865919 0
M  V30 28499 H 2553.84 3.24683 -0.0332079 0
M  V30 28500 H 2554.85 3.61111 -3.7124 0
M  V30 28501 H 2551.52 4.00983 -1.16272 0
M  V30 28502 H 2552.91 4.25909 -5.19665 0
M  V30 28503 N 2555.63 1.17805 1.04688 0
M  V30 28504 C 2556.56 0.922788 2.14492 0
M  V30 28505 C 2557.55 -0.137149 1.69546 0
M  V30 28506 O 2558.73 0.014145 1.94195 0
M  V30 28507 C 2555.86 0.440864 3.4449 0
M  V30 28508 C 2554.81 1.44057 4.03028 0
M  V30 28509 C 2554.14 0.816403 5.28431 0
M  V30 28510 C 2555.44 2.81535 4.39927 0
M  V30 28511 H 2557.13 1.84107 2.36104 0
M  V30 28512 H 2554.68 0.886619 1.13468 0
M  V30 28513 H 2556.63 0.249676 4.2066 0
M  V30 28514 H 2555.36 -0.512968 3.22546 0
M  V30 28515 H 2554.02 1.61859 3.28934 0
M  V30 28516 H 2553.66 -0.144423 5.02793 0
M  V30 28517 H 2553.36 1.48381 5.68557 0
M  V30 28518 H 2554.89 0.635603 6.07283 0
M  V30 28519 H 2556.3 2.67421 5.07108 0
M  V30 28520 H 2554.7 3.449 4.91084 0
M  V30 28521 H 2555.77 3.35561 3.50039 0
M  V30 28522 N 2557.11 -1.23497 0.979094 0
M  V30 28523 C 2558.06 -2.24913 0.517944 0
M  V30 28524 C 2559.03 -1.60097 -0.442496 0
M  V30 28525 O 2560.21 -1.87556 -0.350332 0
M  V30 28526 C 2557.35 -3.44657 -0.174753 0
M  V30 28527 C 2556.47 -4.24034 0.825795 0
M  V30 28528 C 2555.6 -5.3109 0.108039 0
M  V30 28529 C 2554.64 -6.02173 1.09789 0
M  V30 28530 N 2553.78 -7.00906 0.409374 0
M  V30 28531 H 2558.62 -2.63725 1.38756 0
M  V30 28532 H 2556.16 -1.29629 0.695326 0
M  V30 28533 H 2558.11 -4.12962 -0.59316 0
M  V30 28534 H 2556.74 -3.0665 -1.00825 0
M  V30 28535 H 2555.8 -3.55158 1.3626 0
M  V30 28536 H 2557.11 -4.7311 1.58013 0
M  V30 28537 H 2556.26 -6.05584 -0.367798 0
M  V30 28538 H 2555 -4.82951 -0.678909 0
M  V30 28539 H 2554.01 -5.26473 1.58449 0
M  V30 28540 H 2555.23 -6.52401 1.88548 0
M  V30 28541 H 2553.18 -6.5502 -0.35839 0
M  V30 28542 H 2553.09 -7.47919 1.10239 0
M  V30 28543 H 2554.36 -7.79488 -0.0441187 0
M  V30 28544 N 2558.59 -0.750586 -1.38578 0
M  V30 28545 C 2559.5 -0.122866 -2.34278 0
M  V30 28546 C 2560.52 0.704103 -1.59118 0
M  V30 28547 O 2561.69 0.628954 -1.91327 0
M  V30 28548 C 2558.76 0.762027 -3.38222 0
M  V30 28549 C 2557.82 -0.0789714 -4.29227 0
M  V30 28550 C 2557.05 0.763781 -5.28206 0
M  V30 28551 O 2557.28 2.00192 -5.34116 0
M  V30 28552 O 2556.21 0.184174 -6.01618 0
M  V30 28553 H 2560.04 -0.913139 -2.89647 0
M  V30 28554 H 2557.62 -0.511442 -1.40373 0
M  V30 28555 H 2559.5 1.26786 -4.01875 0
M  V30 28556 H 2558.18 1.53085 -2.85214 0
M  V30 28557 H 2557.08 -0.630686 -3.68745 0
M  V30 28558 H 2558.42 -0.810375 -4.85483 0
M  V30 28559 N 2560.07 1.49477 -0.499425 0
M  V30 28560 C 2561.02 2.2603 0.299063 0
M  V30 28561 C 2562 1.30808 0.936911 0
M  V30 28562 O 2563.2 1.5554 0.844771 0
M  V30 28563 C 2560.32 3.15046 1.36385 0
M  V30 28564 C 2559.41 4.17729 0.732325 0
M  V30 28565 N 2559.8 5.05534 -0.164117 0
M  V30 28566 C 2558.1 4.34803 0.993086 0
M  V30 28567 C 2558.8 5.79322 -0.525446 0
M  V30 28568 N 2557.78 5.43496 0.106252 0
M  V30 28569 H 2561.58 2.91287 -0.391054 0
M  V30 28570 H 2559.09 1.59308 -0.315398 0
M  V30 28571 H 2561.09 3.6852 1.94933 0
M  V30 28572 H 2559.75 2.51341 2.05567 0
M  V30 28573 H 2560.76 5.15131 -0.534827 0
M  V30 28574 H 2557.44 3.82305 1.67777 0
M  V30 28575 H 2558.83 6.60004 -1.25873 0
M  V30 28576 N 2561.55 0.233191 1.55865 0
M  V30 28577 C 2562.48 -0.704629 2.181 0
M  V30 28578 C 2563.49 -1.14897 1.15336 0
M  V30 28579 O 2564.68 -1.07811 1.42264 0
M  V30 28580 C 2561.78 -1.96772 2.75924 0
M  V30 28581 C 2560.95 -1.67706 4.03972 0
M  V30 28582 C 2560.01 -2.78837 4.46247 0
M  V30 28583 O 2559.04 -2.46809 5.12908 0
M  V30 28584 N 2560.24 -4.08044 4.12893 0
M  V30 28585 H 2563.01 -0.172205 2.99205 0
M  V30 28586 H 2560.57 0.0526229 1.61814 0
M  V30 28587 H 2562.56 -2.70331 3.01169 0
M  V30 28588 H 2561.13 -2.41031 1.99055 0
M  V30 28589 H 2560.35 -0.777323 3.8646 0
M  V30 28590 H 2561.64 -1.45732 4.87483 0
M  V30 28591 H 2561.04 -4.36903 3.59349 0
M  V30 28592 H 2559.59 -4.7811 4.43005 0
M  V30 28593 N 2563.03 -1.57549 -0.0400806 0
M  V30 28594 C 2563.94 -2.09222 -1.06129 0
M  V30 28595 C 2564.95 -1.02843 -1.40354 0
M  V30 28596 O 2566.13 -1.34512 -1.49895 0
M  V30 28597 C 2563.19 -2.55223 -2.34654 0
M  V30 28598 C 2562.25 -3.76037 -2.0711 0
M  V30 28599 C 2561.49 -4.19834 -3.29507 0
M  V30 28600 O 2561.71 -3.6324 -4.39787 0
M  V30 28601 O 2560.64 -5.12367 -3.15854 0
M  V30 28602 H 2564.47 -2.96614 -0.652192 0
M  V30 28603 H 2562.05 -1.47184 -0.256343 0
M  V30 28604 H 2563.94 -2.85189 -3.10234 0
M  V30 28605 H 2562.61 -1.70946 -2.7488 0
M  V30 28606 H 2561.52 -3.51106 -1.29133 0
M  V30 28607 H 2562.85 -4.61264 -1.71746 0
M  V30 28608 N 2564.5 0.312142 -1.54478 0
M  V30 28609 C 2565.73 1.06796 -1.77206 0
M  V30 28610 C 2566.15 1.81321 -0.526145 0
M  V30 28611 O 2565.5 1.75414 0.503616 0
M  V30 28612 C 2565.55 2.0572 -2.97257 0
M  V30 28613 O 2565.28 1.34221 -4.17033 0
M  V30 28614 C 2566.78 2.93429 -3.32286 0
M  V30 28615 H 2564 0.317197 -0.591293 0
M  V30 28616 H 2566.54 0.354799 -2.01399 0
M  V30 28617 H 2564.7 2.72555 -2.75305 0
M  V30 28618 H 2565.11 2.00562 -4.84639 0
M  V30 28619 H 2566.58 3.58714 -4.19558 0
M  V30 28620 H 2567.06 3.61138 -2.49951 0
M  V30 28621 H 2567.67 2.32141 -3.56357 0
M  V30 28622 N 2565.98 1.46745 0.574784 0
M  V30 28623 C 2567.23 1.51729 1.32895 0
M  V30 28624 C 2567.54 0.176727 1.948 0
M  V30 28625 O 2568.75 0.104432 2.71299 0
M  V30 28626 C 2567.21 2.6739 2.40896 0
M  V30 28627 C 2566.81 4.07901 1.85259 0
M  V30 28628 C 2568.56 2.81652 3.17604 0
M  V30 28629 C 2566.46 5.14889 2.90936 0
M  V30 28630 H 2565.39 0.564707 0.499621 0
M  V30 28631 H 2568.05 1.72976 0.612506 0
M  V30 28632 H 2566.43 2.39488 3.15375 0
M  V30 28633 H 2567.6 4.45628 1.1727 0
M  V30 28634 H 2565.92 3.98373 1.21192 0
M  V30 28635 H 2568.51 3.58751 3.96487 0
M  V30 28636 H 2568.86 1.89454 3.70692 0
M  V30 28637 H 2569.39 3.09238 2.50233 0
M  V30 28638 H 2566.13 6.08904 2.42726 0
M  V30 28639 H 2565.65 4.81697 3.5739 0
M  V30 28640 H 2567.33 5.41077 3.54746 0
M  V30 28641 N 2567.46 -0.820078 1.34583 0
M  V30 28642 C 2568.74 -1.56241 1.17677 0
M  V30 28643 C 2569.12 -2.0962 -0.249504 0
M  V30 28644 O 2568.46 -1.91198 -1.25122 0
M  V30 28645 C 2568.67 -2.68156 2.23369 0
M  V30 28646 C 2570.02 -3.36849 2.58491 0
M  V30 28647 O 2571.05 -2.78415 2.2218 0
M  V30 28648 O 2569.91 -4.42381 3.20876 0
M  V30 28649 H 2567 -0.689694 0.456345 0
M  V30 28650 H 2569.55 -0.861205 1.46224 0
M  V30 28651 H 2568.32 -2.26487 3.19091 0
M  V30 28652 H 2567.94 -3.45924 1.96015 0
M  V30 28653 N 2568.94 -1.18359 -1.04062 0
M  V30 28654 C 2569.88 -0.91064 -2.12075 0
M  V30 28655 C 2570.85 0.149971 -1.65422 0
M  V30 28656 O 2572.04 0.0103279 -1.90797 0
M  V30 28657 C 2569.18 -0.442532 -3.42251 0
M  V30 28658 C 2568.29 -1.56857 -4.02517 0
M  V30 28659 C 2567.43 -1.05318 -5.20655 0
M  V30 28660 C 2566.47 -2.1539 -5.72951 0
M  V30 28661 N 2565.6 -1.65245 -6.82377 0
M  V30 28662 H 2570.44 -1.83552 -2.34761 0
M  V30 28663 H 2567.98 -0.915299 -1.15155 0
M  V30 28664 H 2569.94 -0.152607 -4.16921 0
M  V30 28665 H 2568.57 0.445372 -3.19713 0
M  V30 28666 H 2567.62 -1.97397 -3.25175 0
M  V30 28667 H 2568.93 -2.39832 -4.37358 0
M  V30 28668 H 2568.09 -0.717782 -6.02439 0
M  V30 28669 H 2566.83 -0.193016 -4.87318 0
M  V30 28670 H 2565.83 -2.49775 -4.89788 0
M  V30 28671 H 2567.06 -3.01842 -6.08332 0
M  V30 28672 H 2565 -0.815178 -6.50915 0
M  V30 28673 H 2564.92 -2.41818 -7.16282 0
M  V30 28674 H 2566.19 -1.34633 -7.67785 0
M  V30 28675 N 2570.42 1.22976 -0.98563 0
M  V30 28676 C 2571.35 2.26938 -0.549689 0
M  V30 28677 C 2572.33 1.64839 0.419774 0
M  V30 28678 O 2573.51 1.91677 0.311997 0
M  V30 28679 C 2570.64 3.47003 0.143591 0
M  V30 28680 C 2569.6 4.2149 -0.74368 0
M  V30 28681 C 2568.92 5.34637 0.0821087 0
M  V30 28682 C 2570.22 4.80939 -2.03703 0
M  V30 28683 H 2571.92 2.63655 -1.41867 0
M  V30 28684 H 2569.46 1.2674 -0.683594 0
M  V30 28685 H 2571.41 4.18883 0.459911 0
M  V30 28686 H 2570.14 3.09361 1.04706 0
M  V30 28687 H 2568.8 3.51434 -1.04353 0
M  V30 28688 H 2568.45 4.93236 0.986272 0
M  V30 28689 H 2568.15 5.85396 -0.50848 0
M  V30 28690 H 2569.67 6.09336 0.39269 0
M  V30 28691 H 2571.08 5.44799 -1.78513 0
M  V30 28692 H 2569.48 5.42007 -2.57583 0
M  V30 28693 H 2570.55 4.01394 -2.72049 0
M  V30 28694 N 2571.89 0.757924 1.38178 0
M  V30 28695 C 2573.31 0.435999 1.53529 0
M  V30 28696 C 2573.51 -1.05029 1.71962 0
M  V30 28697 O 2572.57 -1.83629 1.7331 0
M  V30 28698 C 2573.88 1.23903 2.73987 0
M  V30 28699 C 2575.43 1.22954 2.87839 0
M  V30 28700 C 2575.9 2.01562 4.11263 0
M  V30 28701 N 2577.39 1.98844 4.18348 0
M  V30 28702 C 2578.13 2.56459 5.12851 0
M  V30 28703 N 2577.62 3.22805 6.13 0
M  V30 28704 N 2579.42 2.46365 5.05233 0
M  V30 28705 H 2571.57 1.72112 1.24463 0
M  V30 28706 H 2573.83 0.729874 0.604969 0
M  V30 28707 H 2573.54 2.2917 2.66785 0
M  V30 28708 H 2573.41 0.858828 3.67293 0
M  V30 28709 H 2575.8 0.184906 2.9452 0
M  V30 28710 H 2575.88 1.64928 1.95531 0
M  V30 28711 H 2575.52 3.06038 4.05343 0
M  V30 28712 H 2575.45 1.56979 5.02658 0
M  V30 28713 H 2577.94 1.5053 3.46625 0
M  V30 28714 H 2578.26 3.64177 6.81612 0
M  V30 28715 H 2576.6 3.26901 6.1332 0
M  V30 28716 H 2579.79 1.94158 4.25935 0
M  V30 28717 H 2579.97 2.91562 5.78702 0
M  V30 28718 N 2573.37 -1.4921 0.507345 0
M  V30 28719 C 2574.62 -2.0207 -0.0348484 0
M  V30 28720 C 2574.94 -1.38869 -1.36896 0
M  V30 28721 O 2574.21 -0.546184 -1.88132 0
M  V30 28722 H 2572.79 -0.746831 -0.0158681 0
M  V30 28723 H 2575.45 -1.83167 0.66603 0
M  V30 28724 H 2574.55 -3.1169 -0.159862 0
M  V30 28725 N 2574.85 -0.241454 -1.55739 0
M  V30 28726 C 2576.1 0.385261 -1.97986 0
M  V30 28727 C 2576.41 1.59466 -1.13269 0
M  V30 28728 O 2577.62 2.29217 -1.45505 0
M  V30 28729 C 2576.07 0.736823 -3.52277 0
M  V30 28730 C 2575.68 -0.450875 -4.45725 0
M  V30 28731 C 2577.43 1.32803 -4.03192 0
M  V30 28732 C 2575.33 -0.0757702 -5.91351 0
M  V30 28733 H 2574.26 0.147718 -0.739389 0
M  V30 28734 H 2576.91 -0.34081 -1.80307 0
M  V30 28735 H 2575.3 1.52087 -3.6563 0
M  V30 28736 H 2576.47 -1.22827 -4.44129 0
M  V30 28737 H 2574.79 -0.956645 -4.05262 0
M  V30 28738 H 2577.38 1.62192 -5.09508 0
M  V30 28739 H 2577.73 2.25065 -3.50216 0
M  V30 28740 H 2578.26 0.607 -3.93142 0
M  V30 28741 H 2575 -0.965386 -6.48352 0
M  V30 28742 H 2574.52 0.66553 -5.96096 0
M  V30 28743 H 2576.2 0.343962 -6.46085 0
M  V30 28744 N 2576.33 1.57568 0.0317248 0
M  V30 28745 C 2577.57 1.89431 0.724142 0
M  V30 28746 C 2577.91 0.838867 1.75148 0
M  V30 28747 O 2577.18 -0.146388 1.93948 0
M  V30 28748 C 2577.47 3.31936 1.3961 0
M  V30 28749 C 2577.32 4.48171 0.382458 0
M  V30 28750 C 2578.64 3.73313 2.33078 0
M  V30 28751 H 2575.76 0.68894 0.261785 0
M  V30 28752 H 2578.4 1.89996 -0.0130504 0
M  V30 28753 H 2576.55 3.31585 2.02445 0
M  V30 28754 H 2578.22 4.60655 -0.24377 0
M  V30 28755 H 2576.46 4.32772 -0.298516 0
M  V30 28756 H 2577.13 5.44761 0.891049 0
M  V30 28757 H 2579.61 3.75014 1.80289 0
M  V30 28758 H 2578.49 4.73836 2.77076 0
M  V30 28759 H 2578.75 3.05425 3.19637 0
M  V30 28760 N 2577.81 -0.303946 1.54641 0
M  V30 28761 C 2579.03 -1.06289 1.78094 0
M  V30 28762 C 2579.46 -1.80261 0.537374 0
M  V30 28763 O 2578.81 -1.73921 -0.511963 0
M  V30 28764 C 2578.86 -2.02142 2.98615 0
M  V30 28765 O 2577.97 -3.10392 2.71534 0
M  V30 28766 H 2577.31 -0.305487 0.589554 0
M  V30 28767 H 2579.84 -0.342265 2.01717 0
M  V30 28768 H 2579.85 -2.44661 3.26504 0
M  V30 28769 H 2578.52 -1.47707 3.88787 0
M  V30 28770 H 2577.1 -2.72409 2.54652 0
M  V30 28771 N 2579.28 -1.47047 -0.566994 0
M  V30 28772 C 2580.19 -1.61413 -1.70244 0
M  V30 28773 C 2581.21 -0.497186 -1.66745 0
M  V30 28774 O 2582.39 -0.763422 -1.8637 0
M  V30 28775 C 2579.45 -1.61566 -3.06753 0
M  V30 28776 C 2578.51 -2.84613 -3.21394 0
M  V30 28777 C 2577.75 -2.84749 -4.51391 0
M  V30 28778 O 2577.97 -1.94398 -5.36252 0
M  V30 28779 O 2576.9 -3.76491 -4.69615 0
M  V30 28780 H 2580.73 -2.5747 -1.61069 0
M  V30 28781 H 2578.31 -1.3002 -0.735871 0
M  V30 28782 H 2580.2 -1.64403 -3.88007 0
M  V30 28783 H 2578.87 -0.686739 -3.16331 0
M  V30 28784 H 2577.78 -2.87324 -2.39574 0
M  V30 28785 H 2579.11 -3.76766 -3.16714 0
M  V30 28786 N 2580.76 0.812929 -1.35016 0
M  V30 28787 C 2581.71 1.92442 -1.27416 0
M  V30 28788 C 2582.68 1.65445 -0.147359 0
M  V30 28789 O 2583.86 1.87924 -0.330007 0
M  V30 28790 C 2581 3.28878 -1.04564 0
M  V30 28791 C 2580.12 3.68102 -2.26108 0
M  V30 28792 C 2579.25 4.93536 -1.96458 0
M  V30 28793 C 2578.29 5.2537 -3.1409 0
M  V30 28794 N 2577.43 6.41983 -2.84258 0
M  V30 28795 H 2582.27 1.98274 -2.22466 0
M  V30 28796 H 2579.81 0.969913 -1.10594 0
M  V30 28797 H 2581.76 4.0752 -0.893484 0
M  V30 28798 H 2580.39 3.22531 -0.131775 0
M  V30 28799 H 2579.45 2.84771 -2.52209 0
M  V30 28800 H 2580.76 3.87592 -3.13965 0
M  V30 28801 H 2579.91 5.7999 -1.78036 0
M  V30 28802 H 2578.65 4.76069 -1.05876 0
M  V30 28803 H 2577.66 4.37409 -3.33096 0
M  V30 28804 H 2578.88 5.44771 -4.05465 0
M  V30 28805 H 2576.83 6.25953 -1.96263 0
M  V30 28806 H 2576.74 6.61693 -3.65649 0
M  V30 28807 H 2578.01 7.31481 -2.69363 0
M  V30 28808 N 2582.24 1.18909 1.03433 0
M  V30 28809 C 2583.47 1.01345 1.8038 0
M  V30 28810 C 2583.88 -0.437973 1.8365 0
M  V30 28811 O 2583.24 -1.30422 1.27657 0
M  V30 28812 C 2583.29 1.56879 3.25686 0
M  V30 28813 O 2583.01 2.96339 3.22668 0
M  V30 28814 C 2584.51 1.44022 4.19253 0
M  V30 28815 H 2581.73 0.3575 0.567833 0
M  V30 28816 H 2584.28 1.57602 1.30315 0
M  V30 28817 H 2582.43 1.04783 3.7296 0
M  V30 28818 H 2582.85 3.22362 4.13742 0
M  V30 28819 H 2584.32 1.87666 5.1912 0
M  V30 28820 H 2584.8 0.389892 4.37466 0
M  V30 28821 H 2585.4 1.95221 3.77848 0
M  V30 28822 N 2583.72 -1.22452 0.992137 0
M  V30 28823 C 2584.67 -2.26371 0.534683 0
M  V30 28824 C 2585.66 -1.64257 -0.414264 0
M  V30 28825 O 2586.87 -1.77699 -0.286868 0
M  V30 28826 H 2583.24 -0.735954 0.154515 0
M  V30 28827 H 2585.21 -2.62306 1.4226 0
M  V30 28828 C 2583.96 -3.47435 -0.135754 0
M  V30 28829 H 2583.28 -3.95491 0.585381 0
M  V30 28830 H 2584.72 -4.21922 -0.4193 0
M  V30 28831 C 2583.18 -3.0775 -1.37083 0
M  V30 28832 O 2583.71 -3.1708 -2.46623 0
M  V30 28833 N 2581.92 -2.62542 -1.2458 0
M  V30 28834 H 2581.47 -2.55149 -0.354497 0
M  V30 28835 H 2581.42 -2.36357 -2.07323 0
M  V30 28836 N 2585.2 -0.765242 -1.37774 0
M  V30 28837 C 2586.11 -0.147707 -2.34135 0
M  V30 28838 C 2587.12 0.687187 -1.59855 0
M  V30 28839 O 2588.3 0.608626 -1.91984 0
M  V30 28840 C 2585.36 0.726111 -3.39011 0
M  V30 28841 C 2584.42 -0.124492 -4.29119 0
M  V30 28842 C 2583.66 0.707715 -5.28987 0
M  V30 28843 O 2583.88 1.94515 -5.36209 0
M  V30 28844 O 2582.81 0.120354 -6.0178 0
M  V30 28845 H 2586.64 -0.943808 -2.88662 0
M  V30 28846 H 2584.23 -0.526302 -1.39823 0
M  V30 28847 H 2586.11 1.22517 -4.03197 0
M  V30 28848 H 2584.78 1.50051 -2.86821 0
M  V30 28849 H 2583.69 -0.669761 -3.68056 0
M  V30 28850 H 2585.02 -0.861821 -4.84596 0
M  V30 28851 N 2586.67 1.48939 -0.515251 0
M  V30 28852 C 2587.92 2.01683 0.0261007 0
M  V30 28853 C 2588.24 1.39886 1.36716 0
M  V30 28854 O 2589.44 1.84041 1.99603 0
M  V30 28855 C 2587.9 3.59769 0.0969479 0
M  V30 28856 C 2587.51 4.30545 -1.23833 0
M  V30 28857 C 2589.25 4.20409 0.587908 0
M  V30 28858 C 2587.16 5.80526 -1.12887 0
M  V30 28859 H 2586.09 0.753879 0.0135266 0
M  V30 28860 H 2588.74 1.71342 -0.656817 0
M  V30 28861 H 2587.12 3.86888 0.844626 0
M  V30 28862 H 2588.29 4.15114 -2.00042 0
M  V30 28863 H 2586.61 3.81713 -1.66385 0
M  V30 28864 H 2589.21 5.30261 0.687537 0
M  V30 28865 H 2589.55 3.84732 1.59019 0
M  V30 28866 H 2590.08 3.97665 -0.103652 0
M  V30 28867 H 2586.82 6.20753 -2.10586 0
M  V30 28868 H 2586.34 5.98411 -0.407905 0
M  V30 28869 H 2588.02 6.41866 -0.813445 0
M  V30 28870 N 2588.15 0.249709 1.55609 0
M  V30 28871 C 2589.38 -0.381269 2.03865 0
M  V30 28872 C 2589.8 -1.50546 1.12771 0
M  V30 28873 O 2589.16 -1.80894 0.121221 0
M  V30 28874 C 2589.21 -0.863754 3.50102 0
M  V30 28875 O 2588.31 -1.97311 3.62135 0
M  V30 28876 H 2587.65 -0.0827079 0.658829 0
M  V30 28877 H 2590.18 0.376587 2.01104 0
M  V30 28878 H 2590.19 -1.16623 3.90977 0
M  V30 28879 H 2588.87 -0.0411085 4.1588 0
M  V30 28880 H 2587.45 -1.67512 3.33158 0
M  V30 28881 N 2589.63 -1.57583 -0.0233682 0
M  V30 28882 C 2590.58 -2.08025 -1.04059 0
M  V30 28883 C 2591.57 -0.995228 -1.37082 0
M  V30 28884 O 2592.78 -1.18007 -1.35921 0
M  V30 28885 H 2589.15 -0.663929 -0.353133 0
M  V30 28886 H 2591.13 -2.92521 -0.589402 0
M  V30 28887 C 2589.87 -2.57975 -2.33119 0
M  V30 28888 H 2589.2 -3.41084 -2.08571 0
M  V30 28889 H 2590.64 -2.96973 -3.02627 0
M  V30 28890 C 2589.1 -1.48348 -3.02481 0
M  V30 28891 O 2589.63 -0.852967 -3.9254 0
M  V30 28892 N 2587.83 -1.21662 -2.63906 0
M  V30 28893 H 2587.38 -1.73119 -1.90755 0
M  V30 28894 H 2587.34 -0.485272 -3.10632 0
M  V30 28895 N 2591.11 0.29574 -1.548 0
M  V30 28896 C 2592.04 1.38969 -1.81005 0
M  V30 28897 C 2593.02 1.48533 -0.66157 0
M  V30 28898 O 2594.2 1.65512 -0.902103 0
M  V30 28899 C 2591.33 2.76832 -1.95146 0
M  V30 28900 C 2590.38 2.84665 -3.17597 0
M  V30 28901 S 2591.21 2.46224 -4.75536 0
M  V30 28902 C 2592.37 3.86105 -4.92619 0
M  V30 28903 H 2592.6 1.16533 -2.73509 0
M  V30 28904 H 2590.13 0.494142 -1.46279 0
M  V30 28905 H 2592.09 3.56235 -2.03978 0
M  V30 28906 H 2590.75 2.96533 -1.0357 0
M  V30 28907 H 2589.94 3.85797 -3.2431 0
M  V30 28908 H 2589.55 2.13262 -3.07238 0
M  V30 28909 H 2591.84 4.81155 -4.76965 0
M  V30 28910 H 2592.78 3.84359 -5.94705 0
M  V30 28911 H 2593.19 3.76352 -4.20737 0
M  V30 28912 N 2592.59 1.47346 0.559187 0
M  V30 28913 C 2593.52 1.55741 1.68158 0
M  V30 28914 C 2594.53 0.443772 1.56635 0
M  V30 28915 O 2595.72 0.713287 1.63629 0
M  V30 28916 C 2592.82 1.44376 3.06609 0
M  V30 28917 C 2591.99 2.70274 3.43905 0
M  V30 28918 C 2591.05 2.52773 4.61511 0
M  V30 28919 O 2590.08 3.2658 4.66191 0
M  V30 28920 N 2591.28 1.6047 5.5788 0
M  V30 28921 H 2594.05 2.52525 1.61403 0
M  V30 28922 H 2591.61 1.437 0.745775 0
M  V30 28923 H 2593.6 1.30405 3.83114 0
M  V30 28924 H 2592.17 0.55682 3.07601 0
M  V30 28925 H 2591.39 2.99019 2.56868 0
M  V30 28926 H 2592.68 3.53858 3.65598 0
M  V30 28927 H 2592.08 0.99652 5.56854 0
M  V30 28928 H 2590.63 1.52452 6.3372 0
M  V30 28929 N 2594.07 -0.805758 1.35445 0
M  V30 28930 C 2595.01 -1.91763 1.28434 0
M  V30 28931 C 2595.98 -1.65365 0.156131 0
M  V30 28932 O 2597.17 -1.87747 0.339969 0
M  V30 28933 C 2594.31 -3.28318 1.06306 0
M  V30 28934 C 2593.42 -3.66898 2.28057 0
M  V30 28935 C 2592.56 -4.92487 1.99072 0
M  V30 28936 C 2591.59 -5.23697 3.16872 0
M  V30 28937 N 2590.73 -6.40466 2.87658 0
M  V30 28938 H 2595.57 -1.97092 2.23515 0
M  V30 28939 H 2593.11 -0.964034 1.11107 0
M  V30 28940 H 2595.07 -4.07041 0.915084 0
M  V30 28941 H 2593.7 -3.22456 0.148878 0
M  V30 28942 H 2592.75 -2.8343 2.53716 0
M  V30 28943 H 2594.06 -3.85921 3.16016 0
M  V30 28944 H 2593.21 -5.79037 1.8111 0
M  V30 28945 H 2591.95 -4.75501 1.08399 0
M  V30 28946 H 2590.96 -4.35637 3.35411 0
M  V30 28947 H 2592.18 -5.42613 4.08348 0
M  V30 28948 H 2590.13 -6.24903 1.99579 0
M  V30 28949 H 2590.05 -6.59744 3.69153 0
M  V30 28950 H 2591.31 -7.30042 2.73238 0
M  V30 28951 N 2595.54 -1.19456 -1.02801 0
M  V30 28952 C 2596.82 -0.907044 -1.73298 0
M  V30 28953 C 2597.2 0.587051 -2.02773 0
M  V30 28954 O 2596.55 1.54548 -1.68307 0
M  V30 28955 C 2596.76 -1.7679 -3.00909 0
M  V30 28956 C 2598.11 -2.00275 -3.744 0
M  V30 28957 O 2599.13 -1.73949 -3.10838 0
M  V30 28958 O 2597.99 -2.44669 -4.88671 0
M  V30 28959 H 2595.08 -0.338119 -0.754722 0
M  V30 28960 H 2597.63 -1.30273 -1.08752 0
M  V30 28961 H 2596.4 -2.78015 -2.75361 0
M  V30 28962 H 2596.02 -1.37155 -3.73195 0
M  V30 28963 N 2597.02 1.21924 -0.998617 0
M  V30 28964 C 2597.95 2.26342 -0.573728 0
M  V30 28965 C 2598.93 1.65275 0.402267 0
M  V30 28966 O 2600.12 1.91998 0.291649 0
M  V30 28967 C 2597.25 3.47136 0.106778 0
M  V30 28968 C 2596.2 4.20677 -0.788342 0
M  V30 28969 C 2595.53 5.34694 0.0253987 0
M  V30 28970 C 2596.83 4.78752 -2.08792 0
M  V30 28971 H 2598.52 2.62136 -1.44655 0
M  V30 28972 H 2596.07 1.26008 -0.696998 0
M  V30 28973 H 2598.02 4.19347 0.415457 0
M  V30 28974 H 2596.74 3.10454 1.01419 0
M  V30 28975 H 2595.4 3.50308 -1.08075 0
M  V30 28976 H 2595.05 4.94254 0.933902 0
M  V30 28977 H 2594.75 5.84824 -0.57054 0
M  V30 28978 H 2596.28 6.09718 0.32804 0
M  V30 28979 H 2597.69 5.42875 -1.84282 0
M  V30 28980 H 2596.09 5.39244 -2.63317 0
M  V30 28981 H 2597.16 3.98486 -2.76291 0
M  V30 28982 N 2598.5 0.772537 1.37367 0
M  V30 28983 C 2599.41 0.160122 2.34053 0
M  V30 28984 C 2600.43 -0.6787 1.60218 0
M  V30 28985 O 2601.6 -0.598436 1.92304 0
M  V30 28986 C 2598.67 -0.708122 3.39391 0
M  V30 28987 C 2597.73 0.147248 4.29047 0
M  V30 28988 C 2596.96 -0.679651 5.29355 0
M  V30 28989 O 2597.18 -1.91669 5.37233 0
M  V30 28990 O 2596.12 -0.0884386 6.01835 0
M  V30 28991 H 2599.94 0.959103 2.88158 0
M  V30 28992 H 2597.53 0.53371 1.39542 0
M  V30 28993 H 2599.41 -1.20377 4.03841 0
M  V30 28994 H 2598.09 -1.48528 2.87613 0
M  V30 28995 H 2596.99 0.68927 3.67695 0
M  V30 28996 H 2598.33 0.887508 4.84132 0
M  V30 28997 N 2599.98 -1.48664 0.523142 0
M  V30 28998 C 2600.93 -2.26477 -0.263066 0
M  V30 28999 C 2601.91 -1.32282 -0.915982 0
M  V30 29000 O 2603.1 -1.56864 -0.819919 0
M  V30 29001 C 2600.23 -3.17176 -1.31356 0
M  V30 29002 C 2599.32 -4.18842 -0.665775 0
M  V30 29003 N 2599.71 -5.05209 0.244522 0
M  V30 29004 C 2598.01 -4.36328 -0.923787 0
M  V30 29005 C 2598.71 -5.78413 0.617545 0
M  V30 29006 N 2597.68 -5.43596 -0.0197731 0
M  V30 29007 H 2601.49 -2.90628 0.437346 0
M  V30 29008 H 2599 -1.58786 0.340703 0
M  V30 29009 H 2601 -3.71574 -1.89045 0
M  V30 29010 H 2599.66 -2.5458 -2.01542 0
M  V30 29011 H 2600.67 -5.14215 0.616712 0
M  V30 29012 H 2597.35 -3.84926 -1.61673 0
M  V30 29013 H 2598.74 -6.57918 1.36357 0
M  V30 29014 N 2601.46 -0.257958 -1.55475 0
M  V30 29015 C 2602.68 0.370453 -2.04065 0
M  V30 29016 C 2603.11 1.49946 -1.13568 0
M  V30 29017 O 2602.46 1.80827 -0.130812 0
M  V30 29018 C 2602.51 0.845176 -3.50555 0
M  V30 29019 O 2601.62 1.95388 -3.63177 0
M  V30 29020 H 2600.96 0.0792128 -0.659258 0
M  V30 29021 H 2603.49 -0.387247 -2.00902 0
M  V30 29022 H 2603.5 1.14548 -3.9159 0
M  V30 29023 H 2602.17 0.0190528 -4.15896 0
M  V30 29024 H 2600.75 1.65742 -3.34042 0
M  V30 29025 N 2602.93 1.57593 0.0150108 0
M  V30 29026 C 2603.88 2.08574 1.02955 0
M  V30 29027 C 2604.88 1.00248 1.36553 0
M  V30 29028 O 2606.08 1.18726 1.35293 0
M  V30 29029 H 2602.46 0.665792 0.349607 0
M  V30 29030 H 2604.43 2.9283 0.57388 0
M  V30 29031 C 2603.18 2.59207 2.31747 0
M  V30 29032 H 2602.5 3.42185 2.06759 0
M  V30 29033 H 2603.94 2.98574 3.01048 0
M  V30 29034 C 2602.4 1.4995 3.0169 0
M  V30 29035 O 2602.93 0.873772 3.92082 0
M  V30 29036 N 2601.14 1.2306 2.63258 0
M  V30 29037 H 2600.68 1.74128 1.89834 0
M  V30 29038 H 2600.64 0.501739 3.10371 0
M  V30 29039 N 2604.41 -0.287527 1.54955 0
M  V30 29040 C 2605.69 -1.04143 1.6557 0
M  V30 29041 C 2606.07 -2.04779 0.512708 0
M  V30 29042 O 2605.42 -2.23206 -0.488999 0
M  V30 29043 C 2605.63 -1.71125 3.04166 0
M  V30 29044 C 2606.98 -2.22826 3.61433 0
M  V30 29045 O 2608 -1.81136 3.06705 0
M  V30 29046 O 2606.86 -2.99252 4.57286 0
M  V30 29047 H 2603.95 -0.482176 0.671889 0
M  V30 29048 H 2606.5 -0.284541 1.67298 0
M  V30 29049 H 2605.27 -0.981236 3.78797 0
M  V30 29050 H 2604.89 -2.53537 3.06275 0
M  V30 29051 N 2605.89 -1.47641 -0.551365 0
M  V30 29052 C 2606.85 -1.6011 -1.64004 0
M  V30 29053 C 2607.85 -0.475787 -1.536 0
M  V30 29054 O 2609.04 -0.741016 -1.57653 0
M  V30 29055 C 2606.18 -1.55113 -3.03567 0
M  V30 29056 H 2607.37 -2.57163 -1.54295 0
M  V30 29057 H 2604.92 -1.35918 -0.771752 0
M  V30 29058 H 2605.66 -0.594576 -3.18803 0
M  V30 29059 H 2605.44 -2.36789 -3.12527 0
M  V30 29060 H 2606.93 -1.66989 -3.82759 0
M  V30 29061 N 2607.37 0.798563 -1.3587 0
M  V30 29062 C 2608.3 1.92526 -1.32121 0
M  V30 29063 C 2609.28 1.68987 -0.194239 0
M  V30 29064 O 2610.46 1.90234 -0.39046 0
M  V30 29065 C 2607.59 3.29402 -1.10053 0
M  V30 29066 C 2606.55 3.67442 -2.19477 0
M  V30 29067 C 2605.87 5.02568 -1.82564 0
M  V30 29068 C 2607.17 3.7698 -3.61501 0
M  V30 29069 H 2608.87 1.9592 -2.26397 0
M  V30 29070 H 2606.41 0.941211 -1.08983 0
M  V30 29071 H 2608.37 4.07833 -1.06068 0
M  V30 29072 H 2607.09 3.26371 -0.122252 0
M  V30 29073 H 2605.75 2.91302 -2.22573 0
M  V30 29074 H 2605.4 4.96049 -0.833336 0
M  V30 29075 H 2605.1 5.2899 -2.55819 0
M  V30 29076 H 2606.62 5.83429 -1.80118 0
M  V30 29077 H 2608.04 4.45624 -3.60683 0
M  V30 29078 H 2606.43 4.14879 -4.33584 0
M  V30 29079 H 2607.5 2.78322 -3.9707 0
M  V30 29080 N 2608.85 1.19999 1.02166 0
M  V30 29081 C 2609.79 0.944265 2.106 0
M  V30 29082 C 2610.76 -0.123635 1.65639 0
M  V30 29083 O 2611.95 0.0200276 1.90789 0
M  V30 29084 C 2609.09 0.496925 3.41504 0
M  V30 29085 C 2608.2 1.63241 3.99971 0
M  V30 29086 C 2607.34 1.13588 5.18913 0
M  V30 29087 C 2606.38 2.24478 5.69452 0
M  V30 29088 N 2605.51 1.7608 6.79662 0
M  V30 29089 H 2610.35 1.87264 2.31811 0
M  V30 29090 H 2607.89 0.933503 1.13684 0
M  V30 29091 H 2609.85 0.218916 4.16625 0
M  V30 29092 H 2608.48 -0.394452 3.20381 0
M  V30 29093 H 2607.53 2.02545 3.21993 0
M  V30 29094 H 2608.84 2.4676 4.33487 0
M  V30 29095 H 2608 0.813534 6.01221 0
M  V30 29096 H 2606.73 0.270519 4.86949 0
M  V30 29097 H 2605.74 2.57535 4.85753 0
M  V30 29098 H 2606.96 3.11482 6.03453 0
M  V30 29099 H 2604.91 0.91863 6.49536 0
M  V30 29100 H 2604.83 2.53183 7.12344 0
M  V30 29101 H 2606.1 1.4683 7.65546 0
M  V30 29102 N 2610.32 -1.21392 1.00507 0
M  V30 29103 C 2611.29 -2.21986 0.570498 0
M  V30 29104 C 2612.29 -1.56873 -0.353183 0
M  V30 29105 O 2613.48 -1.73608 -0.14346 0
M  V30 29106 C 2610.61 -3.40483 -0.168496 0
M  V30 29107 H 2611.8 -2.61948 1.46026 0
M  V30 29108 H 2609.36 -1.34655 0.793589 0
M  V30 29109 H 2610.09 -3.0601 -1.07369 0
M  V30 29110 H 2609.88 -3.88964 0.494892 0
M  V30 29111 H 2611.37 -4.15056 -0.460289 0
M  V30 29112 N 2611.8 -0.779811 -1.36955 0
M  V30 29113 C 2612.73 -0.12968 -2.28833 0
M  V30 29114 C 2613.75 0.655485 -1.49021 0
M  V30 29115 O 2614.94 0.492249 -1.71578 0
M  V30 29116 C 2612.04 0.839734 -3.28332 0
M  V30 29117 C 2611.21 0.106673 -4.3727 0
M  V30 29118 C 2610.27 0.990626 -5.16791 0
M  V30 29119 O 2609.29 0.451416 -5.67407 0
M  V30 29120 N 2610.5 2.31601 -5.32298 0
M  V30 29121 H 2613.26 -0.918853 -2.85267 0
M  V30 29122 H 2610.82 -0.632868 -1.49018 0
M  V30 29123 H 2612.81 1.4347 -3.78416 0
M  V30 29124 H 2611.38 1.52983 -2.72607 0
M  V30 29125 H 2610.6 -0.669285 -3.88477 0
M  V30 29126 H 2611.89 -0.399553 -5.07229 0
M  V30 29127 H 2611.29 2.77834 -4.92772 0
M  V30 29128 H 2609.85 2.86085 -5.85661 0
M  V30 29129 N 2613.28 1.48384 -0.531019 0
M  V30 29130 C 2614.56 1.95485 0.0671445 0
M  V30 29131 C 2614.94 1.47327 1.51189 0
M  V30 29132 O 2614.29 0.70024 2.17506 0
M  V30 29133 C 2614.5 3.48962 -0.0511819 0
M  V30 29134 C 2615.84 4.24464 0.107557 0
M  V30 29135 O 2616.87 3.56193 0.0225622 0
M  V30 29136 O 2615.73 5.45752 0.285876 0
M  V30 29137 H 2612.82 0.823245 0.078722 0
M  V30 29138 H 2615.37 1.58901 -0.59569 0
M  V30 29139 H 2614.14 3.76738 -1.05754 0
M  V30 29140 H 2613.76 3.92243 0.650456 0
M  V30 29141 N 2614.76 0.2662 1.55336 0
M  V30 29142 C 2615.69 -0.618941 2.25147 0
M  V30 29143 C 2616.67 -1.16602 1.23847 0
M  V30 29144 O 2617.85 -1.20181 1.52546 0
M  V30 29145 C 2614.98 -1.80723 2.96575 0
M  V30 29146 C 2613.94 -1.39208 4.04729 0
M  V30 29147 C 2613.26 -2.66275 4.63683 0
M  V30 29148 C 2614.56 -0.548851 5.19408 0
M  V30 29149 H 2616.26 -0.036759 2.99377 0
M  V30 29150 H 2613.8 -0.0162398 1.43991 0
M  V30 29151 H 2615.76 -2.43226 3.44121 0
M  V30 29152 H 2614.48 -2.4151 2.19865 0
M  V30 29153 H 2613.14 -0.790288 3.5798 0
M  V30 29154 H 2612.79 -3.25301 3.83651 0
M  V30 29155 H 2612.49 -2.39213 5.36704 0
M  V30 29156 H 2614.01 -3.29642 5.13973 0
M  V30 29157 H 2615.43 -1.07866 5.63061 0
M  V30 29158 H 2613.82 -0.373488 5.98937 0
M  V30 29159 H 2614.89 0.434479 4.8295 0
M  V30 29160 N 2616.24 -1.57599 -0.0066531 0
M  V30 29161 C 2617.18 -2.08001 -1.0002 0
M  V30 29162 C 2618.15 -0.973967 -1.34548 0
M  V30 29163 O 2619.34 -1.24598 -1.44499 0
M  V30 29164 C 2616.48 -2.58256 -2.28905 0
M  V30 29165 C 2615.59 -3.82738 -2.00339 0
M  V30 29166 C 2614.73 -4.21519 -3.23257 0
M  V30 29167 C 2613.77 -5.38855 -2.90347 0
M  V30 29168 N 2612.9 -5.72961 -4.05783 0
M  V30 29169 H 2617.74 -2.92625 -0.563448 0
M  V30 29170 H 2615.28 -1.44665 -0.266567 0
M  V30 29171 H 2617.24 -2.85469 -3.04242 0
M  V30 29172 H 2615.87 -1.76517 -2.70262 0
M  V30 29173 H 2614.92 -3.62473 -1.154 0
M  V30 29174 H 2616.23 -4.68178 -1.72078 0
M  V30 29175 H 2615.39 -4.49979 -4.06945 0
M  V30 29176 H 2614.12 -3.34774 -3.54651 0
M  V30 29177 H 2613.13 -5.10126 -2.05066 0
M  V30 29178 H 2614.35 -6.27271 -2.60208 0
M  V30 29179 H 2612.3 -4.89175 -4.37086 0
M  V30 29180 H 2612.22 -6.52961 -3.81023 0
M  V30 29181 H 2613.49 -6.06009 -4.90278 0
M  V30 29182 N 2617.72 0.279305 -1.55105 0
M  V30 29183 C 2618.96 1.00949 -1.7462 0
M  V30 29184 C 2619.28 1.87675 -0.551129 0
M  V30 29185 O 2620.48 2.64124 -0.628554 0
M  V30 29186 C 2618.94 1.84471 -3.09028 0
M  V30 29187 C 2618.55 1.02642 -4.36083 0
M  V30 29188 C 2620.29 2.56957 -3.37895 0
M  V30 29189 C 2618.2 1.85566 -5.61533 0
M  V30 29190 H 2617.13 0.380629 -0.650875 0
M  V30 29191 H 2619.78 0.265444 -1.8157 0
M  V30 29192 H 2618.16 2.62947 -2.961 0
M  V30 29193 H 2619.34 0.286273 -4.5991 0
M  V30 29194 H 2617.65 0.416391 -4.14313 0
M  V30 29195 H 2620.25 3.19391 -4.28828 0
M  V30 29196 H 2620.59 3.26916 -2.57743 0
M  V30 29197 H 2621.12 1.85516 -3.51893 0
M  V30 29198 H 2617.86 1.20039 -6.44415 0
M  V30 29199 H 2617.38 2.57195 -5.41859 0
M  V30 29200 H 2619.06 2.43086 -5.99598 0
M  V30 29201 N 2619.19 1.47931 0.543528 0
M  V30 29202 C 2620.13 1.57516 1.66497 0
M  V30 29203 C 2621.14 0.46036 1.56155 0
M  V30 29204 O 2622.33 0.730602 1.62863 0
M  V30 29205 C 2619.43 1.4762 3.0506 0
M  V30 29206 C 2618.6 2.73906 3.4102 0
M  V30 29207 C 2617.66 2.57653 4.58804 0
M  V30 29208 O 2616.69 3.31506 4.62701 0
M  V30 29209 N 2617.89 1.66378 5.56146 0
M  V30 29210 H 2620.65 2.54223 1.58716 0
M  V30 29211 H 2618.21 1.44483 0.730492 0
M  V30 29212 H 2620.21 1.34461 3.8171 0
M  V30 29213 H 2618.78 0.589413 3.06993 0
M  V30 29214 H 2618 3.01727 2.53682 0
M  V30 29215 H 2619.28 3.57716 3.61825 0
M  V30 29216 H 2618.68 1.05553 5.55765 0
M  V30 29217 H 2617.24 1.59165 6.32068 0
M  V30 29218 N 2620.67 -0.791347 1.36292 0
M  V30 29219 C 2621.58 -1.93525 1.32609 0
M  V30 29220 C 2622.6 -1.72492 0.228572 0
M  V30 29221 O 2623.77 -1.96062 0.460605 0
M  V30 29222 C 2620.84 -3.28357 1.11277 0
M  V30 29223 C 2619.9 -3.62181 2.30486 0
M  V30 29224 C 2619.13 -4.90579 2.10162 0
M  V30 29225 O 2619.36 -5.60163 1.07582 0
M  V30 29226 O 2618.29 -5.23014 2.97893 0
M  V30 29227 H 2622.12 -1.99581 2.28913 0
M  V30 29228 H 2619.7 -0.931323 1.16819 0
M  V30 29229 H 2621.58 -4.09045 1.01291 0
M  V30 29230 H 2620.26 -3.23197 0.180349 0
M  V30 29231 H 2619.16 -2.81806 2.46041 0
M  V30 29232 H 2620.5 -3.72062 3.22228 0
M  V30 29233 N 2622.15 -1.2054 -1.01528 0
M  V30 29234 C 2623.06 -0.97115 -2.13555 0
M  V30 29235 C 2624.08 0.073406 -1.73845 0
M  V30 29236 O 2625.25 -0.114334 -2.01075 0
M  V30 29237 C 2622.32 -0.527699 -3.42661 0
M  V30 29238 C 2621.38 -1.64326 -3.96605 0
M  V30 29239 C 2620.61 -1.22087 -5.19548 0
M  V30 29240 O 2620.83 -0.0901201 -5.70329 0
M  V30 29241 O 2619.77 -2.02881 -5.66677 0
M  V30 29242 H 2623.59 -1.90917 -2.36187 0
M  V30 29243 H 2621.18 -0.989382 -1.11945 0
M  V30 29244 H 2623.06 -0.289695 -4.20403 0
M  V30 29245 H 2621.74 0.381723 -3.21441 0
M  V30 29246 H 2620.64 -1.93556 -3.20136 0
M  V30 29247 H 2621.98 -2.52973 -4.22215 0
M  V30 29248 N 2623.63 1.20858 -1.01149 0
M  V30 29249 C 2624.56 2.25721 -0.597702 0
M  V30 29250 C 2625.54 1.65692 0.384714 0
M  V30 29251 O 2626.72 1.92296 0.271269 0
M  V30 29252 C 2623.85 3.4723 0.0699539 0
M  V30 29253 C 2622.81 4.19817 -0.832917 0
M  V30 29254 C 2622.13 5.34691 -0.0313142 0
M  V30 29255 C 2623.43 4.7651 -2.13858 0
M  V30 29256 H 2625.13 2.60587 -1.47428 0
M  V30 29257 H 2622.67 1.25261 -0.710323 0
M  V30 29258 H 2624.63 4.19764 0.370956 0
M  V30 29259 H 2623.35 3.11512 0.981205 0
M  V30 29260 H 2622.01 3.49142 -1.11784 0
M  V30 29261 H 2621.66 4.95217 0.881428 0
M  V30 29262 H 2621.36 5.84186 -0.632536 0
M  V30 29263 H 2622.88 6.10032 0.263353 0
M  V30 29264 H 2624.3 5.4089 -1.90029 0
M  V30 29265 H 2622.69 5.36421 -2.69022 0
M  V30 29266 H 2623.76 3.95533 -2.80502 0
M  V30 29267 N 2625.11 0.787064 1.3654 0
M  V30 29268 C 2626.52 0.468467 1.5257 0
M  V30 29269 C 2626.72 -1.01358 1.74152 0
M  V30 29270 O 2625.78 -1.79912 1.77166 0
M  V30 29271 C 2627.09 1.29686 2.71297 0
M  V30 29272 C 2628.64 1.29032 2.85166 0
M  V30 29273 C 2629.11 2.1024 4.06895 0
M  V30 29274 N 2630.6 2.07673 4.14036 0
M  V30 29275 C 2631.34 2.6728 5.07296 0
M  V30 29276 N 2630.84 3.35735 6.06015 0
M  V30 29277 N 2632.63 2.57026 4.99894 0
M  V30 29278 H 2624.78 1.74714 1.20785 0
M  V30 29279 H 2627.04 0.742543 0.589351 0
M  V30 29280 H 2626.75 2.34777 2.61864 0
M  V30 29281 H 2626.62 0.936543 3.65388 0
M  V30 29282 H 2629.01 0.247336 2.94062 0
M  V30 29283 H 2629.09 1.69038 1.91989 0
M  V30 29284 H 2628.73 3.14567 3.9876 0
M  V30 29285 H 2628.66 1.67605 4.99215 0
M  V30 29286 H 2631.16 1.57849 3.43354 0
M  V30 29287 H 2631.47 3.78553 6.73734 0
M  V30 29288 H 2629.81 3.39837 6.06247 0
M  V30 29289 H 2633 2.03149 4.2172 0
M  V30 29290 H 2633.18 3.03772 5.72387 0
M  V30 29291 N 2626.58 -1.48101 0.53888 0
M  V30 29292 C 2627.83 -2.01699 0.00598865 0
M  V30 29293 C 2628.15 -1.42043 -1.34474 0
M  V30 29294 O 2629.35 -1.87193 -1.9665 0
M  V30 29295 C 2627.81 -3.59878 -0.0396994 0
M  V30 29296 C 2627.42 -4.28521 1.30667 0
M  V30 29297 C 2629.16 -4.21291 -0.52095 0
M  V30 29298 C 2627.07 -5.78657 1.22108 0
M  V30 29299 H 2626 -0.753998 -0.0015313 0
M  V30 29300 H 2628.65 -1.70276 0.683993 0
M  V30 29301 H 2627.03 -3.88182 -0.782969 0
M  V30 29302 H 2628.2 -4.11879 2.0662 0
M  V30 29303 H 2626.52 -3.79018 1.72437 0
M  V30 29304 H 2629.12 -5.31288 -0.60309 0
M  V30 29305 H 2629.46 -3.87213 -1.52879 0
M  V30 29306 H 2629.99 -3.9745 0.166904 0
M  V30 29307 H 2626.73 -6.17324 2.20435 0
M  V30 29308 H 2626.25 -5.97687 0.503055 0
M  V30 29309 H 2627.93 -6.40491 0.915458 0
M  V30 29310 N 2628.06 -0.274434 -1.55192 0
M  V30 29311 C 2629.02 0.60024 -2.21201 0
M  V30 29312 C 2630.02 1.08185 -1.18965 0
M  V30 29313 O 2631.21 0.982132 -1.43874 0
M  V30 29314 C 2628.35 1.82804 -2.87742 0
M  V30 29315 H 2629.54 0.0239155 -2.9989 0
M  V30 29316 H 2627.09 -0.0250467 -1.5628 0
M  V30 29317 H 2627.83 2.44489 -2.13062 0
M  V30 29318 H 2627.61 1.49063 -3.62661 0
M  V30 29319 H 2629.1 2.45005 -3.38175 0
M  V30 29320 N 2629.54 1.576 -0.00170483 0
M  V30 29321 C 2630.49 2.05012 0.997708 0
M  V30 29322 C 2631.47 0.945173 1.30212 0
M  V30 29323 O 2632.67 1.20893 1.29282 0
M  V30 29324 C 2629.79 2.55837 2.28915 0
M  V30 29325 C 2628.88 3.73211 2.0143 0
M  V30 29326 N 2629.27 4.84836 1.4411 0
M  V30 29327 C 2627.57 3.81174 2.31565 0
M  V30 29328 C 2628.27 5.6626 1.33135 0
M  V30 29329 N 2627.25 5.12315 1.81754 0
M  V30 29330 H 2631.05 2.88726 0.549047 0
M  V30 29331 H 2628.56 1.61114 0.203951 0
M  V30 29332 H 2630.56 2.8808 3.01356 0
M  V30 29333 H 2629.22 1.73542 2.74433 0
M  V30 29334 H 2630.23 5.05651 1.11969 0
M  V30 29335 H 2626.91 3.09737 2.79945 0
M  V30 29336 H 2628.3 6.65973 0.89045 0
M  V30 29337 N 2631.02 -0.271076 1.55251 0
M  V30 29338 C 2631.95 -1.36072 1.83193 0
M  V30 29339 C 2632.93 -1.47462 0.685117 0
M  V30 29340 O 2634.11 -1.64056 0.928321 0
M  V30 29341 C 2631.24 -2.73692 1.99525 0
M  V30 29342 C 2630.29 -2.79576 3.22086 0
M  V30 29343 S 2631.12 -2.38627 4.79393 0
M  V30 29344 C 2632.27 -3.78219 4.987 0
M  V30 29345 H 2632.51 -1.12167 2.75329 0
M  V30 29346 H 2630.04 -0.470808 1.47047 0
M  V30 29347 H 2632 -3.52945 2.0962 0
M  V30 29348 H 2630.66 -2.94848 1.08275 0
M  V30 29349 H 2629.85 -3.80589 3.30406 0
M  V30 29350 H 2629.45 -2.08347 3.10592 0
M  V30 29351 H 2631.75 -4.73506 4.84559 0
M  V30 29352 H 2632.69 -3.74849 6.00744 0
M  V30 29353 H 2633.1 -3.69611 4.26671 0
M  V30 29354 N 2632.5 -1.48217 -0.535675 0
M  V30 29355 C 2633.45 -1.58717 -1.63685 0
M  V30 29356 C 2634.43 -0.444642 -1.54634 0
M  V30 29357 O 2635.62 -0.695771 -1.62751 0
M  V30 29358 C 2632.75 -1.62471 -3.0242 0
M  V30 29359 C 2631.84 -2.82184 -3.16596 0
M  V30 29360 N 2632.23 -4.06663 -3.00764 0
M  V30 29361 C 2630.53 -2.79397 -3.4764 0
M  V30 29362 C 2631.23 -4.86951 -3.18204 0
M  V30 29363 N 2630.2 -4.19662 -3.45521 0
M  V30 29364 H 2634.01 -2.52712 -1.50046 0
M  V30 29365 H 2631.52 -1.4451 -0.740992 0
M  V30 29366 H 2633.52 -1.68086 -3.81514 0
M  V30 29367 H 2632.18 -0.695882 -3.17155 0
M  V30 29368 H 2633.19 -4.37189 -2.77644 0
M  V30 29369 H 2629.86 -1.95746 -3.68768 0
M  V30 29370 H 2631.25 -5.95722 -3.10749 0
M  V30 29371 N 2633.97 0.784108 -1.3671 0
M  V30 29372 C 2634.9 1.91114 -1.34156 0
M  V30 29373 C 2635.89 1.68772 -0.212151 0
M  V30 29374 O 2637.07 1.89809 -0.410615 0
M  V30 29375 C 2634.2 3.28216 -1.13541 0
M  V30 29376 C 2633.15 3.65094 -2.23362 0
M  V30 29377 C 2632.48 5.00603 -1.87884 0
M  V30 29378 C 2633.78 3.73125 -3.65479 0
M  V30 29379 H 2635.47 1.93508 -2.28463 0
M  V30 29380 H 2633.02 0.929599 -1.09975 0
M  V30 29381 H 2634.97 4.06685 -1.10388 0
M  V30 29382 H 2633.7 3.26223 -0.156861 0
M  V30 29383 H 2632.36 2.88925 -2.2565 0
M  V30 29384 H 2632 4.95137 -0.885902 0
M  V30 29385 H 2631.7 5.26247 -2.61415 0
M  V30 29386 H 2633.23 5.81486 -1.86296 0
M  V30 29387 H 2634.64 4.41773 -3.6539 0
M  V30 29388 H 2633.04 4.10257 -4.3796 0
M  V30 29389 H 2634.11 2.74095 -4 0
M  V30 29390 N 2635.45 1.21076 1.00888 0
M  V30 29391 C 2636.4 0.966548 2.09586 0
M  V30 29392 C 2637.37 -0.10606 1.65761 0
M  V30 29393 O 2638.55 0.0402623 1.90758 0
M  V30 29394 C 2635.69 0.533118 3.40957 0
M  V30 29395 C 2634.81 1.67474 3.98217 0
M  V30 29396 C 2633.94 1.19085 5.1768 0
M  V30 29397 C 2632.98 2.30506 5.67039 0
M  V30 29398 N 2632.12 1.83279 6.77756 0
M  V30 29399 H 2636.96 1.89712 2.29812 0
M  V30 29400 H 2634.5 0.945509 1.12688 0
M  V30 29401 H 2636.45 0.263093 4.1637 0
M  V30 29402 H 2635.08 -0.360449 3.20781 0
M  V30 29403 H 2634.14 2.05949 3.19827 0
M  V30 29404 H 2635.45 2.51343 4.30846 0
M  V30 29405 H 2634.6 0.877256 6.00324 0
M  V30 29406 H 2633.34 0.322151 4.86635 0
M  V30 29407 H 2632.35 2.62673 4.82994 0
M  V30 29408 H 2633.57 3.17865 6.00115 0
M  V30 29409 H 2631.52 0.98747 6.48525 0
M  V30 29410 H 2631.43 2.60724 7.09619 0
M  V30 29411 H 2632.7 1.54942 7.63946 0
M  V30 29412 N 2636.93 -1.2032 1.01789 0
M  V30 29413 C 2637.84 -2.26826 0.598938 0
M  V30 29414 C 2638.86 -1.70147 -0.36415 0
M  V30 29415 O 2640.03 -2.00142 -0.224777 0
M  V30 29416 C 2637.1 -3.46657 -0.054916 0
M  V30 29417 C 2636.16 -4.18559 0.954279 0
M  V30 29418 C 2635.39 -5.32669 0.331533 0
M  V30 29419 O 2635.61 -5.63751 -0.868411 0
M  V30 29420 O 2634.55 -5.9269 1.0489 0
M  V30 29421 H 2638.37 -2.6488 1.48567 0
M  V30 29422 H 2635.96 -1.26963 0.787456 0
M  V30 29423 H 2637.84 -4.19301 -0.420028 0
M  V30 29424 H 2636.52 -3.10474 -0.915822 0
M  V30 29425 H 2635.42 -3.48081 1.37078 0
M  V30 29426 H 2636.76 -4.58685 1.78519 0
M  V30 29427 N 2638.41 -0.794293 -1.3612 0
M  V30 29428 C 2639.34 -0.153943 -2.28682 0
M  V30 29429 C 2640.35 0.639643 -1.49708 0
M  V30 29430 O 2641.54 0.474023 -1.72091 0
M  V30 29431 C 2638.64 0.804863 -3.29204 0
M  V30 29432 C 2637.82 0.0602892 -4.37358 0
M  V30 29433 C 2636.87 0.935758 -5.17813 0
M  V30 29434 O 2635.9 0.39121 -5.67854 0
M  V30 29435 N 2637.1 2.25942 -5.34725 0
M  V30 29436 H 2639.87 -0.949058 -2.84276 0
M  V30 29437 H 2637.43 -0.648637 -1.48338 0
M  V30 29438 H 2639.42 1.39449 -3.79916 0
M  V30 29439 H 2637.99 1.50083 -2.74215 0
M  V30 29440 H 2637.21 -0.71045 -3.87745 0
M  V30 29441 H 2638.5 -0.453329 -5.06776 0
M  V30 29442 H 2637.9 2.72592 -4.95691 0
M  V30 29443 H 2636.45 2.79857 -5.88662 0
M  V30 29444 N 2639.89 1.47813 -0.546727 0
M  V30 29445 C 2640.82 2.27896 0.244156 0
M  V30 29446 C 2641.83 1.36379 0.889086 0
M  V30 29447 O 2643.02 1.6129 0.764704 0
M  V30 29448 C 2640.12 3.10307 1.36246 0
M  V30 29449 C 2639.29 4.29715 0.816306 0
M  V30 29450 C 2638.35 4.93804 1.8178 0
M  V30 29451 O 2637.38 5.52514 1.36808 0
M  V30 29452 N 2638.58 4.87552 3.15076 0
M  V30 29453 H 2641.35 2.96412 -0.442746 0
M  V30 29454 H 2638.91 1.57326 -0.382123 0
M  V30 29455 H 2640.9 3.50049 2.03096 0
M  V30 29456 H 2639.47 2.44102 1.95276 0
M  V30 29457 H 2638.69 3.9419 -0.0286674 0
M  V30 29458 H 2639.98 5.06975 0.430579 0
M  V30 29459 H 2639.37 4.41035 3.54267 0
M  V30 29460 H 2637.93 5.31345 3.77512 0
M  V30 29461 N 2641.36 0.28266 1.55044 0
M  V30 29462 C 2642.27 -0.61143 2.26492 0
M  V30 29463 C 2643.29 -1.16381 1.2935 0
M  V30 29464 O 2644.47 -1.1925 1.623 0
M  V30 29465 C 2641.53 -1.77558 2.97782 0
M  V30 29466 C 2640.59 -1.25911 4.1042 0
M  V30 29467 C 2639.83 -2.36778 4.78301 0
M  V30 29468 O 2640.05 -3.56295 4.45432 0
M  V30 29469 O 2638.98 -2.04507 5.66092 0
M  V30 29470 H 2642.81 -0.0324082 3.03683 0
M  V30 29471 H 2640.39 0.0497838 1.49317 0
M  V30 29472 H 2642.28 -2.45421 3.42559 0
M  V30 29473 H 2640.95 -2.34155 2.23502 0
M  V30 29474 H 2639.86 -0.546732 3.70083 0
M  V30 29475 H 2641.19 -0.738801 4.86624 0
M  V30 29476 N 2642.84 -1.57597 0.0100627 0
M  V30 29477 C 2644.07 -1.95288 -0.683378 0
M  V30 29478 C 2644.49 -0.885511 -1.66746 0
M  V30 29479 O 2643.84 0.134597 -1.82003 0
M  V30 29480 C 2643.89 -3.33018 -1.40647 0
M  V30 29481 O 2643.61 -4.35659 -0.46184 0
M  V30 29482 C 2645.12 -3.85228 -2.19349 0
M  V30 29483 H 2642.34 -0.643627 -0.189696 0
M  V30 29484 H 2644.88 -2.04399 0.0641718 0
M  V30 29485 H 2643.03 -3.25184 -2.10556 0
M  V30 29486 H 2643.45 -5.15394 -0.973124 0
M  V30 29487 H 2644.92 -4.83998 -2.65425 0
M  V30 29488 H 2645.4 -3.18464 -3.02452 0
M  V30 29489 H 2646.01 -3.9627 -1.54435 0
M  V30 29490 N 2644.32 0.262839 -1.55393 0
M  V30 29491 C 2645.57 0.990912 -1.75681 0
M  V30 29492 C 2645.88 1.8708 -0.571003 0
M  V30 29493 O 2647.09 2.63442 -0.656532 0
M  V30 29494 C 2645.54 1.81183 -3.10968 0
M  V30 29495 C 2645.15 0.980111 -4.37147 0
M  V30 29496 C 2646.9 2.53359 -3.40602 0
M  V30 29497 C 2644.8 1.796 -5.6347 0
M  V30 29498 H 2643.73 0.373704 -0.654875 0
M  V30 29499 H 2646.38 0.246171 -1.81841 0
M  V30 29500 H 2644.77 2.59792 -2.98872 0
M  V30 29501 H 2645.94 0.237477 -4.60188 0
M  V30 29502 H 2644.26 0.372424 -4.14731 0
M  V30 29503 H 2646.85 3.14825 -4.32191 0
M  V30 29504 H 2647.2 3.24164 -2.61196 0
M  V30 29505 H 2647.73 1.81773 -3.53841 0
M  V30 29506 H 2644.47 1.13197 -6.45652 0
M  V30 29507 H 2643.99 2.51433 -5.44556 0
M  V30 29508 H 2645.67 2.36713 -6.02143 0
M  V30 29509 N 2645.8 1.48499 0.527807 0
M  V30 29510 C 2647.08 1.47117 1.28902 0
M  V30 29511 C 2647.46 0.184044 2.10296 0
M  V30 29512 O 2646.8 -0.834181 2.12729 0
M  V30 29513 C 2647.01 2.73445 2.16861 0
M  V30 29514 C 2648.36 3.21861 2.7693 0
M  V30 29515 O 2649.39 2.74377 2.27147 0
M  V30 29516 O 2648.24 4.04492 3.67489 0
M  V30 29517 H 2645.34 0.587633 0.581907 0
M  V30 29518 H 2647.88 1.60735 0.544282 0
M  V30 29519 H 2646.66 3.58635 1.56515 0
M  V30 29520 H 2646.28 2.62558 2.98578 0
M  V30 29521 N 2647.28 -0.776847 1.37123 0
M  V30 29522 C 2648.22 -1.88996 1.32473 0
M  V30 29523 C 2649.19 -1.64996 0.191172 0
M  V30 29524 O 2650.38 -1.86983 0.379716 0
M  V30 29525 C 2647.52 -3.2599 1.13246 0
M  V30 29526 C 2646.63 -3.61978 2.35788 0
M  V30 29527 C 2645.77 -4.88154 2.09474 0
M  V30 29528 C 2644.81 -5.16858 3.27909 0
M  V30 29529 N 2643.94 -6.34221 3.01179 0
M  V30 29530 H 2648.78 -1.92306 2.27645 0
M  V30 29531 H 2646.32 -0.94025 1.13127 0
M  V30 29532 H 2648.28 -4.05008 1.00122 0
M  V30 29533 H 2646.91 -3.22068 0.217243 0
M  V30 29534 H 2645.96 -2.77984 2.59671 0
M  V30 29535 H 2647.27 -3.79131 3.24131 0
M  V30 29536 H 2646.43 -5.75065 1.93351 0
M  V30 29537 H 2645.17 -4.73095 1.1846 0
M  V30 29538 H 2644.17 -4.28424 3.44576 0
M  V30 29539 H 2645.4 -5.33829 4.19766 0
M  V30 29540 H 2643.34 -6.20529 2.1279 0
M  V30 29541 H 2643.26 -6.51765 3.83064 0
M  V30 29542 H 2644.53 -7.24082 2.88662 0
M  V30 29543 N 2648.76 -1.2161 -1.00244 0
M  V30 29544 C 2649.69 -1.00176 -2.10919 0
M  V30 29545 C 2650.67 0.0741288 -1.69938 0
M  V30 29546 O 2651.85 -0.0862094 -1.94009 0
M  V30 29547 C 2648.98 -0.568416 -3.42617 0
M  V30 29548 C 2647.94 -1.58916 -3.97404 0
M  V30 29549 C 2647.26 -1.01196 -5.25037 0
M  V30 29550 C 2648.56 -2.97668 -4.29175 0
M  V30 29551 H 2650.26 -1.92743 -2.29108 0
M  V30 29552 H 2647.8 -0.928121 -1.101 0
M  V30 29553 H 2649.75 -0.405629 -4.19443 0
M  V30 29554 H 2648.48 0.392904 -3.24228 0
M  V30 29555 H 2647.14 -1.73955 -3.227 0
M  V30 29556 H 2646.79 -0.0422849 -5.02982 0
M  V30 29557 H 2646.49 -1.6938 -5.62658 0
M  V30 29558 H 2648.01 -0.860554 -6.04505 0
M  V30 29559 H 2649.42 -2.86058 -4.96834 0
M  V30 29560 H 2647.82 -3.62889 -4.77945 0
M  V30 29561 H 2648.89 -3.48321 -3.37343 0
M  V30 29562 N 2650.23 1.19778 -1.02425 0
M  V30 29563 C 2651.65 1.41382 -0.740484 0
M  V30 29564 C 2651.85 1.89794 0.676794 0
M  V30 29565 O 2650.91 2.07173 1.44346 0
M  V30 29566 C 2652.22 2.42892 -1.77268 0
M  V30 29567 C 2653.77 2.56646 -1.7917 0
M  V30 29568 C 2654.24 3.61405 -2.81337 0
M  V30 29569 N 2655.73 3.68897 -2.80124 0
M  V30 29570 C 2656.47 4.49634 -3.55832 0
M  V30 29571 N 2655.96 5.34115 -4.4124 0
M  V30 29572 N 2657.76 4.4424 -3.44394 0
M  V30 29573 H 2649.91 0.86673 -1.93911 0
M  V30 29574 H 2652.17 0.443083 -0.838082 0
M  V30 29575 H 2651.88 2.14334 -2.78844 0
M  V30 29576 H 2651.75 3.41998 -1.59114 0
M  V30 29577 H 2654.14 2.84529 -0.782752 0
M  V30 29578 H 2654.22 1.57709 -2.01398 0
M  V30 29579 H 2653.86 3.34265 -3.824 0
M  V30 29580 H 2653.79 4.59982 -2.56367 0
M  V30 29581 H 2656.28 3.08558 -2.18176 0
M  V30 29582 H 2656.6 5.92827 -4.95758 0
M  V30 29583 H 2654.94 5.33591 -4.45315 0
M  V30 29584 H 2658.13 3.7728 -2.77087 0
M  V30 29585 H 2658.31 5.06924 -4.03649 0
M  V30 29586 N 2651.71 0.801501 1.35697 0
M  V30 29587 C 2652.96 0.378745 1.98519 0
M  V30 29588 C 2653.28 -1.05635 1.63909 0
M  V30 29589 O 2652.55 -1.73004 0.919043 0
M  V30 29590 H 2651.13 0.137055 0.734319 0
M  V30 29591 H 2653.79 1.02622 1.65695 0
M  V30 29592 H 2652.89 0.480338 3.08382 0
M  V30 29593 N 2653.19 -1.47521 0.554558 0
M  V30 29594 C 2654.44 -2.01681 0.0273812 0
M  V30 29595 C 2654.75 -1.43461 -1.32959 0
M  V30 29596 O 2655.96 -1.89268 -1.94653 0
M  V30 29597 C 2654.41 -3.599 -0.00152731 0
M  V30 29598 C 2654.02 -4.27111 1.35204 0
M  V30 29599 C 2655.77 -4.2182 -0.476237 0
M  V30 29600 C 2653.67 -5.77329 1.28239 0
M  V30 29601 H 2652.6 -0.753972 0.00646594 0
M  V30 29602 H 2655.25 -1.69541 0.702015 0
M  V30 29603 H 2653.64 -3.88991 -0.741753 0
M  V30 29604 H 2654.81 -4.09665 2.10977 0
M  V30 29605 H 2653.12 -3.77167 1.76447 0
M  V30 29606 H 2655.72 -5.31898 -0.546706 0
M  V30 29607 H 2656.06 -3.88813 -1.48763 0
M  V30 29608 H 2656.6 -3.9725 0.20905 0
M  V30 29609 H 2653.34 -6.14951 2.2697 0
M  V30 29610 H 2652.86 -5.9712 0.566419 0
M  V30 29611 H 2654.54 -6.39484 0.983339 0
M  V30 29612 N 2654.67 -0.290879 -1.54892 0
M  V30 29613 C 2655.91 0.321832 -2.0023 0
M  V30 29614 C 2656.25 1.54314 -1.17902 0
M  V30 29615 O 2655.52 1.92848 -0.252964 0
M  V30 29616 C 2655.8 0.688453 -3.53458 0
M  V30 29617 C 2655.66 -0.541287 -4.46531 0
M  V30 29618 C 2656.98 1.51888 -4.13059 0
M  V30 29619 H 2654.1 0.115502 -0.727893 0
M  V30 29620 H 2656.74 -0.400963 -1.85721 0
M  V30 29621 H 2654.89 1.30427 -3.65952 0
M  V30 29622 H 2656.56 -1.17981 -4.45958 0
M  V30 29623 H 2654.8 -1.17643 -4.17543 0
M  V30 29624 H 2655.47 -0.240772 -5.51475 0
M  V30 29625 H 2657.95 0.998649 -4.03938 0
M  V30 29626 H 2656.83 1.74419 -5.20451 0
M  V30 29627 H 2657.09 2.50492 -3.64289 0
M  V30 29628 N 2656.15 1.57589 -0.0184203 0
M  V30 29629 C 2657.37 1.96053 0.676599 0
M  V30 29630 C 2657.8 0.894337 1.65479 0
M  V30 29631 O 2657.15 -0.145817 1.80713 0
M  V30 29632 C 2657.2 3.33616 1.36866 0
M  V30 29633 O 2656.31 3.29223 2.48366 0
M  V30 29634 H 2655.65 0.639533 0.178589 0
M  V30 29635 H 2658.18 2.04455 -0.077092 0
M  V30 29636 H 2658.19 3.69605 1.7279 0
M  V30 29637 H 2656.86 4.10764 0.651564 0
M  V30 29638 H 2655.44 3.04938 2.14633 0
M  V30 29639 N 2657.62 -0.254594 1.5553 0
M  V30 29640 C 2658.53 -1.33674 1.92791 0
M  V30 29641 C 2659.55 -1.5307 0.827383 0
M  V30 29642 O 2660.73 -1.66841 1.1281 0
M  V30 29643 C 2657.79 -2.67272 2.20832 0
M  V30 29644 C 2656.85 -2.56464 3.44274 0
M  V30 29645 C 2656.08 -3.83691 3.70968 0
M  V30 29646 O 2656.31 -4.85221 2.99861 0
M  V30 29647 O 2655.24 -3.82786 4.64498 0
M  V30 29648 H 2659.07 -1.05066 2.84947 0
M  V30 29649 H 2656.65 -0.454698 1.42313 0
M  V30 29650 H 2658.53 -3.46233 2.4021 0
M  V30 29651 H 2657.21 -2.95627 1.31856 0
M  V30 29652 H 2656.12 -1.75815 3.30212 0
M  V30 29653 H 2657.45 -2.33055 4.33528 0
M  V30 29654 N 2659.1 -1.48777 -0.519925 0
M  V30 29655 C 2660.05 -1.64047 -1.6235 0
M  V30 29656 C 2661.02 -0.482279 -1.58944 0
M  V30 29657 O 2662.2 -0.707003 -1.77218 0
M  V30 29658 C 2659.34 -1.69552 -3.00576 0
M  V30 29659 C 2658.46 -2.96547 -3.1414 0
M  V30 29660 C 2657.59 -2.9315 -4.42986 0
M  V30 29661 C 2656.63 -4.14805 -4.50114 0
M  V30 29662 N 2655.77 -4.09428 -5.70363 0
M  V30 29663 H 2660.61 -2.58284 -1.48639 0
M  V30 29664 H 2658.14 -1.28078 -0.723493 0
M  V30 29665 H 2660.1 -1.70726 -3.80668 0
M  V30 29666 H 2658.73 -0.787973 -3.13035 0
M  V30 29667 H 2657.78 -3.05072 -2.27234 0
M  V30 29668 H 2659.1 -3.86533 -3.15268 0
M  V30 29669 H 2658.25 -2.92781 -5.3138 0
M  V30 29670 H 2656.99 -2.0091 -4.44395 0
M  V30 29671 H 2655.99 -4.15439 -3.60126 0
M  V30 29672 H 2657.22 -5.08216 -4.50436 0
M  V30 29673 H 2655.17 -3.20014 -5.72649 0
M  V30 29674 H 2655.08 -4.93129 -5.73027 0
M  V30 29675 H 2656.35 -4.13133 -6.61016 0
M  V30 29676 N 2660.58 0.769564 -1.37534 0
M  V30 29677 C 2661.81 1.55868 -1.36061 0
M  V30 29678 C 2662.22 1.88724 0.0535109 0
M  V30 29679 O 2661.58 1.51611 1.01588 0
M  V30 29680 C 2661.63 2.86763 -2.20112 0
M  V30 29681 O 2661.35 2.55315 -3.56014 0
M  V30 29682 C 2662.85 3.80983 -2.26643 0
M  V30 29683 H 2660.07 0.482813 -0.465975 0
M  V30 29684 H 2662.62 0.953654 -1.80902 0
M  V30 29685 H 2660.77 3.43684 -1.78774 0
M  V30 29686 H 2661.19 3.39151 -4.00096 0
M  V30 29687 H 2662.66 4.69826 -2.89771 0
M  V30 29688 H 2663.14 4.20272 -1.27547 0
M  V30 29689 H 2663.74 3.29991 -2.68302 0
M  V30 29690 N 2662.06 1.22139 0.995977 0
M  V30 29691 C 2663.34 0.952672 1.70832 0
M  V30 29692 C 2663.72 -0.533083 2.04258 0
M  V30 29693 O 2663.06 -1.50031 1.72345 0
M  V30 29694 C 2663.27 1.84706 2.96116 0
M  V30 29695 C 2664.62 2.10131 3.68958 0
M  V30 29696 O 2665.65 1.82129 3.06117 0
M  V30 29697 O 2664.5 2.57539 4.82012 0
M  V30 29698 H 2661.6 0.35801 0.745492 0
M  V30 29699 H 2664.14 1.33111 1.0526 0
M  V30 29700 H 2662.92 2.85218 2.67893 0
M  V30 29701 H 2662.54 1.47002 3.69427 0
M  V30 29702 N 2663.54 -1.19233 1.03059 0
M  V30 29703 C 2664.48 -2.22514 0.612871 0
M  V30 29704 C 2665.45 -1.6183 -0.374195 0
M  V30 29705 O 2666.64 -1.88873 -0.270468 0
M  V30 29706 C 2663.78 -3.45088 -0.0284144 0
M  V30 29707 C 2662.89 -4.2015 1.0049 0
M  V30 29708 C 2662.03 -5.30154 0.333195 0
M  V30 29709 C 2661.07 -5.96975 1.3523 0
M  V30 29710 N 2660.2 -6.98539 0.706283 0
M  V30 29711 H 2665.04 -2.57602 1.49817 0
M  V30 29712 H 2662.58 -1.26563 0.74968 0
M  V30 29713 H 2664.54 -4.15106 -0.417475 0
M  V30 29714 H 2663.17 -3.1065 -0.87728 0
M  V30 29715 H 2662.22 -3.4906 1.512 0
M  V30 29716 H 2663.53 -4.65983 1.77937 0
M  V30 29717 H 2662.69 -6.06599 -0.110618 0
M  V30 29718 H 2661.42 -4.85396 -0.473462 0
M  V30 29719 H 2660.43 -5.19279 1.80636 0
M  V30 29720 H 2661.65 -6.43817 2.16048 0
M  V30 29721 H 2659.6 -6.55951 -0.0802514 0
M  V30 29722 H 2659.52 -7.42571 1.41861 0
M  V30 29723 H 2660.79 -7.78973 0.286528 0
M  V30 29724 N 2665.01 -0.808686 -1.3527 0
M  V30 29725 C 2665.94 -0.235022 -2.32314 0
M  V30 29726 C 2666.93 0.640682 -1.57573 0
M  V30 29727 O 2668.11 0.570518 -1.85631 0
M  V30 29728 C 2665.24 0.615541 -3.41802 0
M  V30 29729 C 2664.19 -0.161842 -4.27694 0
M  V30 29730 C 2663.52 0.810556 -5.28521 0
M  V30 29731 C 2664.82 -1.36202 -5.04229 0
M  V30 29732 H 2666.51 -1.0458 -2.80541 0
M  V30 29733 H 2664.06 -0.504339 -1.34879 0
M  V30 29734 H 2666.01 1.02695 -4.08695 0
M  V30 29735 H 2664.74 1.45923 -2.92189 0
M  V30 29736 H 2663.4 -0.554446 -3.62383 0
M  V30 29737 H 2663.04 1.6498 -4.75174 0
M  V30 29738 H 2662.74 0.294719 -5.8686 0
M  V30 29739 H 2664.27 1.22012 -5.98285 0
M  V30 29740 H 2665.68 -1.02538 -5.64056 0
M  V30 29741 H 2664.08 -1.81249 -5.72074 0
M  V30 29742 H 2665.15 -2.14759 -4.34749 0
M  V30 29743 N 2666.49 1.47225 -0.562374 0
M  V30 29744 C 2667.72 2.07355 -0.0432997 0
M  V30 29745 C 2668.14 1.41151 1.2433 0
M  V30 29746 O 2667.5 0.488257 1.74602 0
M  V30 29747 C 2667.55 3.60365 0.130224 0
M  V30 29748 O 2666.65 3.9481 1.1916 0
M  V30 29749 H 2665.99 0.661829 -0.0536451 0
M  V30 29750 H 2668.52 1.89168 -0.779528 0
M  V30 29751 H 2668.53 4.06557 0.342809 0
M  V30 29752 H 2667.21 4.07947 -0.809461 0
M  V30 29753 H 2665.79 3.60355 0.95909 0
M  V30 29754 N 2667.97 0.299089 1.54736 0
M  V30 29755 C 2668.92 -0.593618 2.24898 0
M  V30 29756 C 2669.91 -1.13857 1.25431 0
M  V30 29757 O 2671.12 -1.08943 1.43288 0
M  V30 29758 H 2667.49 -0.210033 0.722073 0
M  V30 29759 H 2669.46 0.0206945 2.98393 0
M  V30 29760 C 2668.21 -1.75493 3.00162 0
M  V30 29761 H 2667.54 -1.34483 3.76503 0
M  V30 29762 H 2668.98 -2.35567 3.52539 0
M  V30 29763 C 2667.44 -2.6579 2.0702 0
M  V30 29764 O 2667.97 -3.66832 1.63699 0
M  V30 29765 N 2666.17 -2.33482 1.73016 0
M  V30 29766 H 2665.72 -1.51361 2.08441 0
M  V30 29767 H 2665.68 -2.94165 1.1097 0
M  V30 29768 N 2669.45 -1.57577 0.0267774 0
M  V30 29769 C 2670.38 -2.0558 -0.990553 0
M  V30 29770 C 2671.36 -0.951088 -1.31883 0
M  V30 29771 O 2672.54 -1.22124 -1.4359 0
M  V30 29772 C 2669.67 -2.4759 -2.31121 0
M  V30 29773 C 2668.72 -3.69059 -2.1377 0
M  V30 29774 S 2669.55 -5.15811 -1.43871 0
M  V30 29775 C 2670.71 -5.61115 -2.77311 0
M  V30 29776 H 2670.94 -2.91549 -0.581925 0
M  V30 29777 H 2668.47 -1.53289 -0.184849 0
M  V30 29778 H 2670.43 -2.72459 -3.07044 0
M  V30 29779 H 2669.09 -1.61972 -2.69117 0
M  V30 29780 H 2668.28 -3.96292 -3.11398 0
M  V30 29781 H 2667.89 -3.4433 -1.4599 0
M  V30 29782 H 2670.18 -5.65211 -3.73555 0
M  V30 29783 H 2671.12 -6.6069 -2.54745 0
M  V30 29784 H 2671.53 -4.88756 -2.8245 0
M  V30 29785 N 2670.93 0.246342 -1.55663 0
M  V30 29786 C 2671.86 1.32791 -1.86813 0
M  V30 29787 C 2672.87 1.44264 -0.754438 0
M  V30 29788 O 2674.06 1.45604 -1.03256 0
M  V30 29789 C 2671.16 2.70643 -2.03975 0
M  V30 29790 C 2670.33 2.8143 -3.34837 0
M  V30 29791 C 2669.39 4.0013 -3.41734 0
M  V30 29792 O 2668.42 3.89632 -4.14941 0
M  V30 29793 N 2669.62 5.13325 -2.71067 0
M  V30 29794 H 2672.39 1.06404 -2.80175 0
M  V30 29795 H 2669.95 0.436443 -1.55906 0
M  V30 29796 H 2671.94 3.48389 -2.0593 0
M  V30 29797 H 2670.51 2.89735 -1.17355 0
M  V30 29798 H 2669.73 1.90355 -3.45193 0
M  V30 29799 H 2671.02 2.85588 -4.2109 0
M  V30 29800 H 2670.41 5.24747 -2.11323 0
M  V30 29801 H 2668.97 5.89204 -2.78714 0
M  V30 29802 N 2672.4 1.4905 0.512027 0
M  V30 29803 C 2673.35 1.64905 1.61477 0
M  V30 29804 C 2674.32 0.490701 1.58686 0
M  V30 29805 O 2675.51 0.716391 1.7684 0
M  V30 29806 C 2672.65 1.71144 2.99673 0
M  V30 29807 C 2671.76 2.98209 3.12563 0
M  V30 29808 C 2670.89 2.95495 4.41425 0
M  V30 29809 C 2669.93 4.17187 4.47908 0
M  V30 29810 N 2669.07 4.12447 5.68183 0
M  V30 29811 H 2673.91 2.59069 1.47267 0
M  V30 29812 H 2671.45 1.2846 0.716691 0
M  V30 29813 H 2673.41 1.72742 3.79758 0
M  V30 29814 H 2672.04 0.804563 3.12613 0
M  V30 29815 H 2671.09 3.06273 2.25613 0
M  V30 29816 H 2672.4 3.88199 3.13214 0
M  V30 29817 H 2671.55 2.95595 5.29819 0
M  V30 29818 H 2670.29 2.03264 4.43323 0
M  V30 29819 H 2669.3 4.17343 3.57918 0
M  V30 29820 H 2670.52 5.10598 4.47735 0
M  V30 29821 H 2668.47 3.23046 5.70944 0
M  V30 29822 H 2668.39 4.96161 5.70404 0
M  V30 29823 H 2669.65 4.16633 6.58815 0
M  V30 29824 N 2673.88 -0.762259 1.3794 0
M  V30 29825 C 2675.16 -1.5111 1.24198 0
M  V30 29826 C 2675.54 -2.1049 -0.160372 0
M  V30 29827 O 2674.89 -1.96333 -1.169 0
M  V30 29828 C 2675.1 -2.5844 2.34541 0
M  V30 29829 C 2676.45 -3.25583 2.72545 0
M  V30 29830 O 2677.47 -2.68741 2.33788 0
M  V30 29831 O 2676.33 -4.28373 3.3935 0
M  V30 29832 H 2673.42 -0.669718 0.485187 0
M  V30 29833 H 2675.97 -0.798412 1.49745 0
M  V30 29834 H 2674.74 -2.1275 3.2841 0
M  V30 29835 H 2674.36 -3.37299 2.10511 0
M  V30 29836 N 2675.36 -1.22666 -0.989486 0
M  V30 29837 C 2676.29 -1.02407 -2.09845 0
M  V30 29838 C 2677.27 0.0561004 -1.70007 0
M  V30 29839 O 2678.46 -0.106782 -1.93906 0
M  V30 29840 C 2675.59 -0.604723 -3.41995 0
M  V30 29841 C 2674.54 -1.63122 -3.95696 0
M  V30 29842 C 2673.87 -1.06759 -5.23934 0
M  V30 29843 C 2675.17 -3.02204 -4.25993 0
M  V30 29844 H 2676.86 -1.95162 -2.27051 0
M  V30 29845 H 2674.41 -0.939747 -1.09109 0
M  V30 29846 H 2676.36 -0.450093 -4.18989 0
M  V30 29847 H 2675.08 0.358493 -3.24627 0
M  V30 29848 H 2673.74 -1.77368 -3.20837 0
M  V30 29849 H 2673.39 -0.0956306 -5.02909 0
M  V30 29850 H 2673.09 -1.75338 -5.6083 0
M  V30 29851 H 2674.61 -0.924622 -6.03559 0
M  V30 29852 H 2676.03 -2.91311 -4.93772 0
M  V30 29853 H 2674.43 -3.67938 -4.74069 0
M  V30 29854 H 2675.5 -3.51879 -3.3363 0
M  V30 29855 N 2676.84 1.18685 -1.0369 0
M  V30 29856 C 2677.75 2.25844 -0.634948 0
M  V30 29857 C 2678.77 1.70705 0.337035 0
M  V30 29858 O 2679.94 2.00474 0.192908 0
M  V30 29859 C 2677.01 3.467 -0.000240995 0
M  V30 29860 C 2676.07 4.16988 -1.02075 0
M  V30 29861 C 2675.3 5.32074 -0.416234 0
M  V30 29862 O 2675.52 5.65061 0.778613 0
M  V30 29863 O 2674.46 5.90946 -1.14306 0
M  V30 29864 H 2678.28 2.62483 -1.52762 0
M  V30 29865 H 2675.87 1.25694 -0.807555 0
M  V30 29866 H 2677.75 4.19917 0.353268 0
M  V30 29867 H 2676.43 3.11892 0.866312 0
M  V30 29868 H 2675.33 3.45856 -1.42598 0
M  V30 29869 H 2676.67 4.55787 -1.85794 0
M  V30 29870 N 2678.32 0.815849 1.34839 0
M  V30 29871 C 2679.27 0.220929 2.31548 0
M  V30 29872 C 2680.26 -0.634429 1.57071 0
M  V30 29873 O 2681.47 -0.526559 1.72126 0
M  V30 29874 H 2677.84 0.0526914 0.750152 0
M  V30 29875 H 2679.81 1.05154 2.79258 0
M  V30 29876 C 2678.56 -0.608367 3.42336 0
M  V30 29877 H 2677.88 0.0404824 3.9978 0
M  V30 29878 H 2679.32 -0.990858 4.1226 0
M  V30 29879 C 2677.78 -1.77777 2.86176 0
M  V30 29880 O 2678.31 -2.87566 2.80479 0
M  V30 29881 N 2676.52 -1.59225 2.43096 0
M  V30 29882 H 2676.07 -0.699193 2.4793 0
M  V30 29883 H 2676.02 -2.37623 2.0587 0
M  V30 29884 N 2679.8 -1.46924 0.570174 0
M  V30 29885 C 2681.02 -2.07329 0.0542956 0
M  V30 29886 C 2681.45 -1.41809 -1.2358 0
M  V30 29887 O 2680.8 -0.49751 -1.7434 0
M  V30 29888 C 2680.85 -3.60429 -0.111112 0
M  V30 29889 O 2679.96 -3.95436 -1.17064 0
M  V30 29890 H 2679.3 -0.661536 0.0571541 0
M  V30 29891 H 2681.83 -1.88752 0.789549 0
M  V30 29892 H 2681.84 -4.06733 -0.321244 0
M  V30 29893 H 2680.51 -4.07512 0.831084 0
M  V30 29894 H 2679.09 -3.60859 -0.939966 0
M  V30 29895 N 2681.27 -0.307291 -1.54575 0
M  V30 29896 C 2682.22 0.581683 -2.25209 0
M  V30 29897 C 2683.22 1.1319 -1.26033 0
M  V30 29898 O 2684.42 1.08181 -1.43864 0
M  V30 29899 H 2680.8 0.206201 -0.723177 0
M  V30 29900 H 2682.77 -0.0365187 -2.98378 0
M  V30 29901 C 2681.52 1.73899 -3.01089 0
M  V30 29902 H 2680.84 1.32484 -3.77211 0
M  V30 29903 H 2682.28 2.33695 -3.53784 0
M  V30 29904 C 2680.74 2.64689 -2.08426 0
M  V30 29905 O 2681.27 3.65958 -1.65642 0
M  V30 29906 N 2679.47 2.32561 -1.74252 0
M  V30 29907 H 2679.02 1.50253 -2.09241 0
M  V30 29908 H 2678.98 2.93572 -1.12529 0
M  V30 29909 N 2682.75 1.57561 -0.0351337 0
M  V30 29910 C 2683.71 2.09494 0.929782 0
M  V30 29911 C 2684.71 1.01121 1.25024 0
M  V30 29912 O 2685.9 1.27258 1.18959 0
M  V30 29913 C 2683.04 2.56581 2.24452 0
M  V30 29914 H 2684.23 2.96036 0.479883 0
M  V30 29915 H 2681.78 1.54842 0.213005 0
M  V30 29916 H 2682.52 1.73386 2.74058 0
M  V30 29917 H 2682.3 3.35761 2.02502 0
M  V30 29918 H 2683.79 2.96964 2.93602 0
M  V30 29919 N 2684.23 -0.238084 1.55791 0
M  V30 29920 C 2685.18 -1.29489 1.91053 0
M  V30 29921 C 2686.15 -1.47395 0.765759 0
M  V30 29922 O 2687.33 -1.61235 1.0202 0
M  V30 29923 C 2684.47 -2.64358 2.2183 0
M  V30 29924 C 2683.58 -2.54388 3.49157 0
M  V30 29925 C 2682.72 -3.81669 3.69462 0
M  V30 29926 C 2681.76 -3.66352 4.90359 0
M  V30 29927 N 2680.9 -4.85545 5.07139 0
M  V30 29928 H 2685.74 -0.987183 2.81174 0
M  V30 29929 H 2683.27 -0.476179 1.3918 0
M  V30 29930 H 2685.23 -3.42875 2.37681 0
M  V30 29931 H 2683.86 -2.9326 1.34902 0
M  V30 29932 H 2682.91 -1.67393 3.4159 0
M  V30 29933 H 2684.22 -2.38984 4.37822 0
M  V30 29934 H 2683.38 -4.6863 3.8532 0
M  V30 29935 H 2682.12 -3.9998 2.79047 0
M  V30 29936 H 2681.12 -2.77776 4.74469 0
M  V30 29937 H 2682.35 -3.49528 5.82243 0
M  V30 29938 H 2680.29 -5.04201 4.19663 0
M  V30 29939 H 2680.21 -4.72805 5.89908 0
M  V30 29940 H 2681.48 -5.73979 5.27417 0
M  V30 29941 N 2685.71 -1.4932 -0.504115 0
M  V30 29942 C 2686.64 -1.6867 -1.6147 0
M  V30 29943 C 2687.62 -0.535407 -1.61454 0
M  V30 29944 O 2688.8 -0.770899 -1.78244 0
M  V30 29945 C 2685.93 -1.75033 -2.99968 0
M  V30 29946 C 2684.89 -2.89921 -3.14849 0
M  V30 29947 C 2684.21 -2.81395 -4.54666 0
M  V30 29948 C 2685.51 -4.30898 -2.95168 0
M  V30 29949 H 2687.21 -2.61651 -1.45531 0
M  V30 29950 H 2684.75 -1.25914 -0.698689 0
M  V30 29951 H 2686.71 -1.87157 -3.77558 0
M  V30 29952 H 2685.43 -0.786496 -3.16989 0
M  V30 29953 H 2684.09 -2.77395 -2.39682 0
M  V30 29954 H 2683.74 -1.82926 -4.68559 0
M  V30 29955 H 2683.44 -3.58503 -4.65564 0
M  V30 29956 H 2684.96 -2.95522 -5.34321 0
M  V30 29957 H 2686.38 -4.44122 -3.62531 0
M  V30 29958 H 2684.77 -5.09204 -3.1754 0
M  V30 29959 H 2685.84 -4.45559 -1.91324 0
M  V30 29960 N 2687.19 0.754933 -1.38342 0
M  V30 29961 C 2688.12 1.87829 -1.3135 0
M  V30 29962 C 2689.13 1.61224 -0.225983 0
M  V30 29963 O 2690.32 1.71829 -0.48344 0
M  V30 29964 C 2687.42 3.23435 -1.01207 0
M  V30 29965 C 2686.59 3.77555 -2.20841 0
M  V30 29966 C 2685.65 4.91675 -1.87463 0
M  V30 29967 O 2684.68 5.06378 -2.59942 0
M  V30 29968 N 2685.88 5.74553 -0.828783 0
M  V30 29969 H 2688.64 1.94338 -2.28151 0
M  V30 29970 H 2686.21 0.934805 -1.32186 0
M  V30 29971 H 2688.2 3.9732 -0.769319 0
M  V30 29972 H 2686.77 3.12321 -0.132066 0
M  V30 29973 H 2685.99 2.95252 -2.6119 0
M  V30 29974 H 2687.28 4.10446 -3.00685 0
M  V30 29975 H 2686.67 5.65242 -0.22769 0
M  V30 29976 H 2685.23 6.48592 -0.645916 0
M  V30 29977 N 2688.66 1.23189 0.982967 0
M  V30 29978 C 2689.57 1.02743 2.10905 0
M  V30 29979 C 2690.59 -0.0272883 1.73979 0
M  V30 29980 O 2691.77 0.167605 2.00701 0
M  V30 29981 C 2688.83 0.618364 3.41141 0
M  V30 29982 C 2687.89 1.74784 3.92109 0
M  V30 29983 C 2687.12 1.35819 5.16129 0
M  V30 29984 O 2687.35 0.241301 5.69889 0
M  V30 29985 O 2686.28 2.17834 5.61099 0
M  V30 29986 H 2690.11 1.97112 2.31042 0
M  V30 29987 H 2687.69 1.01871 1.09282 0
M  V30 29988 H 2689.57 0.401056 4.19487 0
M  V30 29989 H 2688.25 -0.296364 3.2234 0
M  V30 29990 H 2687.16 2.01976 3.14891 0
M  V30 29991 H 2688.49 2.64079 4.15359 0
M  V30 29992 N 2690.14 -1.18133 1.04318 0
M  V30 29993 C 2691.09 -2.21852 0.636437 0
M  V30 29994 C 2692.06 -1.62218 -0.35701 0
M  V30 29995 O 2693.24 -1.8915 -0.25042 0
M  V30 29996 C 2690.38 -3.45099 0.00818845 0
M  V30 29997 C 2689.5 -4.1906 1.04941 0
M  V30 29998 C 2688.63 -5.29771 0.389407 0
M  V30 29999 C 2687.67 -5.95507 1.41554 0
M  V30 30000 N 2686.81 -6.9775 0.780333 0
M  V30 30001 H 2691.65 -2.55999 1.5254 0
M  V30 30002 H 2689.18 -1.25761 0.763062 0
M  V30 30003 H 2691.14 -4.15525 -0.373424 0
M  V30 30004 H 2689.77 -3.11563 -0.844282 0
M  V30 30005 H 2688.82 -3.47436 1.54894 0
M  V30 30006 H 2690.14 -4.64069 1.8287 0
M  V30 30007 H 2689.29 -6.06682 -0.0462739 0
M  V30 30008 H 2688.03 -4.85871 -0.421953 0
M  V30 30009 H 2687.03 -5.17334 1.86133 0
M  V30 30010 H 2688.26 -6.41489 2.22865 0
M  V30 30011 H 2686.21 -6.55999 -0.0106746 0
M  V30 30012 H 2686.12 -7.41024 1.49729 0
M  V30 30013 H 2687.39 -7.78625 0.369133 0
M  V30 30014 N 2691.62 -0.822988 -1.34405 0
M  V30 30015 C 2692.87 -0.407492 -1.97541 0
M  V30 30016 C 2693.18 1.03497 -1.65975 0
M  V30 30017 O 2694.39 1.55438 -2.22601 0
M  V30 30018 C 2692.84 -0.677685 -3.53462 0
M  V30 30019 C 2692.45 -2.13377 -3.93921 0
M  V30 30020 C 2694.2 -0.328358 -4.23228 0
M  V30 30021 C 2692.1 -2.34885 -5.42755 0
M  V30 30022 H 2691.03 -0.148636 -0.739205 0
M  V30 30023 H 2693.68 -1.00935 -1.53246 0
M  V30 30024 H 2692.07 -0.00565926 -3.96 0
M  V30 30025 H 2693.24 -2.84496 -3.62489 0
M  V30 30026 H 2691.56 -2.44454 -3.37092 0
M  V30 30027 H 2694.15 -0.466888 -5.32658 0
M  V30 30028 H 2694.5 0.727152 -4.099 0
M  V30 30029 H 2695.03 -0.954964 -3.86167 0
M  V30 30030 H 2691.77 -3.38942 -5.61069 0
M  V30 30031 H 2691.29 -1.6831 -5.75701 0
M  V30 30032 H 2692.97 -2.17247 -6.09436 0
M  V30 30033 N 2693.1 1.4662 -0.577957 0
M  V30 30034 C 2694.03 2.28362 0.195761 0
M  V30 30035 C 2695.04 1.38234 0.859958 0
M  V30 30036 O 2696.23 1.62876 0.73032 0
M  V30 30037 C 2693.33 3.13127 1.29634 0
M  V30 30038 C 2692.51 4.3135 0.724974 0
M  V30 30039 C 2691.56 4.97549 1.71265 0
M  V30 30040 O 2690.59 5.55292 1.25057 0
M  V30 30041 N 2691.79 4.94126 3.04663 0
M  V30 30042 H 2694.56 2.95406 -0.50552 0
M  V30 30043 H 2692.12 1.5648 -0.415408 0
M  V30 30044 H 2694.11 3.54278 1.95625 0
M  V30 30045 H 2692.68 2.48189 1.90055 0
M  V30 30046 H 2691.9 3.9404 -0.112274 0
M  V30 30047 H 2693.19 5.07774 0.322945 0
M  V30 30048 H 2692.59 4.4845 3.44832 0
M  V30 30049 H 2691.14 5.39233 3.66157 0
M  V30 30050 N 2694.58 0.315484 1.5441 0
M  V30 30051 C 2695.49 -0.56325 2.27738 0
M  V30 30052 C 2696.5 -1.13611 1.31789 0
M  V30 30053 O 2697.68 -1.15781 1.64793 0
M  V30 30054 C 2694.74 -1.71202 3.01481 0
M  V30 30055 C 2693.8 -1.17177 4.12999 0
M  V30 30056 C 2693.04 -2.26579 4.83216 0
M  V30 30057 O 2693.26 -3.46767 4.5289 0
M  V30 30058 O 2692.19 -1.92453 5.70303 0
M  V30 30059 H 2696.02 0.0320147 3.03683 0
M  V30 30060 H 2693.61 0.081445 1.49178 0
M  V30 30061 H 2695.49 -2.381 3.47687 0
M  V30 30062 H 2694.16 -2.29362 2.28418 0
M  V30 30063 H 2693.07 -0.468109 3.7116 0
M  V30 30064 H 2694.4 -0.635415 4.88081 0
M  V30 30065 N 2696.05 -1.5754 0.0434891 0
M  V30 30066 C 2696.98 -2.1411 -0.931613 0
M  V30 30067 C 2697.97 -1.06082 -1.32969 0
M  V30 30068 O 2699.15 -1.33985 -1.40576 0
M  V30 30069 C 2696.28 -2.67986 -2.20909 0
M  V30 30070 C 2695.23 -3.8093 -1.95132 0
M  V30 30071 C 2694.56 -4.21291 -3.29269 0
M  V30 30072 C 2695.86 -5.06397 -1.27904 0
M  V30 30073 H 2697.55 -2.95838 -0.460445 0
M  V30 30074 H 2695.1 -1.42309 -0.220033 0
M  V30 30075 H 2697.05 -3.06199 -2.89517 0
M  V30 30076 H 2695.78 -1.83439 -2.70218 0
M  V30 30077 H 2694.44 -3.43177 -1.28939 0
M  V30 30078 H 2694.08 -3.33706 -3.76364 0
M  V30 30079 H 2693.78 -4.97409 -3.12823 0
M  V30 30080 H 2695.31 -4.62098 -3.99121 0
M  V30 30081 H 2696.72 -5.42105 -1.86534 0
M  V30 30082 H 2695.12 -5.87607 -1.21809 0
M  V30 30083 H 2696.19 -4.84234 -0.253981 0
M  V30 30084 N 2697.53 0.229818 -1.55915 0
M  V30 30085 C 2698.48 1.28474 -1.91737 0
M  V30 30086 C 2699.45 1.46987 -0.773565 0
M  V30 30087 O 2700.63 1.60691 -1.02874 0
M  V30 30088 C 2697.77 2.63178 -2.23229 0
M  V30 30089 C 2696.89 2.52533 -3.50501 0
M  V30 30090 C 2696.02 3.79705 -3.71481 0
M  V30 30091 C 2695.06 3.63747 -4.92295 0
M  V30 30092 N 2694.2 4.82849 -5.09707 0
M  V30 30093 H 2699.04 0.972258 -2.81693 0
M  V30 30094 H 2696.58 0.468791 -1.3943 0
M  V30 30095 H 2698.53 3.4161 -2.39496 0
M  V30 30096 H 2697.16 2.9254 -1.36456 0
M  V30 30097 H 2696.22 1.65579 -3.42473 0
M  V30 30098 H 2697.53 2.36658 -4.39083 0
M  V30 30099 H 2696.68 4.6658 -3.87799 0
M  V30 30100 H 2695.42 3.98495 -2.81164 0
M  V30 30101 H 2694.43 2.75256 -4.75935 0
M  V30 30102 H 2695.65 3.46435 -5.84089 0
M  V30 30103 H 2693.6 5.01969 -4.22331 0
M  V30 30104 H 2693.51 4.6967 -5.92407 0
M  V30 30105 H 2694.78 5.71174 -5.30453 0
M  V30 30106 N 2699.01 1.49585 0.49619 0
M  V30 30107 C 2699.97 1.66087 1.57949 0
M  V30 30108 C 2700.97 0.532466 1.51728 0
M  V30 30109 O 2702.16 0.799017 1.54795 0
M  V30 30110 C 2699.3 1.66273 2.97601 0
M  V30 30111 H 2700.49 2.62713 1.44645 0
M  V30 30112 H 2698.04 1.38689 0.720775 0
M  V30 30113 H 2698.78 0.712487 3.16377 0
M  V30 30114 H 2698.56 2.48225 3.03524 0
M  V30 30115 H 2700.05 1.8108 3.76297 0
M  V30 30116 N 2700.49 -0.747586 1.3874 0
M  V30 30117 C 2701.44 -1.88281 1.36577 0
M  V30 30118 C 2702.43 -1.67534 0.250742 0
M  V30 30119 O 2703.64 -1.75029 0.420104 0
M  V30 30120 H 2700.01 -0.619562 0.426201 0
M  V30 30121 H 2701.98 -1.87222 2.32359 0
M  V30 30122 C 2700.73 -3.2583 1.21367 0
M  V30 30123 H 2700.05 -3.42384 2.0643 0
M  V30 30124 H 2701.49 -4.05491 1.23908 0
M  V30 30125 C 2699.95 -3.36807 -0.0789507 0
M  V30 30126 O 2700.48 -3.87632 -1.05378 0
M  V30 30127 N 2698.69 -2.90273 -0.137799 0
M  V30 30128 H 2698.24 -2.49103 0.656172 0
M  V30 30129 H 2698.19 -2.97998 -1.00223 0
M  V30 30130 N 2701.97 -1.23709 -0.97642 0
M  V30 30131 C 2702.88 -1.0386 -2.10357 0
M  V30 30132 C 2703.89 0.0180614 -1.73991 0
M  V30 30133 O 2705.07 -0.178247 -2.0061 0
M  V30 30134 C 2702.13 -0.636447 -3.40808 0
M  V30 30135 C 2701.19 -1.76861 -3.91176 0
M  V30 30136 C 2700.43 -1.38555 -5.15401 0
M  V30 30137 O 2700.65 -0.27152 -5.69753 0
M  V30 30138 O 2699.58 -2.20806 -5.59936 0
M  V30 30139 H 2703.41 -1.98335 -2.29994 0
M  V30 30140 H 2701 -1.0245 -1.0874 0
M  V30 30141 H 2702.88 -0.423296 -4.19269 0
M  V30 30142 H 2701.55 0.279265 -3.22493 0
M  V30 30143 H 2700.46 -2.03643 -3.13816 0
M  V30 30144 H 2701.79 -2.66278 -4.13953 0
M  V30 30145 N 2703.44 1.17579 -1.04943 0
M  V30 30146 C 2704.39 2.19453 -0.618416 0
M  V30 30147 C 2705.38 1.57184 0.343785 0
M  V30 30148 O 2706.57 1.76262 0.161419 0
M  V30 30149 C 2703.7 3.43299 0.00797812 0
M  V30 30150 C 2702.79 4.12672 -0.977899 0
M  V30 30151 N 2703.18 4.57908 -2.14834 0
M  V30 30152 C 2701.47 4.3866 -0.805825 0
M  V30 30153 C 2702.18 5.11414 -2.77183 0
M  V30 30154 N 2701.15 5.03465 -2.04998 0
M  V30 30155 H 2704.95 2.5213 -1.51023 0
M  V30 30156 H 2702.47 1.33881 -0.919225 0
M  V30 30157 H 2704.46 4.15556 0.334511 0
M  V30 30158 H 2703.12 3.12115 0.895217 0
M  V30 30159 H 2704.14 4.52076 -2.52681 0
M  V30 30160 H 2700.81 4.17489 0.0305772 0
M  V30 30161 H 2702.2 5.56555 -3.76426 0
M  V30 30162 N 2704.92 0.830104 1.33967 0
M  V30 30163 C 2705.85 0.21452 2.28194 0
M  V30 30164 C 2706.87 -0.599725 1.51351 0
M  V30 30165 O 2708.06 -0.42823 1.73287 0
M  V30 30166 C 2705.16 -0.717298 3.31222 0
M  V30 30167 C 2704.33 0.0556899 4.37365 0
M  V30 30168 C 2703.39 -0.79814 5.20112 0
M  V30 30169 O 2702.41 -0.240516 5.68692 0
M  V30 30170 N 2703.62 -2.11685 5.40527 0
M  V30 30171 H 2706.38 1.0241 2.8166 0
M  V30 30172 H 2703.94 0.687739 1.46567 0
M  V30 30173 H 2705.93 -1.29327 3.8348 0
M  V30 30174 H 2704.5 -1.4276 2.78098 0
M  V30 30175 H 2703.72 0.813004 3.85725 0
M  V30 30176 H 2705.01 0.587533 5.05396 0
M  V30 30177 H 2704.41 -2.59354 5.02745 0
M  V30 30178 H 2702.97 -2.64151 5.95875 0
M  V30 30179 N 2706.4 -1.46311 0.585725 0
M  V30 30180 C 2707.33 -2.33118 -0.133516 0
M  V30 30181 C 2708.31 -1.45527 -0.880682 0
M  V30 30182 O 2709.5 -1.74339 -0.855548 0
M  V30 30183 C 2706.63 -3.27855 -1.14579 0
M  V30 30184 C 2705.58 -4.24911 -0.513266 0
M  V30 30185 C 2704.91 -5.09178 -1.63222 0
M  V30 30186 C 2706.21 -5.1938 0.551504 0
M  V30 30187 H 2707.9 -2.93504 0.591261 0
M  V30 30188 H 2705.45 -1.41136 0.285786 0
M  V30 30189 H 2707.4 -3.87441 -1.65734 0
M  V30 30190 H 2706.12 -2.65583 -1.90088 0
M  V30 30191 H 2704.78 -3.66593 -0.0227705 0
M  V30 30192 H 2704.43 -4.43289 -2.37706 0
M  V30 30193 H 2704.13 -5.74909 -1.21463 0
M  V30 30194 H 2705.66 -5.71628 -2.14648 0
M  V30 30195 H 2707.07 -5.73164 0.124905 0
M  V30 30196 H 2705.47 -5.9347 0.88959 0
M  V30 30197 H 2706.54 -4.6313 1.43663 0
M  V30 30198 N 2707.88 -0.323668 -1.54241 0
M  V30 30199 C 2709.13 0.279771 -1.9975 0
M  V30 30200 C 2709.44 1.53238 -1.21563 0
M  V30 30201 O 2710.65 2.21182 -1.57451 0
M  V30 30202 C 2709.1 0.549052 -3.55687 0
M  V30 30203 C 2708.71 -0.68651 -4.42709 0
M  V30 30204 C 2710.46 1.11244 -4.09665 0
M  V30 30205 C 2708.36 -0.389126 -5.90118 0
M  V30 30206 H 2707.29 0.108317 -0.746179 0
M  V30 30207 H 2709.94 -0.435908 -1.78247 0
M  V30 30208 H 2708.33 1.32492 -3.73178 0
M  V30 30209 H 2709.5 -1.46196 -4.36994 0
M  V30 30210 H 2707.81 -1.17012 -3.99621 0
M  V30 30211 H 2710.41 1.34956 -5.17389 0
M  V30 30212 H 2710.75 2.06184 -3.61654 0
M  V30 30213 H 2711.29 0.397751 -3.95806 0
M  V30 30214 H 2708.03 -1.30771 -6.42323 0
M  V30 30215 H 2707.55 0.348617 -5.98786 0
M  V30 30216 H 2709.23 0.00100267 -6.47 0
M  V30 30217 N 2709.36 1.57515 -0.0518432 0
M  V30 30218 C 2710.59 1.97032 0.631361 0
M  V30 30219 C 2711 0.929409 1.64339 0
M  V30 30220 O 2710.36 -0.0862945 1.82296 0
M  V30 30221 C 2710.41 3.3663 1.31768 0
M  V30 30222 O 2710.13 4.3673 0.34617 0
M  V30 30223 C 2711.63 3.90909 2.09058 0
M  V30 30224 H 2708.85 0.648431 0.172565 0
M  V30 30225 H 2711.39 2.04157 -0.118342 0
M  V30 30226 H 2709.55 3.30652 2.01861 0
M  V30 30227 H 2709.96 5.17792 0.836135 0
M  V30 30228 H 2711.44 4.90865 2.52499 0
M  V30 30229 H 2711.91 3.26371 2.93902 0
M  V30 30230 H 2712.52 4.00225 1.43875 0
M  V30 30231 N 2710.84 -0.221546 1.56035 0
M  V30 30232 C 2711.77 -1.27776 1.95436 0
M  V30 30233 C 2712.75 -1.48887 0.82259 0
M  V30 30234 O 2713.93 -1.61071 1.08489 0
M  V30 30235 C 2711.06 -2.62755 2.27106 0
M  V30 30236 C 2710.02 -2.563 3.42774 0
M  V30 30237 C 2709.34 -3.95308 3.60049 0
M  V30 30238 C 2710.64 -2.11084 4.77745 0
M  V30 30239 H 2712.34 -0.950454 2.83913 0
M  V30 30240 H 2709.88 -0.455767 1.36597 0
M  V30 30241 H 2711.83 -3.36803 2.53262 0
M  V30 30242 H 2710.56 -2.97173 1.35483 0
M  V30 30243 H 2709.22 -1.84709 3.16667 0
M  V30 30244 H 2708.87 -4.27034 2.65802 0
M  V30 30245 H 2708.57 -3.91871 4.37848 0
M  V30 30246 H 2710.09 -4.71018 3.88554 0
M  V30 30247 H 2711.5 -2.74876 5.03106 0
M  V30 30248 H 2709.9 -2.18707 5.58827 0
M  V30 30249 H 2710.97 -1.06313 4.73102 0
M  V30 30250 N 2712.31 -1.49846 -0.48825 0
M  V30 30251 C 2713.26 -1.67453 -1.58833 0
M  V30 30252 C 2714.23 -0.515885 -1.57886 0
M  V30 30253 O 2715.42 -0.744434 -1.75678 0
M  V30 30254 C 2712.56 -1.7589 -2.96912 0
M  V30 30255 C 2711.67 -3.03144 -3.07779 0
M  V30 30256 C 2710.8 -3.0248 -4.36668 0
M  V30 30257 C 2709.84 -4.2426 -4.41214 0
M  V30 30258 N 2708.98 -4.21434 -5.6155 0
M  V30 30259 H 2713.82 -2.61379 -1.43127 0
M  V30 30260 H 2711.36 -1.29584 -0.696163 0
M  V30 30261 H 2713.31 -1.78762 -3.76962 0
M  V30 30262 H 2711.94 -0.854195 -3.11293 0
M  V30 30263 H 2711 -3.09823 -2.20712 0
M  V30 30264 H 2712.31 -3.93133 -3.06998 0
M  V30 30265 H 2711.46 -3.03986 -5.2505 0
M  V30 30266 H 2710.2 -2.10291 -4.40033 0
M  V30 30267 H 2709.21 -4.22984 -3.51233 0
M  V30 30268 H 2710.43 -5.17656 -4.39555 0
M  V30 30269 H 2708.38 -3.32088 -5.65733 0
M  V30 30270 H 2708.29 -5.05172 -5.62438 0
M  V30 30271 H 2709.56 -4.27061 -6.52104 0
M  V30 30272 N 2713.79 0.740218 -1.39135 0
M  V30 30273 C 2714.74 1.85417 -1.37437 0
M  V30 30274 C 2715.71 1.64431 -0.234851 0
M  V30 30275 O 2716.89 1.85911 -0.429158 0
M  V30 30276 C 2714.03 3.22873 -1.2185 0
M  V30 30277 C 2713.15 3.55599 -2.45302 0
M  V30 30278 C 2712.28 4.82428 -2.22343 0
M  V30 30279 C 2711.32 5.07982 -3.41497 0
M  V30 30280 N 2710.46 6.26012 -3.17888 0
M  V30 30281 H 2715.3 1.86203 -2.32664 0
M  V30 30282 H 2712.83 0.909926 -1.1558 0
M  V30 30283 H 2714.79 4.02211 -1.10825 0
M  V30 30284 H 2713.42 3.21379 -0.302557 0
M  V30 30285 H 2712.47 2.71002 -2.6695 0
M  V30 30286 H 2713.79 3.70404 -3.34069 0
M  V30 30287 H 2712.94 5.69737 -2.0853 0
M  V30 30288 H 2711.68 4.69787 -1.30962 0
M  V30 30289 H 2710.68 4.19138 -3.55814 0
M  V30 30290 H 2711.91 5.22512 -4.33772 0
M  V30 30291 H 2709.86 6.14669 -2.29167 0
M  V30 30292 H 2709.77 6.4138 -4.00209 0
M  V30 30293 H 2711.04 7.16174 -3.07758 0
M  V30 30294 N 2715.27 1.24225 0.969846 0
M  V30 30295 C 2716.55 0.988693 1.68773 0
M  V30 30296 C 2716.93 -0.489636 2.05343 0
M  V30 30297 O 2716.27 -1.46342 1.75489 0
M  V30 30298 C 2716.48 1.90946 2.92131 0
M  V30 30299 C 2717.83 2.1791 3.64418 0
M  V30 30300 O 2718.86 1.88581 3.02185 0
M  V30 30301 O 2717.72 2.67706 4.76441 0
M  V30 30302 H 2714.81 0.373743 0.73773 0
M  V30 30303 H 2717.36 1.35314 1.02413 0
M  V30 30304 H 2716.13 2.90836 2.61783 0
M  V30 30305 H 2715.75 1.54805 3.66226 0
M  V30 30306 N 2716.75 -1.1702 1.05565 0
M  V30 30307 C 2717.99 -1.8765 0.769107 0
M  V30 30308 C 2718.33 -1.81057 -0.702295 0
M  V30 30309 O 2717.6 -1.22115 -1.51388 0
M  V30 30310 C 2717.88 -3.37524 1.25498 0
M  V30 30311 C 2717.74 -3.52848 2.78959 0
M  V30 30312 C 2719.06 -4.31675 0.856994 0
M  V30 30313 H 2716.18 -0.681383 0.280866 0
M  V30 30314 H 2718.82 -1.37591 1.3103 0
M  V30 30315 H 2716.97 -3.80288 0.794583 0
M  V30 30316 H 2718.64 -3.19073 3.33151 0
M  V30 30317 H 2716.88 -2.95001 3.18051 0
M  V30 30318 H 2717.55 -4.5807 3.08019 0
M  V30 30319 H 2720.03 -3.96773 1.25341 0
M  V30 30320 H 2718.91 -5.35067 1.22452 0
M  V30 30321 H 2719.17 -4.41455 -0.238709 0
M  V30 30322 N 2718.23 -0.837197 -1.33524 0
M  V30 30323 C 2719.17 -0.257739 -2.31168 0
M  V30 30324 C 2720.17 0.60936 -1.58061 0
M  V30 30325 O 2721.37 0.499108 -1.72942 0
M  V30 30326 H 2717.75 -0.064619 -0.749219 0
M  V30 30327 H 2719.72 -1.09583 -2.7755 0
M  V30 30328 C 2718.47 0.553827 -3.43261 0
M  V30 30329 H 2717.79 -0.104079 -3.99665 0
M  V30 30330 H 2719.23 0.925146 -4.13784 0
M  V30 30331 C 2717.69 1.73202 -2.88968 0
M  V30 30332 O 2718.22 2.83068 -2.85018 0
M  V30 30333 N 2716.43 1.55338 -2.45598 0
M  V30 30334 H 2715.97 0.659661 -2.49011 0
M  V30 30335 H 2715.93 2.34318 -2.09624 0
M  V30 30336 N 2719.7 1.45999 -0.593476 0
M  V30 30337 C 2720.61 2.34207 0.135776 0
M  V30 30338 C 2721.63 1.504 0.874982 0
M  V30 30339 O 2722.81 1.83241 0.835746 0
M  V30 30340 C 2719.87 3.27778 1.12971 0
M  V30 30341 C 2718.93 4.27488 0.394006 0
M  V30 30342 C 2718.16 5.16589 1.34059 0
M  V30 30343 O 2718.39 5.08832 2.57771 0
M  V30 30344 O 2717.32 5.95934 0.845322 0
M  V30 30345 H 2721.15 2.97939 -0.588743 0
M  V30 30346 H 2718.73 1.4515 -0.35381 0
M  V30 30347 H 2720.61 3.85476 1.70254 0
M  V30 30348 H 2719.29 2.66628 1.83551 0
M  V30 30349 H 2718.2 3.73447 -0.220934 0
M  V30 30350 H 2719.53 4.91453 -0.271026 0
M  V30 30351 N 2721.18 0.331843 1.54067 0
M  V30 30352 C 2722.41 -0.26996 2.05131 0
M  V30 30353 C 2722.83 -1.45136 1.20752 0
M  V30 30354 O 2722.18 -1.80914 0.240101 0
M  V30 30355 C 2722.23 -0.696393 3.54729 0
M  V30 30356 O 2721.95 0.438017 4.35905 0
M  V30 30357 C 2723.46 -1.36014 4.21918 0
M  V30 30358 H 2720.68 -0.0541924 0.668808 0
M  V30 30359 H 2723.22 0.480435 1.98776 0
M  V30 30360 H 2721.37 -1.39675 3.61344 0
M  V30 30361 H 2721.79 0.100427 5.24404 0
M  V30 30362 H 2723.26 -1.60938 5.28018 0
M  V30 30363 H 2723.74 -2.31005 3.73542 0
M  V30 30364 H 2724.35 -0.702138 4.19464 0
M  V30 30365 N 2722.66 -1.57485 0.0601958 0
M  V30 30366 C 2723.59 -2.09018 -0.940433 0
M  V30 30367 C 2724.61 -1.01987 -1.26895 0
M  V30 30368 O 2725.79 -1.29531 -1.22817 0
M  V30 30369 C 2722.89 -2.52586 -2.2595 0
M  V30 30370 C 2722.07 -3.83056 -2.11156 0
M  V30 30371 C 2721.13 -4.1284 -3.26266 0
M  V30 30372 O 2720.15 -4.82621 -3.0177 0
M  V30 30373 N 2721.35 -3.65466 -4.51015 0
M  V30 30374 H 2724.12 -2.95491 -0.500526 0
M  V30 30375 H 2721.68 -1.6141 -0.125824 0
M  V30 30376 H 2723.67 -2.69581 -3.01842 0
M  V30 30377 H 2722.24 -1.71313 -2.61478 0
M  V30 30378 H 2721.46 -3.75554 -1.19802 0
M  V30 30379 H 2722.75 -4.68478 -1.98509 0
M  V30 30380 H 2722.15 -3.09071 -4.73806 0
M  V30 30381 H 2720.71 -3.87682 -5.23971 0
M  V30 30382 N 2724.14 0.213268 -1.5615 0
M  V30 30383 C 2725.09 1.26434 -1.93089 0
M  V30 30384 C 2726.06 1.46158 -0.789111 0
M  V30 30385 O 2727.24 1.59591 -1.04572 0
M  V30 30386 C 2724.38 2.60796 -2.26008 0
M  V30 30387 C 2723.49 2.48801 -3.5316 0
M  V30 30388 C 2722.63 3.75743 -3.75487 0
M  V30 30389 C 2721.67 3.58505 -4.96126 0
M  V30 30390 N 2720.8 4.77416 -5.14799 0
M  V30 30391 H 2725.64 0.942326 -2.82709 0
M  V30 30392 H 2723.18 0.453976 -1.3992 0
M  V30 30393 H 2725.14 3.39051 -2.43106 0
M  V30 30394 H 2723.77 2.91076 -1.39551 0
M  V30 30395 H 2722.82 1.61938 -3.4421 0
M  V30 30396 H 2724.13 2.31988 -4.41569 0
M  V30 30397 H 2723.29 4.6244 -3.92726 0
M  V30 30398 H 2722.03 3.9549 -2.85375 0
M  V30 30399 H 2721.03 2.70192 -4.78828 0
M  V30 30400 H 2722.26 3.4022 -5.8773 0
M  V30 30401 H 2720.2 4.97461 -4.27631 0
M  V30 30402 H 2720.12 4.6336 -5.97355 0
M  V30 30403 H 2721.39 5.65516 -5.36481 0
M  V30 30404 N 2725.62 1.50103 0.480296 0
M  V30 30405 C 2726.56 1.68293 1.57943 0
M  V30 30406 C 2727.53 0.524251 1.5761 0
M  V30 30407 O 2728.72 0.75374 1.75281 0
M  V30 30408 C 2725.86 1.77462 2.95975 0
M  V30 30409 C 2724.97 3.04771 3.06167 0
M  V30 30410 C 2724.11 3.04792 4.35058 0
M  V30 30411 C 2723.15 4.26593 4.38958 0
M  V30 30412 N 2722.28 4.24406 5.59307 0
M  V30 30413 H 2727.12 2.62134 1.41738 0
M  V30 30414 H 2724.66 1.29951 0.689281 0
M  V30 30415 H 2726.62 1.80759 3.76008 0
M  V30 30416 H 2725.25 0.870691 3.10836 0
M  V30 30417 H 2724.3 3.10989 2.19066 0
M  V30 30418 H 2725.61 3.94756 3.04909 0
M  V30 30419 H 2724.77 3.06767 5.2343 0
M  V30 30420 H 2723.5 2.12622 4.38912 0
M  V30 30421 H 2722.51 4.24841 3.48985 0
M  V30 30422 H 2723.73 5.1998 4.36804 0
M  V30 30423 H 2721.68 3.35084 5.63963 0
M  V30 30424 H 2721.6 5.08148 5.59751 0
M  V30 30425 H 2722.87 4.30513 6.4983 0
M  V30 30426 N 2727.09 -0.732829 1.39526 0
M  V30 30427 C 2728.34 -1.49464 1.3707 0
M  V30 30428 C 2728.67 -1.94172 -0.0326825 0
M  V30 30429 O 2727.95 -1.66941 -0.998042 0
M  V30 30430 C 2728.23 -2.73281 2.34499 0
M  V30 30431 C 2728.08 -2.34578 3.83788 0
M  V30 30432 C 2729.4 -3.75387 2.29723 0
M  V30 30433 H 2726.52 -0.542174 0.499215 0
M  V30 30434 H 2729.16 -0.837753 1.70534 0
M  V30 30435 H 2727.31 -3.2933 2.06093 0
M  V30 30436 H 2728.99 -1.84143 4.22953 0
M  V30 30437 H 2727.23 -1.6678 4.00458 0
M  V30 30438 H 2727.9 -3.23254 4.47449 0
M  V30 30439 H 2730.38 -3.28927 2.54845 0
M  V30 30440 H 2729.25 -4.59684 2.9997 0
M  V30 30441 H 2729.51 -4.22463 1.30299 0
M  V30 30442 N 2728.57 -1.24737 -0.963244 0
M  V30 30443 C 2729.8 -1.11785 -1.74697 0
M  V30 30444 C 2730.22 0.325226 -1.85267 0
M  V30 30445 O 2729.58 1.23551 -1.32683 0
M  V30 30446 C 2729.63 -1.76737 -3.14319 0
M  V30 30447 O 2728.73 -1.04116 -3.99041 0
M  V30 30448 H 2728.07 -0.390777 -0.536833 0
M  V30 30449 H 2730.6 -1.65133 -1.20798 0
M  V30 30450 H 2730.61 -1.82674 -3.64821 0
M  V30 30451 H 2729.29 -2.81732 -3.05941 0
M  V30 30452 H 2727.87 -1.05998 -3.57518 0
M  V30 30453 N 2730.05 1.16459 -1.06184 0
M  V30 30454 C 2730.96 2.24446 -0.68271 0
M  V30 30455 C 2731.98 1.71381 0.30075 0
M  V30 30456 O 2733.15 2.00838 0.150341 0
M  V30 30457 C 2730.22 3.46621 -0.0737811 0
M  V30 30458 C 2729.28 4.14729 -1.10897 0
M  V30 30459 C 2728.51 5.31072 -0.529001 0
M  V30 30460 O 2728.73 5.66585 0.65858 0
M  V30 30461 O 2727.67 5.88389 -1.26815 0
M  V30 30462 H 2731.49 2.59184 -1.58295 0
M  V30 30463 H 2729.08 1.23952 -0.834035 0
M  V30 30464 H 2730.96 4.20571 0.264118 0
M  V30 30465 H 2729.64 3.1366 0.79996 0
M  V30 30466 H 2728.54 3.42754 -1.49903 0
M  V30 30467 H 2729.88 4.51743 -1.9542 0
M  V30 30468 N 2731.53 0.844266 1.33079 0
M  V30 30469 C 2732.46 0.226319 2.27075 0
M  V30 30470 C 2733.44 -0.62969 1.49912 0
M  V30 30471 O 2734.62 -0.588771 1.79069 0
M  V30 30472 C 2731.75 -0.681724 3.31768 0
M  V30 30473 C 2730.8 0.0995314 4.26384 0
M  V30 30474 S 2731.63 1.46103 5.15184 0
M  V30 30475 C 2732.79 0.558429 6.23404 0
M  V30 30476 H 2733.02 1.02317 2.79139 0
M  V30 30477 H 2730.55 0.641316 1.40451 0
M  V30 30478 H 2732.51 -1.20001 3.92568 0
M  V30 30479 H 2731.17 -1.45229 2.78509 0
M  V30 30480 H 2730.36 -0.591645 5.00515 0
M  V30 30481 H 2729.97 0.549056 3.69948 0
M  V30 30482 H 2732.26 -0.241553 6.77069 0
M  V30 30483 H 2733.2 1.27007 6.96617 0
M  V30 30484 H 2733.61 0.13738 5.64333 0
M  V30 30485 N 2733.01 -1.45682 0.60121 0
M  V30 30486 C 2733.92 -2.34275 -0.123354 0
M  V30 30487 C 2734.93 -1.50862 -0.866994 0
M  V30 30488 O 2736.11 -1.83682 -0.826017 0
M  V30 30489 C 2733.17 -3.28372 -1.11231 0
M  V30 30490 C 2732.23 -4.27691 -0.37133 0
M  V30 30491 C 2731.47 -5.17292 -1.31318 0
M  V30 30492 O 2731.69 -5.10192 -2.55069 0
M  V30 30493 O 2730.62 -5.96374 -0.813706 0
M  V30 30494 H 2734.45 -2.97622 0.604535 0
M  V30 30495 H 2732.04 -1.4496 0.361503 0
M  V30 30496 H 2733.92 -3.86373 -1.68208 0
M  V30 30497 H 2732.59 -2.67598 -1.82134 0
M  V30 30498 H 2731.5 -3.73325 0.240736 0
M  V30 30499 H 2732.83 -4.91303 0.297085 0
M  V30 30500 N 2734.48 -0.340009 -1.53889 0
M  V30 30501 C 2735.42 0.552711 -2.22436 0
M  V30 30502 C 2736.43 1.06679 -1.22977 0
M  V30 30503 O 2737.62 0.977548 -1.49353 0
M  V30 30504 C 2734.72 1.77297 -2.88823 0
M  V30 30505 C 2733.89 1.39478 -4.14565 0
M  V30 30506 C 2732.95 2.47434 -4.64395 0
M  V30 30507 O 2731.98 2.10889 -5.28691 0
M  V30 30508 N 2733.18 3.78631 -4.40021 0
M  V30 30509 H 2735.94 -0.0343196 -2.9968 0
M  V30 30510 H 2733.5 -0.163968 -1.61068 0
M  V30 30511 H 2735.5 2.48942 -3.19076 0
M  V30 30512 H 2734.07 2.26746 -2.15186 0
M  V30 30513 H 2733.29 0.509253 -3.90897 0
M  V30 30514 H 2734.57 1.11804 -4.96364 0
M  V30 30515 H 2733.97 4.11111 -3.88593 0
M  V30 30516 H 2732.53 4.46457 -4.74889 0
M  V30 30517 N 2735.96 1.57451 -0.0685468 0
M  V30 30518 C 2736.89 2.15565 0.897432 0
M  V30 30519 C 2737.87 1.08184 1.31264 0
M  V30 30520 O 2739.06 1.36204 1.38427 0
M  V30 30521 C 2736.19 2.71466 2.16618 0
M  V30 30522 C 2735.14 3.83986 1.89047 0
M  V30 30523 C 2734.47 4.26476 3.22525 0
M  V30 30524 C 2735.77 5.08368 1.19831 0
M  V30 30525 H 2737.46 2.96533 0.413321 0
M  V30 30526 H 2735.01 1.42641 0.197365 0
M  V30 30527 H 2736.96 3.10766 2.84609 0
M  V30 30528 H 2735.69 1.87715 2.67265 0
M  V30 30529 H 2734.35 3.45185 1.23463 0
M  V30 30530 H 2733.99 3.39651 3.71007 0
M  V30 30531 H 2733.69 5.02323 3.0487 0
M  V30 30532 H 2735.22 4.6839 3.91719 0
M  V30 30533 H 2736.63 5.45004 1.77886 0
M  V30 30534 H 2735.03 5.89471 1.12445 0
M  V30 30535 H 2736.1 4.84577 0.176911 0
M  V30 30536 N 2737.44 -0.204984 1.56261 0
M  V30 30537 C 2738.39 -1.25408 1.93756 0
M  V30 30538 C 2739.36 -1.45738 0.796851 0
M  V30 30539 O 2740.54 -1.59034 1.05417 0
M  V30 30540 C 2737.68 -2.59594 2.27388 0
M  V30 30541 C 2736.8 -2.46925 3.54475 0
M  V30 30542 C 2735.93 -3.73747 3.77474 0
M  V30 30543 C 2734.97 -3.55869 4.9802 0
M  V30 30544 N 2734.11 -4.74679 5.17324 0
M  V30 30545 H 2738.95 -0.92732 2.83204 0
M  V30 30546 H 2736.48 -0.446549 1.40158 0
M  V30 30547 H 2738.44 -3.37757 2.44901 0
M  V30 30548 H 2737.07 -2.90332 1.41093 0
M  V30 30549 H 2736.12 -1.6011 3.45064 0
M  V30 30550 H 2737.44 -2.29643 4.42793 0
M  V30 30551 H 2736.59 -4.60351 3.95173 0
M  V30 30552 H 2735.33 -3.93971 2.87468 0
M  V30 30553 H 2734.33 -2.67649 4.80254 0
M  V30 30554 H 2735.56 -3.37099 5.89526 0
M  V30 30555 H 2733.51 -4.95186 4.30264 0
M  V30 30556 H 2733.42 -4.60186 5.99804 0
M  V30 30557 H 2734.69 -5.62663 5.39473 0
M  V30 30558 N 2738.92 -1.50356 -0.472329 0
M  V30 30559 C 2739.87 -1.69129 -1.57048 0
M  V30 30560 C 2740.84 -0.532602 -1.57329 0
M  V30 30561 O 2742.02 -0.763025 -1.74879 0
M  V30 30562 C 2739.16 -1.79029 -2.9503 0
M  V30 30563 C 2738.27 -3.06391 -3.04547 0
M  V30 30564 C 2737.41 -3.07095 -4.33435 0
M  V30 30565 C 2736.45 -4.28915 -4.3669 0
M  V30 30566 N 2735.59 -4.27366 -5.57048 0
M  V30 30567 H 2740.43 -2.62882 -1.40346 0
M  V30 30568 H 2737.96 -1.30315 -0.68238 0
M  V30 30569 H 2739.92 -1.8275 -3.75044 0
M  V30 30570 H 2738.55 -0.887164 -3.1037 0
M  V30 30571 H 2737.6 -3.12147 -2.17413 0
M  V30 30572 H 2738.91 -3.96367 -3.02811 0
M  V30 30573 H 2738.07 -3.09538 -5.21796 0
M  V30 30574 H 2736.81 -2.14946 -4.37778 0
M  V30 30575 H 2735.81 -4.26686 -3.46727 0
M  V30 30576 H 2737.04 -5.22289 -4.3404 0
M  V30 30577 H 2734.98 -3.3807 -5.62178 0
M  V30 30578 H 2734.9 -5.11109 -5.57049 0
M  V30 30579 H 2736.17 -4.33953 -6.47537 0
M  V30 30580 N 2740.4 0.725419 -1.39912 0
M  V30 30581 C 2741.33 1.85001 -1.35305 0
M  V30 30582 C 2742.34 1.60708 -0.260131 0
M  V30 30583 O 2743.53 1.70765 -0.519779 0
M  V30 30584 C 2740.63 3.21216 -1.08045 0
M  V30 30585 C 2739.8 3.72786 -2.288 0
M  V30 30586 C 2738.86 4.87588 -1.9785 0
M  V30 30587 O 2737.89 5.0075 -2.70625 0
M  V30 30588 N 2739.09 5.72666 -0.950468 0
M  V30 30589 H 2741.86 1.89455 -2.32222 0
M  V30 30590 H 2739.42 0.906556 -1.34139 0
M  V30 30591 H 2741.41 3.95599 -0.853424 0
M  V30 30592 H 2739.98 3.11971 -0.198284 0
M  V30 30593 H 2739.2 2.89645 -2.67394 0
M  V30 30594 H 2740.49 4.03976 -3.09324 0
M  V30 30595 H 2739.89 5.64631 -0.347535 0
M  V30 30596 H 2738.44 6.47076 -0.783346 0
M  V30 30597 N 2741.88 1.25246 0.956615 0
M  V30 30598 C 2743.12 1.09273 1.69536 0
M  V30 30599 C 2743.44 -0.36647 1.92136 0
M  V30 30600 O 2744.64 -0.646603 2.63688 0
M  V30 30601 C 2743.1 1.90725 3.05208 0
M  V30 30602 C 2742.71 3.41125 2.9041 0
M  V30 30603 C 2744.45 1.83315 3.82878 0
M  V30 30604 C 2742.36 4.1488 4.21461 0
M  V30 30605 H 2741.29 0.405313 0.635797 0
M  V30 30606 H 2743.94 1.49425 1.0651 0
M  V30 30607 H 2742.32 1.43395 3.69126 0
M  V30 30608 H 2743.5 3.96114 2.35437 0
M  V30 30609 H 2741.81 3.49606 2.26197 0
M  V30 30610 H 2744.41 2.35715 4.7994 0
M  V30 30611 H 2744.75 0.800644 4.08528 0
M  V30 30612 H 2745.28 2.28385 3.25707 0
M  V30 30613 H 2742.02 5.18536 4.01 0
M  V30 30614 H 2741.54 3.64674 4.76207 0
M  V30 30615 H 2743.22 4.22486 4.90015 0
M  V30 30616 N 2743.35 -1.15894 1.068 0
M  V30 30617 C 2744.3 -2.20452 0.683352 0
M  V30 30618 C 2745.27 -1.62939 -0.322521 0
M  V30 30619 O 2746.46 -1.89638 -0.210242 0
M  V30 30620 C 2743.6 -3.45004 0.0813872 0
M  V30 30621 C 2742.71 -4.1674 1.13806 0
M  V30 30622 C 2741.84 -5.28826 0.501691 0
M  V30 30623 C 2740.88 -5.92371 1.54154 0
M  V30 30624 N 2740.02 -6.95938 0.92816 0
M  V30 30625 H 2744.86 -2.52706 1.57936 0
M  V30 30626 H 2742.4 -1.24114 0.789566 0
M  V30 30627 H 2744.35 -4.16224 -0.285201 0
M  V30 30628 H 2742.98 -3.13284 -0.778005 0
M  V30 30629 H 2742.04 -3.44073 1.62229 0
M  V30 30630 H 2743.35 -4.60086 1.92672 0
M  V30 30631 H 2742.5 -6.06644 0.0824228 0
M  V30 30632 H 2741.24 -4.86657 -0.318797 0
M  V30 30633 H 2740.25 -5.13269 1.97065 0
M  V30 30634 H 2741.47 -6.36617 2.36422 0
M  V30 30635 H 2739.42 -6.55874 0.128475 0
M  V30 30636 H 2739.33 -7.37682 1.65414 0
M  V30 30637 H 2740.6 -7.77667 0.534208 0
M  V30 30638 N 2744.83 -0.851312 -1.32629 0
M  V30 30639 C 2746.11 -0.374482 -1.91982 0
M  V30 30640 C 2746.49 1.14158 -1.7757 0
M  V30 30641 O 2745.84 1.9617 -1.17174 0
M  V30 30642 C 2746.05 -0.835148 -3.3886 0
M  V30 30643 C 2747.39 -0.850383 -4.15997 0
M  V30 30644 O 2748.42 -0.779566 -3.47565 0
M  V30 30645 O 2747.28 -0.949575 -5.38187 0
M  V30 30646 H 2744.37 -0.108554 -0.819845 0
M  V30 30647 H 2746.92 -0.937991 -1.41421 0
M  V30 30648 H 2745.69 -1.8782 -3.43278 0
M  V30 30649 H 2745.31 -0.248902 -3.9682 0
M  V30 30650 N 2746.31 1.45361 -0.608928 0
M  V30 30651 C 2747.24 2.28726 0.147277 0
M  V30 30652 C 2748.25 1.40027 0.830443 0
M  V30 30653 O 2749.44 1.64388 0.695607 0
M  V30 30654 C 2746.54 3.15806 1.22963 0
M  V30 30655 C 2745.72 4.32791 0.633315 0
M  V30 30656 C 2744.78 5.0107 1.60673 0
M  V30 30657 O 2743.8 5.5782 1.13251 0
M  V30 30658 N 2745 5.00477 2.94114 0
M  V30 30659 H 2747.77 2.94267 -0.568066 0
M  V30 30660 H 2745.33 1.55564 -0.448507 0
M  V30 30661 H 2747.32 3.58348 1.88066 0
M  V30 30662 H 2745.89 2.52165 1.84747 0
M  V30 30663 H 2745.11 3.93713 -0.195831 0
M  V30 30664 H 2746.4 5.08345 0.215166 0
M  V30 30665 H 2745.8 4.55663 3.35242 0
M  V30 30666 H 2744.35 5.46879 3.54636 0
M  V30 30667 N 2747.79 0.348166 1.53706 0
M  V30 30668 C 2749.01 -0.250847 2.05877 0
M  V30 30669 C 2749.44 -1.4307 1.22117 0
M  V30 30670 O 2748.8 -1.79757 0.236017 0
M  V30 30671 C 2748.84 -0.639354 3.54887 0
M  V30 30672 O 2747.95 -1.73881 3.73951 0
M  V30 30673 H 2747.29 -0.0406414 0.662755 0
M  V30 30674 H 2749.82 0.50372 1.98302 0
M  V30 30675 H 2749.83 -0.915225 3.97602 0
M  V30 30676 H 2748.5 0.223459 4.15299 0
M  V30 30677 H 2747.08 -1.45985 3.43137 0
M  V30 30678 N 2749.27 -1.57412 0.0768958 0
M  V30 30679 C 2750.2 -2.16038 -0.885988 0
M  V30 30680 C 2751.18 -1.08878 -1.30689 0
M  V30 30681 O 2752.36 -1.36936 -1.37703 0
M  V30 30682 C 2749.49 -2.72611 -2.15175 0
M  V30 30683 C 2748.45 -3.84983 -1.87008 0
M  V30 30684 C 2747.77 -4.28181 -3.20258 0
M  V30 30685 C 2749.07 -5.08996 -1.17134 0
M  V30 30686 H 2750.77 -2.96748 -0.397589 0
M  V30 30687 H 2748.31 -1.42744 -0.189798 0
M  V30 30688 H 2750.26 -3.12271 -2.82957 0
M  V30 30689 H 2748.99 -1.8913 -2.66266 0
M  V30 30690 H 2747.65 -3.45835 -1.2163 0
M  V30 30691 H 2747.3 -3.41614 -3.69201 0
M  V30 30692 H 2747 -5.03933 -3.02201 0
M  V30 30693 H 2748.52 -4.7046 -3.89229 0
M  V30 30694 H 2749.93 -5.4594 -1.74993 0
M  V30 30695 H 2748.33 -5.90059 -1.09318 0
M  V30 30696 H 2749.4 -4.84664 -0.15121 0
M  V30 30697 N 2750.74 0.196695 -1.56368 0
M  V30 30698 C 2751.97 0.933575 -1.8464 0
M  V30 30699 C 2752.39 1.76918 -0.659195 0
M  V30 30700 O 2751.74 1.78666 0.372111 0
M  V30 30701 C 2751.8 1.83103 -3.11698 0
M  V30 30702 O 2751.52 1.02917 -4.2584 0
M  V30 30703 C 2753.02 2.67973 -3.53137 0
M  V30 30704 H 2750.24 0.272463 -0.613193 0
M  V30 30705 H 2752.78 0.204429 -2.03476 0
M  V30 30706 H 2750.94 2.51382 -2.94764 0
M  V30 30707 H 2751.35 1.6406 -4.98181 0
M  V30 30708 H 2752.82 3.26604 -4.4501 0
M  V30 30709 H 2753.3 3.41603 -2.76051 0
M  V30 30710 H 2753.91 2.05068 -3.72595 0
M  V30 30711 N 2752.22 1.50604 0.464349 0
M  V30 30712 C 2753.15 1.72892 1.56941 0
M  V30 30713 C 2754.13 0.578025 1.59978 0
M  V30 30714 O 2755.32 0.817886 1.76137 0
M  V30 30715 C 2752.45 1.82925 2.95222 0
M  V30 30716 C 2751.4 2.98167 3.07051 0
M  V30 30717 C 2750.73 2.9335 4.47045 0
M  V30 30718 C 2752.03 4.38572 2.8364 0
M  V30 30719 H 2753.72 2.65417 1.38542 0
M  V30 30720 H 2751.27 1.27722 0.665059 0
M  V30 30721 H 2753.22 1.97101 3.72464 0
M  V30 30722 H 2751.95 0.870264 3.14792 0
M  V30 30723 H 2750.6 2.83652 2.32243 0
M  V30 30724 H 2750.25 1.95284 4.63544 0
M  V30 30725 H 2749.95 3.7072 4.55895 0
M  V30 30726 H 2751.48 3.09584 5.26298 0
M  V30 30727 H 2752.89 4.53578 3.50628 0
M  V30 30728 H 2751.29 5.17444 3.03928 0
M  V30 30729 H 2752.36 4.50475 1.79443 0
M  V30 30730 N 2753.7 -0.717989 1.40295 0
M  V30 30731 C 2754.93 -1.51217 1.41944 0
M  V30 30732 C 2755.35 -1.88089 0.0202701 0
M  V30 30733 O 2754.71 -1.53102 -0.971051 0
M  V30 30734 C 2754.76 -2.7655 2.31415 0
M  V30 30735 O 2753.86 -3.73159 1.75574 0
M  V30 30736 H 2753.2 -0.456007 0.482652 0
M  V30 30737 H 2755.73 -0.884445 1.84496 0
M  V30 30738 H 2755.74 -3.25104 2.46518 0
M  V30 30739 H 2754.42 -2.49047 3.33089 0
M  V30 30740 H 2752.99 -3.31996 1.69804 0
M  V30 30741 N 2755.18 -1.25752 -0.94996 0
M  V30 30742 C 2756.13 -1.06544 -2.04736 0
M  V30 30743 C 2757.1 0.0268526 -1.66078 0
M  V30 30744 O 2758.28 -0.131229 -1.90348 0
M  V30 30745 C 2755.42 -0.695186 -3.38025 0
M  V30 30746 C 2754.53 -1.86282 -3.89773 0
M  V30 30747 C 2753.67 -1.43649 -5.11408 0
M  V30 30748 C 2752.71 -2.57297 -5.55396 0
M  V30 30749 N 2751.84 -2.15407 -6.6824 0
M  V30 30750 H 2756.68 -2.0046 -2.20499 0
M  V30 30751 H 2754.22 -0.998197 -1.08048 0
M  V30 30752 H 2756.18 -0.461448 -4.1464 0
M  V30 30753 H 2754.81 0.20699 -3.22136 0
M  V30 30754 H 2753.86 -2.20974 -3.09636 0
M  V30 30755 H 2755.17 -2.71613 -4.18363 0
M  V30 30756 H 2754.33 -1.16268 -5.95455 0
M  V30 30757 H 2753.07 -0.553964 -4.84544 0
M  V30 30758 H 2752.07 -2.85418 -4.69911 0
M  V30 30759 H 2753.3 -3.46135 -5.84266 0
M  V30 30760 H 2751.24 -1.29577 -6.43075 0
M  V30 30761 H 2751.16 -2.94284 -6.96371 0
M  V30 30762 H 2752.43 -1.91214 -7.55683 0
M  V30 30763 N 2756.66 1.15326 -1.07413 0
M  V30 30764 C 2757.59 2.22235 -0.716511 0
M  V30 30765 C 2758.57 1.67499 0.296344 0
M  V30 30766 O 2759.75 1.93464 0.168955 0
M  V30 30767 C 2756.88 3.47112 -0.114203 0
M  V30 30768 C 2755.84 4.14812 -1.05428 0
M  V30 30769 C 2755.16 5.33773 -0.314698 0
M  V30 30770 C 2756.46 4.64504 -2.38816 0
M  V30 30771 H 2758.16 2.52406 -1.61033 0
M  V30 30772 H 2755.7 1.2132 -0.775723 0
M  V30 30773 H 2757.66 4.2114 0.147927 0
M  V30 30774 H 2756.38 3.16276 0.814699 0
M  V30 30775 H 2755.04 3.42725 -1.30134 0
M  V30 30776 H 2754.69 4.99193 0.617685 0
M  V30 30777 H 2754.39 5.80011 -0.941311 0
M  V30 30778 H 2755.91 6.1057 -0.060382 0
M  V30 30779 H 2757.32 5.30056 -2.18433 0
M  V30 30780 H 2755.72 5.21407 -2.97078 0
M  V30 30781 H 2756.79 3.80109 -3.01074 0
M  V30 30782 N 2758.13 0.858334 1.32176 0
M  V30 30783 C 2759.04 0.308647 2.32561 0
M  V30 30784 C 2760.06 -0.575433 1.6421 0
M  V30 30785 O 2761.24 -0.474926 1.9572 0
M  V30 30786 C 2758.3 -0.490848 3.43208 0
M  V30 30787 C 2757.36 0.419808 4.27242 0
M  V30 30788 C 2756.6 -0.341625 5.32605 0
M  V30 30789 O 2756.82 -1.57115 5.48335 0
M  V30 30790 O 2755.75 0.294485 6.01179 0
M  V30 30791 H 2759.58 1.14042 2.81475 0
M  V30 30792 H 2757.16 0.621373 1.35865 0
M  V30 30793 H 2759.05 -0.944502 4.10679 0
M  V30 30794 H 2757.72 -1.29936 2.96476 0
M  V30 30795 H 2756.63 0.921715 3.62568 0
M  V30 30796 H 2757.96 1.1936 4.77508 0
M  V30 30797 N 2759.61 -1.45036 0.616628 0
M  V30 30798 C 2760.86 -2.01384 0.112897 0
M  V30 30799 C 2761.17 -1.48971 -1.26755 0
M  V30 30800 O 2762.38 -1.97354 -1.86451 0
M  V30 30801 C 2760.84 -3.59583 0.15112 0
M  V30 30802 C 2760.44 -4.20992 1.53198 0
M  V30 30803 C 2762.19 -4.2346 -0.2969 0
M  V30 30804 C 2760.1 -5.7137 1.5261 0
M  V30 30805 H 2759.03 -0.75302 0.0384387 0
M  V30 30806 H 2761.68 -1.66411 0.773291 0
M  V30 30807 H 2760.06 -3.91787 -0.576101 0
M  V30 30808 H 2761.23 -4.00348 2.28163 0
M  V30 30809 H 2759.55 -3.69344 1.92286 0
M  V30 30810 H 2762.14 -5.33738 -0.320618 0
M  V30 30811 H 2762.49 -3.94772 -1.32138 0
M  V30 30812 H 2763.02 -3.96006 0.377349 0
M  V30 30813 H 2759.76 -6.04771 2.52848 0
M  V30 30814 H 2759.28 -5.9418 0.819168 0
M  V30 30815 H 2760.96 -6.34738 1.25368 0
M  V30 30816 N 2761.09 -0.356312 -1.53519 0
M  V30 30817 C 2762 0.502672 -2.29151 0
M  V30 30818 C 2763.02 1.10077 -1.34755 0
M  V30 30819 O 2764.19 1.11371 -1.67805 0
M  V30 30820 C 2761.26 1.63148 -3.05914 0
M  V30 30821 C 2760.32 1.06186 -4.1596 0
M  V30 30822 C 2759.55 2.13688 -4.89053 0
M  V30 30823 O 2759.77 3.34637 -4.61924 0
M  V30 30824 O 2758.71 1.77265 -5.75205 0
M  V30 30825 H 2762.53 -0.11252 -3.03491 0
M  V30 30826 H 2760.12 -0.120968 -1.48909 0
M  V30 30827 H 2762 2.28798 -3.53878 0
M  V30 30828 H 2760.68 2.23225 -2.34419 0
M  V30 30829 H 2759.58 0.369538 -3.7227 0
M  V30 30830 H 2760.92 0.505786 -4.89594 0
M  V30 30831 N 2762.57 1.57369 -0.0852427 0
M  V30 30832 C 2763.52 2.14699 0.894818 0
M  V30 30833 C 2764.51 1.0873 1.29901 0
M  V30 30834 O 2765.72 1.2709 1.27468 0
M  V30 30835 H 2762.09 0.686678 0.306557 0
M  V30 30836 H 2764.06 2.95886 0.38649 0
M  V30 30837 C 2762.81 2.73421 2.14794 0
M  V30 30838 H 2762.13 3.54642 1.84579 0
M  V30 30839 H 2763.57 3.17115 2.8145 0
M  V30 30840 C 2762.03 1.68833 2.91543 0
M  V30 30841 O 2762.56 1.12135 3.85731 0
M  V30 30842 N 2760.77 1.39553 2.54898 0
M  V30 30843 H 2760.32 1.85849 1.78376 0
M  V30 30844 H 2760.27 0.698108 3.06551 0
M  V30 30845 N 2764.05 -0.188399 1.5647 0
M  V30 30846 C 2764.98 -1.23602 1.98103 0
M  V30 30847 C 2765.96 -1.47109 0.853986 0
M  V30 30848 O 2767.14 -1.58733 1.11881 0
M  V30 30849 C 2764.27 -2.57878 2.32629 0
M  V30 30850 C 2763.23 -2.48972 3.48134 0
M  V30 30851 C 2762.55 -3.87582 3.68354 0
M  V30 30852 C 2763.85 -2.00903 4.82115 0
M  V30 30853 H 2765.55 -0.890018 2.85865 0
M  V30 30854 H 2763.09 -0.42669 1.37533 0
M  V30 30855 H 2765.05 -3.31355 2.60349 0
M  V30 30856 H 2763.77 -2.94233 1.41756 0
M  V30 30857 H 2762.43 -1.7795 3.20514 0
M  V30 30858 H 2762.08 -4.213 2.748 0
M  V30 30859 H 2761.78 -3.82496 4.46062 0
M  V30 30860 H 2763.3 -4.62671 3.98457 0
M  V30 30861 H 2764.71 -2.64142 5.08824 0
M  V30 30862 H 2763.11 -2.06804 5.6334 0
M  V30 30863 H 2764.18 -0.962536 4.75251 0
M  V30 30864 N 2765.53 -1.50848 -0.456355 0
M  V30 30865 C 2766.47 -1.71332 -1.57315 0
M  V30 30866 C 2767.47 -0.579315 -1.59186 0
M  V30 30867 O 2768.67 -0.760209 -1.63159 0
M  V30 30868 H 2765.05 -0.541033 -0.52229 0
M  V30 30869 H 2767.02 -2.64986 -1.37205 0
M  V30 30870 C 2765.77 -1.83816 -2.95139 0
M  V30 30871 H 2765.09 -2.70472 -2.94423 0
M  V30 30872 H 2766.53 -2.02168 -3.72698 0
M  V30 30873 C 2764.99 -0.593282 -3.31635 0
M  V30 30874 O 2765.52 0.260827 -4.00852 0
M  V30 30875 N 2763.73 -0.442953 -2.87204 0
M  V30 30876 H 2763.27 -1.13905 -2.31049 0
M  V30 30877 H 2763.23 0.388785 -3.11987 0
M  V30 30878 N 2767 0.710538 -1.40674 0
M  V30 30879 C 2767.93 1.83734 -1.44098 0
M  V30 30880 C 2768.91 1.6741 -0.301315 0
M  V30 30881 O 2770.1 1.87366 -0.510651 0
M  V30 30882 C 2767.23 3.21736 -1.30779 0
M  V30 30883 C 2766.18 3.5274 -2.42401 0
M  V30 30884 C 2765.51 4.8994 -2.14156 0
M  V30 30885 C 2766.81 3.53227 -3.84744 0
M  V30 30886 H 2768.5 1.81125 -2.38399 0
M  V30 30887 H 2766.05 0.869996 -1.14748 0
M  V30 30888 H 2768 4.00262 -1.3179 0
M  V30 30889 H 2766.73 3.24933 -0.329565 0
M  V30 30890 H 2765.39 2.76558 -2.40648 0
M  V30 30891 H 2765.03 4.89745 -1.14712 0
M  V30 30892 H 2764.73 5.1165 -2.88943 0
M  V30 30893 H 2766.26 5.70793 -2.16858 0
M  V30 30894 H 2767.67 4.21783 -3.88293 0
M  V30 30895 H 2766.07 3.86465 -4.59091 0
M  V30 30896 H 2767.14 2.52506 -4.13967 0
M  V30 30897 N 2768.48 1.26254 0.943277 0
M  V30 30898 C 2769.44 1.07693 2.02324 0
M  V30 30899 C 2770.44 0.0259457 1.60779 0
M  V30 30900 O 2771.63 0.269164 1.72108 0
M  V30 30901 C 2768.77 0.637579 3.34885 0
M  V30 30902 H 2769.96 2.03574 2.20222 0
M  V30 30903 H 2767.51 1.08821 1.12195 0
M  V30 30904 H 2768.25 -0.323321 3.22684 0
M  V30 30905 H 2768.03 1.39643 3.66391 0
M  V30 30906 H 2769.52 0.529491 4.1423 0
M  V30 30907 N 2769.96 -1.14755 1.08024 0
M  V30 30908 C 2770.89 -2.19353 0.664604 0
M  V30 30909 C 2771.9 -1.60262 -0.286345 0
M  V30 30910 O 2773.09 -1.78344 -0.0746049 0
M  V30 30911 C 2770.19 -3.38872 -0.0434038 0
M  V30 30912 C 2769.37 -4.27497 0.925456 0
M  V30 30913 C 2768.43 -5.25589 0.25349 0
M  V30 30914 O 2767.45 -5.62093 0.89668 0
M  V30 30915 N 2768.65 -5.71854 -0.998163 0
M  V30 30916 H 2771.42 -2.55628 1.56443 0
M  V30 30917 H 2768.98 -1.29937 0.96581 0
M  V30 30918 H 2770.97 -4.01552 -0.503786 0
M  V30 30919 H 2769.54 -3.00955 -0.845268 0
M  V30 30920 H 2768.76 -3.61812 1.56478 0
M  V30 30921 H 2770.05 -4.83577 1.58211 0
M  V30 30922 H 2769.45 -5.4432 -1.54054 0
M  V30 30923 H 2768 -6.36541 -1.40211 0
M  V30 30924 N 2771.44 -0.865331 -1.31719 0
M  V30 30925 C 2772.38 -0.315776 -2.2863 0
M  V30 30926 C 2773.35 0.583186 -1.55525 0
M  V30 30927 O 2774.54 0.515818 -1.83695 0
M  V30 30928 C 2771.68 0.480713 -3.41736 0
M  V30 30929 C 2770.79 -0.445242 -4.29699 0
M  V30 30930 C 2769.93 0.364919 -5.29945 0
M  V30 30931 C 2768.97 -0.557759 -6.09553 0
M  V30 30932 N 2768.1 0.215871 -7.01768 0
M  V30 30933 H 2772.94 -1.14741 -2.75024 0
M  V30 30934 H 2770.48 -0.577233 -1.35301 0
M  V30 30935 H 2772.44 0.958235 -4.06046 0
M  V30 30936 H 2771.07 1.27709 -2.96463 0
M  V30 30937 H 2770.12 -1.04119 -3.65873 0
M  V30 30938 H 2771.43 -1.15292 -4.85293 0
M  V30 30939 H 2770.59 0.905149 -5.9991 0
M  V30 30940 H 2769.33 1.10592 -4.74996 0
M  V30 30941 H 2768.33 -1.10978 -5.38483 0
M  V30 30942 H 2769.56 -1.29753 -6.66589 0
M  V30 30943 H 2767.5 0.939764 -6.49234 0
M  V30 30944 H 2767.42 -0.432564 -7.54761 0
M  V30 30945 H 2768.69 0.737482 -7.76004 0
M  V30 30946 N 2772.92 1.44707 -0.624311 0
M  V30 30947 C 2773.85 2.3339 0.0716615 0
M  V30 30948 C 2774.83 1.4781 0.841788 0
M  V30 30949 O 2776.01 1.76546 0.809025 0
M  V30 30950 C 2773.14 3.30778 1.05846 0
M  V30 30951 C 2772.1 4.26123 0.400428 0
M  V30 30952 C 2771.42 5.13327 1.49665 0
M  V30 30953 C 2772.72 5.17735 -0.689015 0
M  V30 30954 H 2774.42 2.91833 -0.668871 0
M  V30 30955 H 2771.96 1.40328 -0.323105 0
M  V30 30956 H 2773.91 3.91699 1.55403 0
M  V30 30957 H 2772.64 2.70529 1.8298 0
M  V30 30958 H 2771.3 3.66524 -0.0744332 0
M  V30 30959 H 2770.95 4.49435 2.25869 0
M  V30 30960 H 2770.65 5.77927 1.06177 0
M  V30 30961 H 2772.17 5.77118 1.99417 0
M  V30 30962 H 2773.58 5.72631 -0.276825 0
M  V30 30963 H 2771.98 5.90902 -1.04663 0
M  V30 30964 H 2773.05 4.59158 -1.55892 0
M  V30 30965 N 2774.39 0.364449 1.53328 0
M  V30 30966 C 2775.34 -0.498984 2.22473 0
M  V30 30967 C 2776.33 -1.04958 1.21953 0
M  V30 30968 O 2777.52 -0.97981 1.47407 0
M  V30 30969 C 2774.65 -1.63875 3.01662 0
M  V30 30970 C 2773.73 -1.10109 4.09557 0
M  V30 30971 N 2774.13 -0.286325 5.04989 0
M  V30 30972 C 2772.42 -1.37601 4.24243 0
M  V30 30973 C 2773.12 0.00791907 5.81699 0
M  V30 30974 N 2772.1 -0.589399 5.40395 0
M  V30 30975 H 2775.9 0.130335 2.93611 0
M  V30 30976 H 2773.42 0.172405 1.61482 0
M  V30 30977 H 2775.41 -2.26948 3.49714 0
M  V30 30978 H 2774.07 -2.27114 2.32055 0
M  V30 30979 H 2775.08 0.074375 5.17847 0
M  V30 30980 H 2771.76 -2.01126 3.65861 0
M  V30 30981 H 2773.15 0.666511 6.68586 0
M  V30 30982 N 2775.87 -1.57322 0.0935872 0
M  V30 30983 C 2776.78 -2.17464 -0.880153 0
M  V30 30984 C 2777.8 -1.14368 -1.31133 0
M  V30 30985 O 2778.97 -1.46732 -1.37956 0
M  V30 30986 C 2776.04 -2.74191 -2.12179 0
M  V30 30987 C 2775.1 -3.92237 -1.74496 0
M  V30 30988 C 2774.33 -4.4625 -2.9274 0
M  V30 30989 O 2774.56 -3.99205 -4.0742 0
M  V30 30990 O 2773.49 -5.37292 -2.71294 0
M  V30 30991 H 2777.32 -3.01075 -0.398463 0
M  V30 30992 H 2774.9 -1.48827 -0.130681 0
M  V30 30993 H 2776.78 -3.10456 -2.84948 0
M  V30 30994 H 2775.46 -1.93627 -2.59404 0
M  V30 30995 H 2774.36 -3.60787 -0.989122 0
M  V30 30996 H 2775.7 -4.7416 -1.32036 0
M  V30 30997 N 2777.35 0.180099 -1.56568 0
M  V30 30998 C 2778.3 1.24248 -1.96635 0
M  V30 30999 C 2779.29 1.46307 -0.853844 0
M  V30 31000 O 2780.5 1.46991 -1.03892 0
M  V30 31001 H 2776.87 0.417462 -0.625483 0
M  V30 31002 H 2778.84 0.877629 -2.85202 0
M  V30 31003 C 2777.59 2.57638 -2.33491 0
M  V30 31004 H 2776.92 2.41484 -3.18631 0
M  V30 31005 H 2778.36 3.30683 -2.65377 0
M  V30 31006 C 2776.81 3.15744 -1.17504 0
M  V30 31007 O 2777.34 3.9908 -0.458026 0
M  V30 31008 N 2775.55 2.74705 -0.947908 0
M  V30 31009 H 2775.1 2.07039 -1.53273 0
M  V30 31010 H 2775.06 3.1392 -0.173682 0
M  V30 31011 N 2778.83 1.51088 0.448349 0
M  V30 31012 C 2779.76 1.74547 1.55099 0
M  V30 31013 C 2780.74 0.594961 1.59356 0
M  V30 31014 O 2781.92 0.836522 1.7526 0
M  V30 31015 C 2779.05 1.86046 2.93265 0
M  V30 31016 C 2778.01 3.01407 3.03871 0
M  V30 31017 C 2777.33 2.98075 4.43909 0
M  V30 31018 C 2778.63 4.41556 2.78972 0
M  V30 31019 H 2780.33 2.66872 1.3572 0
M  V30 31020 H 2777.87 1.2842 0.651475 0
M  V30 31021 H 2779.83 2.01041 3.70352 0
M  V30 31022 H 2778.55 0.903603 3.13851 0
M  V30 31023 H 2777.21 2.861 2.29222 0
M  V30 31024 H 2776.86 2.0019 4.61447 0
M  V30 31025 H 2776.56 3.75535 4.51937 0
M  V30 31026 H 2778.08 3.15149 5.22985 0
M  V30 31027 H 2779.5 4.57271 3.45797 0
M  V30 31028 H 2777.89 5.20638 2.98422 0
M  V30 31029 H 2778.96 4.52353 1.74655 0
M  V30 31030 N 2780.31 -0.703068 1.41049 0
M  V30 31031 C 2781.22 -1.847 1.44648 0
M  V30 31032 C 2782.23 -1.70689 0.337808 0
M  V30 31033 O 2783.41 -1.92736 0.584361 0
M  V30 31034 C 2780.47 -3.20615 1.31934 0
M  V30 31035 C 2779.53 -3.46789 2.53053 0
M  V30 31036 C 2778.77 -4.7622 2.40936 0
M  V30 31037 O 2778.99 -5.52187 1.42988 0
M  V30 31038 O 2777.92 -5.0301 3.30552 0
M  V30 31039 H 2781.75 -1.84619 2.41142 0
M  V30 31040 H 2779.34 -0.855145 1.22506 0
M  V30 31041 H 2781.22 -4.01776 1.27099 0
M  V30 31042 H 2779.89 -3.21396 0.385525 0
M  V30 31043 H 2778.8 -2.65589 2.63464 0
M  V30 31044 H 2780.13 -3.50816 3.45237 0
M  V30 31045 N 2781.78 -1.26752 -0.936569 0
M  V30 31046 C 2782.69 -1.105 -2.06947 0
M  V30 31047 C 2783.71 -0.0373016 -1.7396 0
M  V30 31048 O 2784.89 -0.241979 -1.99941 0
M  V30 31049 C 2781.95 -0.74455 -3.38611 0
M  V30 31050 C 2781.01 -1.89216 -3.85352 0
M  V30 31051 C 2780.25 -1.54882 -5.10732 0
M  V30 31052 O 2780.47 -0.452645 -5.68601 0
M  V30 31053 O 2779.4 -2.38509 -5.52628 0
M  V30 31054 H 2783.23 -2.05551 -2.23567 0
M  V30 31055 H 2780.81 -1.05857 -1.05426 0
M  V30 31056 H 2782.7 -0.556469 -4.1771 0
M  V30 31057 H 2781.37 0.176525 -3.23218 0
M  V30 31058 H 2780.28 -2.13524 -3.07178 0
M  V30 31059 H 2781.61 -2.79313 -4.05272 0
M  V30 31060 N 2783.26 1.1418 -1.08631 0
M  V30 31061 C 2784.2 2.18376 -0.662367 0
M  V30 31062 C 2785.17 1.59277 0.327026 0
M  V30 31063 O 2786.36 1.87087 0.230344 0
M  V30 31064 C 2783.48 3.3869 0.025417 0
M  V30 31065 C 2782.53 4.1636 -0.924487 0
M  V30 31066 S 2783.36 4.77072 -2.43234 0
M  V30 31067 C 2784.52 6.00741 -1.75673 0
M  V30 31068 H 2784.75 2.53999 -1.54506 0
M  V30 31069 H 2782.29 1.25348 -0.901506 0
M  V30 31070 H 2784.24 4.08387 0.41596 0
M  V30 31071 H 2782.9 3.01385 0.884636 0
M  V30 31072 H 2782.1 5.02487 -0.390187 0
M  V30 31073 H 2781.7 3.52278 -1.25604 0
M  V30 31074 H 2783.99 6.68901 -1.07601 0
M  V30 31075 H 2784.93 6.58764 -2.59684 0
M  V30 31076 H 2785.34 5.50956 -1.22913 0
M  V30 31077 N 2784.74 0.872304 1.31258 0
M  V30 31078 C 2785.69 0.327897 2.28459 0
M  V30 31079 C 2786.66 -0.57493 1.55832 0
M  V30 31080 O 2787.84 -0.506069 1.83966 0
M  V30 31081 C 2784.98 -0.462584 3.41986 0
M  V30 31082 C 2784.1 0.468024 4.29457 0
M  V30 31083 C 2783.23 -0.33681 5.30131 0
M  V30 31084 C 2782.27 0.590077 6.09249 0
M  V30 31085 N 2781.41 -0.178651 7.01873 0
M  V30 31086 H 2786.25 1.16198 2.74412 0
M  V30 31087 H 2783.78 0.5844 1.34993 0
M  V30 31088 H 2785.74 -0.936688 4.06549 0
M  V30 31089 H 2784.37 -1.26135 2.97136 0
M  V30 31090 H 2783.42 1.06058 3.65316 0
M  V30 31091 H 2784.74 1.17864 4.84675 0
M  V30 31092 H 2783.89 -0.873322 6.00382 0
M  V30 31093 H 2782.63 -1.08071 4.75575 0
M  V30 31094 H 2781.63 1.13833 5.37887 0
M  V30 31095 H 2782.86 1.33287 6.65891 0
M  V30 31096 H 2780.8 -0.90532 6.49723 0
M  V30 31097 H 2780.72 0.472585 7.54521 0
M  V30 31098 H 2781.99 -0.696318 7.76384 0
M  V30 31099 N 2786.22 -1.44374 0.631976 0
M  V30 31100 C 2787.44 -2.06912 0.142182 0
M  V30 31101 C 2787.87 -1.46922 -1.17454 0
M  V30 31102 O 2787.23 -0.571005 -1.72073 0
M  V30 31103 C 2787.27 -3.60576 0.0418586 0
M  V30 31104 O 2786.38 -4.00045 -1.00187 0
M  V30 31105 H 2785.72 -0.658516 0.0851607 0
M  V30 31106 H 2788.25 -1.85233 0.868895 0
M  V30 31107 H 2788.26 -4.0773 -0.148445 0
M  V30 31108 H 2786.93 -4.0362 1.00318 0
M  V30 31109 H 2785.51 -3.64521 -0.786067 0
M  V30 31110 N 2787.7 -0.372575 -1.53133 0
M  V30 31111 C 2788.94 0.215242 -2.01655 0
M  V30 31112 C 2789.28 1.47847 -1.25916 0
M  V30 31113 O 2788.55 1.91236 -0.354833 0
M  V30 31114 C 2788.83 0.500125 -3.5661 0
M  V30 31115 C 2788.69 -0.777223 -4.43034 0
M  V30 31116 C 2790.01 1.29779 -4.2053 0
M  V30 31117 H 2787.12 0.0767557 -0.732992 0
M  V30 31118 H 2789.77 -0.498846 -1.83334 0
M  V30 31119 H 2787.92 1.10845 -3.72351 0
M  V30 31120 H 2789.59 -1.41455 -4.39077 0
M  V30 31121 H 2787.83 -1.39611 -4.1072 0
M  V30 31122 H 2788.5 -0.532758 -5.49423 0
M  V30 31123 H 2790.98 0.783126 -4.08664 0
M  V30 31124 H 2789.85 1.46586 -5.28965 0
M  V30 31125 H 2790.12 2.30829 -3.77055 0
M  V30 31126 N 2789.17 1.5727 -0.101929 0
M  V30 31127 C 2790.11 2.10072 0.89134 0
M  V30 31128 C 2791.09 1.01293 1.27195 0
M  V30 31129 O 2792.27 1.28836 1.37599 0
M  V30 31130 C 2789.4 2.58335 2.19045 0
M  V30 31131 C 2788.44 3.78838 1.95919 0
M  V30 31132 S 2789.28 5.22088 1.19097 0
M  V30 31133 C 2790.43 5.73706 2.50224 0
M  V30 31134 H 2790.66 2.93994 0.44216 0
M  V30 31135 H 2788.2 1.53997 0.111502 0
M  V30 31136 H 2790.16 2.86798 2.93695 0
M  V30 31137 H 2788.82 1.74627 2.61083 0
M  V30 31138 H 2788.01 4.10698 2.92135 0
M  V30 31139 H 2787.61 3.50903 1.29395 0
M  V30 31140 H 2789.9 5.8239 3.46162 0
M  V30 31141 H 2790.85 6.72091 2.22932 0
M  V30 31142 H 2791.25 5.01675 2.58809 0
M  V30 31143 N 2790.65 -0.171793 1.56661 0
M  V30 31144 C 2791.6 -1.2127 1.96373 0
M  V30 31145 C 2792.57 -1.44015 0.827585 0
M  V30 31146 O 2793.75 -1.56762 1.08767 0
M  V30 31147 C 2790.89 -2.54712 2.32843 0
M  V30 31148 C 2790.01 -2.3935 3.59633 0
M  V30 31149 C 2789.14 -3.65656 3.85317 0
M  V30 31150 C 2788.18 -3.45225 5.05456 0
M  V30 31151 N 2787.32 -4.63599 5.27276 0
M  V30 31152 H 2792.16 -0.86704 2.85108 0
M  V30 31153 H 2789.7 -0.416719 1.41074 0
M  V30 31154 H 2791.65 -3.32486 2.5201 0
M  V30 31155 H 2790.28 -2.87274 1.47219 0
M  V30 31156 H 2789.34 -1.52755 3.48382 0
M  V30 31157 H 2790.65 -2.20199 4.47564 0
M  V30 31158 H 2789.8 -4.51865 4.04849 0
M  V30 31159 H 2788.54 -3.87785 2.9576 0
M  V30 31160 H 2787.55 -2.57402 4.85823 0
M  V30 31161 H 2788.77 -3.24518 5.96544 0
M  V30 31162 H 2786.72 -4.85948 4.4067 0
M  V30 31163 H 2786.63 -4.4736 6.0943 0
M  V30 31164 H 2787.9 -5.51093 5.51286 0
M  V30 31165 N 2792.13 -1.51324 -0.44033 0
M  V30 31166 C 2793.04 -1.75261 -1.55952 0
M  V30 31167 C 2794.06 -0.636715 -1.61932 0
M  V30 31168 O 2795.23 -0.918625 -1.7923 0
M  V30 31169 C 2792.3 -1.86982 -2.91956 0
M  V30 31170 C 2791.36 -3.10827 -2.96117 0
M  V30 31171 C 2790.59 -3.2198 -4.25634 0
M  V30 31172 O 2790.81 -2.39146 -5.17847 0
M  V30 31173 O 2789.75 -4.14937 -4.36017 0
M  V30 31174 H 2793.57 -2.70194 -1.38668 0
M  V30 31175 H 2791.16 -1.35789 -0.623031 0
M  V30 31176 H 2793.04 -1.96695 -3.72678 0
M  V30 31177 H 2791.72 -0.952361 -3.09373 0
M  V30 31178 H 2790.62 -3.06595 -2.14361 0
M  V30 31179 H 2791.96 -4.02252 -2.83644 0
M  V30 31180 N 2793.61 0.695578 -1.41419 0
M  V30 31181 C 2795.02 1.00617 -1.23889 0
M  V30 31182 C 2795.22 2.01092 -0.128241 0
M  V30 31183 O 2794.28 2.4735 0.507364 0
M  V30 31184 C 2795.59 1.53079 -2.58819 0
M  V30 31185 C 2797.14 1.64963 -2.66001 0
M  V30 31186 C 2797.62 2.20826 -4.01248 0
M  V30 31187 N 2799.11 2.28187 -4.03094 0
M  V30 31188 C 2799.84 2.72439 -5.04544 0
M  V30 31189 N 2799.34 3.16296 -6.16384 0
M  V30 31190 N 2801.13 2.72002 -4.91906 0
M  V30 31191 H 2793.28 0.0299688 -2.12379 0
M  V30 31192 H 2795.55 0.0758631 -0.94496 0
M  V30 31193 H 2795.25 0.867087 -3.40844 0
M  V30 31194 H 2795.13 2.51293 -2.81304 0
M  V30 31195 H 2797.51 2.30444 -1.84335 0
M  V30 31196 H 2797.59 0.652939 -2.47326 0
M  V30 31197 H 2797.24 1.5596 -4.83362 0
M  V30 31198 H 2797.17 3.21247 -4.17263 0
M  V30 31199 H 2799.66 1.97237 -3.22345 0
M  V30 31200 H 2799.97 3.48688 -6.89664 0
M  V30 31201 H 2798.32 3.14204 -6.1992 0
M  V30 31202 H 2801.51 2.37088 -4.03617 0
M  V30 31203 H 2801.68 3.06171 -5.71107 0
M  V30 31204 N 2795.09 1.27247 0.929833 0
M  V30 31205 C 2796.36 1.04189 1.65542 0
M  V30 31206 C 2796.74 -0.42406 2.06797 0
M  V30 31207 O 2796.09 -1.40684 1.80056 0
M  V30 31208 C 2796.3 2.00143 2.85909 0
M  V30 31209 C 2797.65 2.29393 3.57301 0
M  V30 31210 O 2798.67 1.981 2.96032 0
M  V30 31211 O 2797.53 2.82728 4.67683 0
M  V30 31212 H 2794.63 0.397024 0.725466 0
M  V30 31213 H 2797.17 1.38503 0.980559 0
M  V30 31214 H 2795.95 2.99017 2.52398 0
M  V30 31215 H 2795.57 1.66377 3.61115 0
M  V30 31216 N 2796.57 -1.13603 1.09235 0
M  V30 31217 C 2797.51 -2.21025 0.72461 0
M  V30 31218 C 2798.51 -1.67176 -0.273565 0
M  V30 31219 O 2799.71 -1.79491 -0.135234 0
M  V30 31220 H 2796.09 -0.720211 0.216332 0
M  V30 31221 H 2798.06 -2.49306 1.63979 0
M  V30 31222 C 2796.81 -3.47335 0.159187 0
M  V30 31223 H 2796.13 -3.89107 0.918455 0
M  V30 31224 H 2797.57 -4.23957 -0.0602105 0
M  V30 31225 C 2796.03 -3.1826 -1.10508 0
M  V30 31226 O 2796.56 -3.36841 -2.18863 0
M  V30 31227 N 2794.77 -2.72155 -1.01881 0
M  V30 31228 H 2794.31 -2.57236 -0.136981 0
M  V30 31229 H 2794.27 -2.53077 -1.86546 0
M  V30 31230 N 2798.04 -0.879253 -1.30793 0
M  V30 31231 C 2798.97 -0.357836 -2.30742 0
M  V30 31232 C 2799.95 0.556255 -1.60748 0
M  V30 31233 O 2801.14 0.471317 -1.88394 0
M  V30 31234 C 2798.27 0.433494 -3.44584 0
M  V30 31235 C 2797.22 -0.388326 -4.26235 0
M  V30 31236 C 2796.55 0.529259 -5.32074 0
M  V30 31237 C 2797.85 -1.62738 -4.963 0
M  V30 31238 H 2799.54 -1.19304 -2.74603 0
M  V30 31239 H 2797.09 -0.575127 -1.32016 0
M  V30 31240 H 2799.04 0.808861 -4.13564 0
M  V30 31241 H 2797.77 1.30229 -2.99513 0
M  V30 31242 H 2796.43 -0.745758 -3.58935 0
M  V30 31243 H 2796.07 1.3956 -4.83251 0
M  V30 31244 H 2795.77 -0.0167774 -5.87598 0
M  V30 31245 H 2797.3 0.901267 -6.03912 0
M  V30 31246 H 2798.71 -1.32293 -5.57827 0
M  V30 31247 H 2797.11 -2.11318 -5.61662 0
M  V30 31248 H 2798.18 -2.37502 -4.22754 0
M  V30 31249 N 2799.52 1.44037 -0.639624 0
M  V30 31250 C 2800.94 1.56639 -0.305981 0
M  V30 31251 C 2801.14 1.62569 1.19052 0
M  V30 31252 O 2800.19 1.57334 1.9749 0
M  V30 31253 C 2801.51 2.83395 -1.00538 0
M  V30 31254 C 2803.05 2.97119 -0.984331 0
M  V30 31255 C 2803.53 4.26689 -1.66436 0
M  V30 31256 N 2805.02 4.33522 -1.63135 0
M  V30 31257 C 2805.76 5.32515 -2.12639 0
M  V30 31258 N 2805.25 6.37865 -2.70371 0
M  V30 31259 N 2807.04 5.24079 -2.03218 0
M  V30 31260 H 2799.2 1.38431 -1.61092 0
M  V30 31261 H 2801.46 0.66393 -0.676684 0
M  V30 31262 H 2801.16 2.85028 -2.06039 0
M  V30 31263 H 2801.04 3.73192 -0.548428 0
M  V30 31264 H 2803.43 2.95034 0.0622273 0
M  V30 31265 H 2803.51 2.08648 -1.47985 0
M  V30 31266 H 2803.15 4.29534 -2.71041 0
M  V30 31267 H 2803.08 5.14032 -1.1436 0
M  V30 31268 H 2805.57 3.58007 -1.20993 0
M  V30 31269 H 2805.88 7.09699 -3.05855 0
M  V30 31270 H 2804.23 6.38526 -2.74425 0
M  V30 31271 H 2807.42 4.40689 -1.5783 0
M  V30 31272 H 2807.59 6.01072 -2.42108 0
M  V30 31273 N 2801 0.380691 1.52933 0
M  V30 31274 C 2802.42 0.030271 1.59571 0
M  V30 31275 C 2802.62 -1.45391 1.39512 0
M  V30 31276 O 2801.67 -2.21739 1.20781 0
M  V30 31277 C 2802.98 0.499743 2.96518 0
M  V30 31278 C 2804.53 0.455259 3.09671 0
M  V30 31279 C 2805.01 0.900782 4.49054 0
M  V30 31280 N 2806.5 0.856447 4.55213 0
M  V30 31281 C 2807.23 1.17269 5.6128 0
M  V30 31282 N 2806.73 1.55897 6.75032 0
M  V30 31283 N 2808.52 1.0945 5.51341 0
M  V30 31284 H 2800.67 1.34703 1.64222 0
M  V30 31285 H 2802.94 0.551568 0.771023 0
M  V30 31286 H 2802.64 1.536 3.16386 0
M  V30 31287 H 2802.52 -0.105723 3.77052 0
M  V30 31288 H 2804.9 -0.571898 2.89505 0
M  V30 31289 H 2804.98 1.09642 2.31111 0
M  V30 31290 H 2804.63 1.92613 4.6996 0
M  V30 31291 H 2804.56 0.236721 5.26068 0
M  V30 31292 H 2807.05 0.572079 3.73545 0
M  V30 31293 H 2807.36 1.78413 7.51923 0
M  V30 31294 H 2805.71 1.59776 6.76385 0
M  V30 31295 H 2808.9 0.791794 4.61355 0
M  V30 31296 H 2809.07 1.34428 6.33903 0
M  V30 31297 N 2802.48 -1.57214 0.110268 0
M  V30 31298 C 2803.72 -1.95181 -0.55065 0
M  V30 31299 C 2804.06 -0.993151 -1.66884 0
M  V30 31300 O 2803.33 -0.0288249 -1.94479 0
M  V30 31301 C 2803.61 -3.43157 -1.09157 0
M  V30 31302 C 2803.47 -4.49794 0.0225989 0
M  V30 31303 C 2804.79 -3.92782 -1.98521 0
M  V30 31304 H 2801.91 -0.709711 -0.198694 0
M  V30 31305 H 2804.55 -1.89106 0.184057 0
M  V30 31306 H 2802.7 -3.48465 -1.71769 0
M  V30 31307 H 2804.37 -4.5659 0.657524 0
M  V30 31308 H 2802.61 -4.28326 0.686943 0
M  V30 31309 H 2803.28 -5.50571 -0.396963 0
M  V30 31310 H 2805.76 -3.89723 -1.45793 0
M  V30 31311 H 2804.64 -4.96857 -2.33289 0
M  V30 31312 H 2804.9 -3.32963 -2.90841 0
M  V30 31313 N 2803.96 0.163482 -1.5675 0
M  V30 31314 C 2804.87 1.22206 -2.00257 0
M  V30 31315 C 2805.88 1.47986 -0.91522 0
M  V30 31316 O 2807.06 1.5998 -1.22345 0
M  V30 31317 C 2804.12 2.53942 -2.36039 0
M  V30 31318 C 2803.18 2.35956 -3.58641 0
M  V30 31319 C 2802.42 3.61409 -3.92707 0
M  V30 31320 O 2802.64 4.66913 -3.27641 0
M  V30 31321 O 2801.57 3.55053 -4.86026 0
M  V30 31322 H 2805.4 0.882743 -2.90588 0
M  V30 31323 H 2802.98 0.370952 -1.44721 0
M  V30 31324 H 2804.87 3.31639 -2.59988 0
M  V30 31325 H 2803.54 2.87437 -1.48868 0
M  V30 31326 H 2802.45 1.56264 -3.39901 0
M  V30 31327 H 2803.78 2.07382 -4.46378 0
M  V30 31328 N 2805.43 1.51555 0.432299 0
M  V30 31329 C 2806.34 1.76085 1.5502 0
M  V30 31330 C 2807.36 0.645294 1.61592 0
M  V30 31331 O 2808.54 0.928117 1.7874 0
M  V30 31332 C 2805.6 1.88528 2.90961 0
M  V30 31333 C 2804.66 3.12393 2.94464 0
M  V30 31334 C 2803.89 3.24233 4.23921 0
M  V30 31335 O 2804.12 2.41889 5.16571 0
M  V30 31336 O 2803.05 4.17243 4.33811 0
M  V30 31337 H 2806.88 2.70925 1.37234 0
M  V30 31338 H 2804.46 1.36118 0.615821 0
M  V30 31339 H 2806.34 1.98669 3.7163 0
M  V30 31340 H 2805.02 0.968755 3.08864 0
M  V30 31341 H 2803.93 3.07727 2.12732 0
M  V30 31342 H 2805.26 4.03751 2.81507 0
M  V30 31343 N 2806.91 -0.688069 1.41786 0
M  V30 31344 C 2808.14 -1.4767 1.44917 0
M  V30 31345 C 2808.55 -1.88715 0.0566118 0
M  V30 31346 O 2807.91 -1.57276 -0.925762 0
M  V30 31347 C 2807.96 -2.73442 2.36456 0
M  V30 31348 O 2807.68 -2.34124 3.70294 0
M  V30 31349 C 2809.18 -3.67121 2.4847 0
M  V30 31350 H 2806.4 -0.454824 0.493332 0
M  V30 31351 H 2808.95 -0.846561 1.86155 0
M  V30 31352 H 2807.1 -3.32676 1.98508 0
M  V30 31353 H 2807.52 -3.15248 4.19189 0
M  V30 31354 H 2808.99 -4.52133 3.1667 0
M  V30 31355 H 2809.47 -4.1212 1.51833 0
M  V30 31356 H 2810.07 -3.13787 2.87085 0
M  V30 31357 N 2808.39 -1.27739 -0.923072 0
M  V30 31358 C 2809.32 -1.13387 -2.04122 0
M  V30 31359 C 2810.3 -0.0340957 -1.70066 0
M  V30 31360 O 2811.49 -0.209417 -1.93068 0
M  V30 31361 C 2808.62 -0.785156 -3.38308 0
M  V30 31362 C 2807.57 -1.83867 -3.86493 0
M  V30 31363 C 2806.9 -1.34382 -5.17538 0
M  V30 31364 C 2808.2 -3.2436 -4.09375 0
M  V30 31365 H 2809.89 -2.06923 -2.16387 0
M  V30 31366 H 2807.44 -0.996262 -1.03974 0
M  V30 31367 H 2809.39 -0.671558 -4.16014 0
M  V30 31368 H 2808.11 0.185912 -3.2607 0
M  V30 31369 H 2806.77 -1.94126 -3.10984 0
M  V30 31370 H 2806.42 -0.362077 -5.01695 0
M  V30 31371 H 2806.12 -2.0482 -5.50747 0
M  V30 31372 H 2807.64 -1.24326 -5.97809 0
M  V30 31373 H 2809.06 -3.17076 -4.77636 0
M  V30 31374 H 2807.45 -3.9255 -4.53899 0
M  V30 31375 H 2808.52 -3.6907 -3.14509 0
M  V30 31376 N 2809.87 1.13022 -1.09836 0
M  V30 31377 C 2810.82 2.18562 -0.741561 0
M  V30 31378 C 2811.79 1.63737 0.279207 0
M  V30 31379 O 2812.97 1.90129 0.159889 0
M  V30 31380 C 2810.11 3.44667 -0.17283 0
M  V30 31381 C 2809.22 4.13576 -1.24815 0
M  V30 31382 C 2808.36 5.2731 -0.641724 0
M  V30 31383 C 2807.4 5.88075 -1.69806 0
M  V30 31384 N 2806.53 6.93232 -1.11235 0
M  V30 31385 H 2811.37 2.48429 -1.64581 0
M  V30 31386 H 2808.91 1.21977 -0.822195 0
M  V30 31387 H 2810.87 4.16834 0.174747 0
M  V30 31388 H 2809.5 3.15237 0.694669 0
M  V30 31389 H 2808.55 3.3965 -1.71294 0
M  V30 31390 H 2809.86 4.54816 -2.04803 0
M  V30 31391 H 2809.02 6.06212 -0.243235 0
M  V30 31392 H 2807.76 4.87331 0.189657 0
M  V30 31393 H 2806.76 5.07864 -2.10604 0
M  V30 31394 H 2807.99 6.30125 -2.53217 0
M  V30 31395 H 2805.93 6.55303 -0.302323 0
M  V30 31396 H 2805.85 7.33037 -1.84914 0
M  V30 31397 H 2807.12 7.75978 -0.740205 0
M  V30 31398 N 2811.35 0.886177 1.30325 0
M  V30 31399 C 2812.28 0.370068 2.30549 0
M  V30 31400 C 2813.26 -0.547722 1.6104 0
M  V30 31401 O 2814.44 -0.461319 1.88641 0
M  V30 31402 C 2811.57 -0.415214 3.44809 0
M  V30 31403 C 2810.53 0.410925 4.26023 0
M  V30 31404 C 2809.85 -0.501034 5.32347 0
M  V30 31405 C 2811.15 1.65368 4.9543 0
M  V30 31406 H 2812.85 1.20758 2.73967 0
M  V30 31407 H 2810.39 0.58212 1.31709 0
M  V30 31408 H 2812.35 -0.786917 4.13987 0
M  V30 31409 H 2811.07 -1.28639 3.00199 0
M  V30 31410 H 2809.73 0.764782 3.58534 0
M  V30 31411 H 2809.38 -1.36995 4.83985 0
M  V30 31412 H 2809.08 0.0479389 5.8758 0
M  V30 31413 H 2810.6 -0.869227 6.04381 0
M  V30 31414 H 2812.01 1.35249 5.57118 0
M  V30 31415 H 2810.41 2.14294 5.60534 0
M  V30 31416 H 2811.48 2.3974 4.21488 0
M  V30 31417 N 2812.82 -1.43695 0.647253 0
M  V30 31418 C 2813.73 -2.34549 -0.0487585 0
M  V30 31419 C 2814.75 -1.53544 -0.818559 0
M  V30 31420 O 2815.93 -1.86217 -0.767162 0
M  V30 31421 C 2812.99 -3.31745 -1.00728 0
M  V30 31422 C 2812.05 -4.28656 -0.235075 0
M  V30 31423 C 2811.29 -5.21208 -1.14794 0
M  V30 31424 O 2811.51 -5.18049 -2.38708 0
M  V30 31425 O 2810.44 -5.98661 -0.623562 0
M  V30 31426 H 2814.27 -2.95548 0.698915 0
M  V30 31427 H 2811.85 -1.43737 0.407438 0
M  V30 31428 H 2813.74 -3.91529 -1.5583 0
M  V30 31429 H 2812.41 -2.73257 -1.73529 0
M  V30 31430 H 2811.32 -3.7237 0.359385 0
M  V30 31431 H 2812.65 -4.90109 0.453238 0
M  V30 31432 N 2814.3 -0.388796 -1.52729 0
M  V30 31433 C 2815.72 -0.038733 -1.59553 0
M  V30 31434 C 2815.92 1.4465 -1.40281 0
M  V30 31435 O 2814.97 2.21095 -1.21955 0
M  V30 31436 C 2816.29 -0.515461 -2.96249 0
M  V30 31437 C 2817.84 -0.471675 -3.09426 0
M  V30 31438 C 2818.31 -0.924584 -4.4857 0
M  V30 31439 N 2819.8 -0.880576 -4.54753 0
M  V30 31440 C 2820.54 -1.20244 -5.60651 0
M  V30 31441 N 2820.03 -1.59474 -6.74196 0
M  V30 31442 N 2821.83 -1.12372 -5.50753 0
M  V30 31443 H 2813.98 -1.35572 -1.63505 0
M  V30 31444 H 2816.24 -0.555649 -0.768087 0
M  V30 31445 H 2815.95 -1.55276 -3.15567 0
M  V30 31446 H 2815.82 0.0857258 -3.77103 0
M  V30 31447 H 2818.21 0.556537 -2.89805 0
M  V30 31448 H 2818.29 -1.10866 -2.30526 0
M  V30 31449 H 2817.93 -1.95102 -4.68932 0
M  V30 31450 H 2817.86 -0.264616 -5.25935 0
M  V30 31451 H 2820.35 -0.591881 -3.73236 0
M  V30 31452 H 2820.67 -1.82399 -7.50966 0
M  V30 31453 H 2819.01 -1.63361 -6.75528 0
M  V30 31454 H 2822.2 -0.81625 -4.60928 0
M  V30 31455 H 2822.37 -1.37788 -6.33181 0
M  V30 31456 N 2815.78 1.57153 -0.118604 0
M  V30 31457 C 2817.06 1.86709 0.583029 0
M  V30 31458 C 2817.44 1.0197 1.84839 0
M  V30 31459 O 2816.79 0.0985074 2.28288 0
M  V30 31460 C 2817 3.37831 0.875853 0
M  V30 31461 C 2818.34 4.06422 1.22909 0
M  V30 31462 O 2819.37 3.42848 0.966127 0
M  V30 31463 O 2818.23 5.18641 1.72259 0
M  V30 31464 H 2815.32 0.772912 0.294171 0
M  V30 31465 H 2817.87 1.69008 -0.153077 0
M  V30 31466 H 2816.64 3.91294 -0.0208464 0
M  V30 31467 H 2816.26 3.60961 1.66713 0
M  V30 31468 N 2817.26 -0.155167 1.56834 0
M  V30 31469 C 2818.19 -1.21673 1.94238 0
M  V30 31470 C 2819.2 -1.3962 0.837265 0
M  V30 31471 O 2820.39 -1.39336 1.11569 0
M  V30 31472 C 2817.49 -2.5829 2.19407 0
M  V30 31473 C 2816.67 -2.61429 3.50676 0
M  V30 31474 C 2815.72 -3.79526 3.64481 0
M  V30 31475 O 2814.75 -3.64777 4.36951 0
M  V30 31476 N 2815.95 -4.96648 3.00535 0
M  V30 31477 H 2818.72 -0.898881 2.85902 0
M  V30 31478 H 2816.28 -0.344802 1.58186 0
M  V30 31479 H 2818.27 -3.3579 2.25892 0
M  V30 31480 H 2816.84 -2.82401 1.34047 0
M  V30 31481 H 2816.06 -1.69906 3.55705 0
M  V30 31482 H 2817.35 -2.60551 4.37025 0
M  V30 31483 H 2816.75 -5.11533 2.41558 0
M  V30 31484 H 2815.3 -5.71952 3.12593 0
M  V30 31485 N 2818.74 -1.51782 -0.424256 0
M  V30 31486 C 2819.67 -1.76992 -1.52302 0
M  V30 31487 C 2820.65 -0.620237 -1.58389 0
M  V30 31488 O 2821.83 -0.864298 -1.73907 0
M  V30 31489 C 2818.96 -1.90688 -2.90268 0
M  V30 31490 C 2817.92 -3.06203 -2.99038 0
M  V30 31491 C 2817.24 -3.051 -4.39111 0
M  V30 31492 C 2818.54 -4.45938 -2.71912 0
M  V30 31493 H 2820.24 -2.68997 -1.31457 0
M  V30 31494 H 2817.78 -1.29441 -0.630962 0
M  V30 31495 H 2819.74 -2.06907 -3.67107 0
M  V30 31496 H 2818.46 -0.95342 -3.12374 0
M  V30 31497 H 2817.12 -2.8971 -2.24641 0
M  V30 31498 H 2816.77 -2.07506 -4.58203 0
M  V30 31499 H 2816.47 -3.82677 -4.45906 0
M  V30 31500 H 2817.99 -3.23429 -5.17905 0
M  V30 31501 H 2819.4 -4.62715 -3.38479 0
M  V30 31502 H 2817.8 -5.2532 -2.90102 0
M  V30 31503 H 2818.87 -4.55075 -1.67437 0
M  V30 31504 N 2820.21 0.68054 -1.42149 0
M  V30 31505 C 2821.16 1.79421 -1.45178 0
M  V30 31506 C 2822.13 1.63287 -0.304381 0
M  V30 31507 O 2823.32 1.83923 -0.507623 0
M  V30 31508 C 2820.46 3.17414 -1.35434 0
M  V30 31509 C 2819.57 3.44875 -2.60164 0
M  V30 31510 C 2818.7 4.72564 -2.42604 0
M  V30 31511 C 2817.74 4.93041 -3.62735 0
M  V30 31512 N 2816.88 6.11966 -3.44153 0
M  V30 31513 H 2821.72 1.76167 -2.40352 0
M  V30 31514 H 2819.26 0.860086 -1.19335 0
M  V30 31515 H 2821.22 3.97149 -1.27784 0
M  V30 31516 H 2819.85 3.19807 -0.438592 0
M  V30 31517 H 2818.9 2.59435 -2.78204 0
M  V30 31518 H 2820.21 3.55902 -3.49479 0
M  V30 31519 H 2819.36 5.6038 -2.32507 0
M  V30 31520 H 2818.1 4.6381 -1.5077 0
M  V30 31521 H 2817.11 4.03669 -3.73271 0
M  V30 31522 H 2818.33 5.03644 -4.55543 0
M  V30 31523 H 2816.28 6.04397 -2.55031 0
M  V30 31524 H 2816.2 6.23829 -4.27052 0
M  V30 31525 H 2817.46 7.02476 -3.37857 0
M  V30 31526 N 2821.69 1.28226 0.916285 0
M  V30 31527 C 2822.6 1.13778 2.05163 0
M  V30 31528 C 2823.62 0.0649724 1.73879 0
M  V30 31529 O 2824.79 0.273757 1.99531 0
M  V30 31530 C 2821.86 0.798326 3.37384 0
M  V30 31531 C 2820.92 1.95323 3.82292 0
M  V30 31532 C 2820.15 1.62987 5.08204 0
M  V30 31533 O 2820.38 0.543048 5.67809 0
M  V30 31534 O 2819.31 2.4727 5.48763 0
M  V30 31535 H 2823.14 2.09082 2.20269 0
M  V30 31536 H 2820.72 1.07521 1.03728 0
M  V30 31537 H 2822.6 0.622853 4.16772 0
M  V30 31538 H 2821.28 -0.125082 3.23458 0
M  V30 31539 H 2820.19 2.18384 3.03742 0
M  V30 31540 H 2821.52 2.85725 4.00777 0
M  V30 31541 N 2823.17 -1.12438 1.10433 0
M  V30 31542 C 2824.4 -1.88311 0.869122 0
M  V30 31543 C 2824.82 -1.791 -0.57488 0
M  V30 31544 O 2824.18 -1.14592 -1.40494 0
M  V30 31545 C 2824.23 -3.35487 1.32214 0
M  V30 31546 O 2823.33 -4.09512 0.487164 0
M  V30 31547 H 2822.67 -0.585116 0.313904 0
M  V30 31548 H 2825.2 -1.42193 1.47114 0
M  V30 31549 H 2825.21 -3.86327 1.31208 0
M  V30 31550 H 2823.89 -3.41509 2.3737 0
M  V30 31551 H 2822.46 -3.68634 0.562436 0
M  V30 31552 N 2824.65 -0.893076 -1.29853 0
M  V30 31553 C 2825.58 -0.382289 -2.30349 0
M  V30 31554 C 2826.56 0.539174 -1.61329 0
M  V30 31555 O 2827.75 0.451309 -1.88883 0
M  V30 31556 C 2824.88 0.396922 -3.45024 0
M  V30 31557 C 2823.83 -0.433512 -4.25799 0
M  V30 31558 C 2823.16 0.472796 -5.32606 0
M  V30 31559 C 2824.46 -1.67993 -4.94546 0
M  V30 31560 H 2826.15 -1.2221 -2.73322 0
M  V30 31561 H 2823.7 -0.589096 -1.31399 0
M  V30 31562 H 2825.65 0.764951 -4.14399 0
M  V30 31563 H 2824.37 1.27045 -3.00877 0
M  V30 31564 H 2823.03 -0.783786 -3.58123 0
M  V30 31565 H 2822.68 1.34427 -4.84704 0
M  V30 31566 H 2822.38 -0.0790991 -5.87547 0
M  V30 31567 H 2823.9 0.837163 -6.04834 0
M  V30 31568 H 2825.32 -1.38202 -5.56393 0
M  V30 31569 H 2823.71 -2.17264 -5.59389 0
M  V30 31570 H 2824.78 -2.41972 -4.20211 0
M  V30 31571 N 2826.13 1.4335 -0.654865 0
M  V30 31572 C 2827.06 2.29079 0.0744354 0
M  V30 31573 C 2828.07 1.42598 0.785475 0
M  V30 31574 O 2829.26 1.66518 0.642956 0
M  V30 31575 C 2826.36 3.19558 1.12853 0
M  V30 31576 C 2825.53 4.34587 0.495305 0
M  V30 31577 C 2824.59 5.05928 1.4465 0
M  V30 31578 O 2823.62 5.6114 0.954468 0
M  V30 31579 N 2824.82 5.09581 2.78043 0
M  V30 31580 H 2827.59 2.92311 -0.661397 0
M  V30 31581 H 2825.15 1.54058 -0.497771 0
M  V30 31582 H 2827.14 3.6415 1.7657 0
M  V30 31583 H 2825.71 2.57915 1.76632 0
M  V30 31584 H 2824.93 3.92891 -0.320989 0
M  V30 31585 H 2826.22 5.08772 0.0533309 0
M  V30 31586 H 2825.62 4.66098 3.20576 0
M  V30 31587 H 2824.17 5.57884 3.37058 0
M  V30 31588 N 2827.61 0.39689 1.52521 0
M  V30 31589 C 2828.52 -0.44174 2.30404 0
M  V30 31590 C 2829.53 -1.06466 1.37626 0
M  V30 31591 O 2830.71 -1.06883 1.70699 0
M  V30 31592 C 2827.77 -1.5498 3.10132 0
M  V30 31593 C 2826.83 -0.951206 4.18629 0
M  V30 31594 C 2826.07 -2.00646 4.94547 0
M  V30 31595 O 2826.29 -3.22272 4.70634 0
M  V30 31596 O 2825.22 -1.61952 5.79703 0
M  V30 31597 H 2829.05 0.192946 3.03086 0
M  V30 31598 H 2826.63 0.160406 1.48536 0
M  V30 31599 H 2828.52 -2.19335 3.5982 0
M  V30 31600 H 2827.19 -2.16931 2.40255 0
M  V30 31601 H 2826.1 -0.270707 3.73119 0
M  V30 31602 H 2827.43 -0.375801 4.90763 0
M  V30 31603 N 2829.08 -1.57088 0.126936 0
M  V30 31604 C 2830.31 -1.9982 -0.536635 0
M  V30 31605 C 2830.73 -1.00676 -1.59718 0
M  V30 31606 O 2830.08 -0.000779444 -1.825 0
M  V30 31607 C 2830.13 -3.42533 -1.15557 0
M  V30 31608 O 2829.86 -4.37884 -0.137406 0
M  V30 31609 C 2831.36 -4.00438 -1.90169 0
M  V30 31610 H 2828.58 -0.655926 -0.141431 0
M  V30 31611 H 2831.12 -2.0336 0.215613 0
M  V30 31612 H 2829.28 -3.39907 -1.85855 0
M  V30 31613 H 2829.69 -5.21192 -0.588137 0
M  V30 31614 H 2831.16 -5.02353 -2.28792 0
M  V30 31615 H 2831.64 -3.40022 -2.77996 0
M  V30 31616 H 2832.25 -4.06634 -1.24615 0
M  V30 31617 N 2830.56 0.146848 -1.56914 0
M  V30 31618 C 2831.51 1.1813 -1.98277 0
M  V30 31619 C 2832.48 1.4268 -0.850392 0
M  V30 31620 O 2833.66 1.55012 -1.11247 0
M  V30 31621 C 2830.8 2.50975 -2.36866 0
M  V30 31622 C 2829.92 2.33598 -3.63395 0
M  V30 31623 C 2829.05 3.59479 -3.91086 0
M  V30 31624 C 2828.09 3.3714 -5.10885 0
M  V30 31625 N 2827.23 4.55152 -5.34585 0
M  V30 31626 H 2832.07 0.821572 -2.86451 0
M  V30 31627 H 2829.6 0.394223 -1.41719 0
M  V30 31628 H 2831.56 3.28435 -2.57267 0
M  V30 31629 H 2830.19 2.84895 -1.51771 0
M  V30 31630 H 2829.24 1.47193 -3.50768 0
M  V30 31631 H 2830.56 2.13051 -4.51011 0
M  V30 31632 H 2829.71 4.45367 -4.11987 0
M  V30 31633 H 2828.45 3.83031 -3.01892 0
M  V30 31634 H 2827.45 2.4964 -4.89857 0
M  V30 31635 H 2828.68 3.14987 -6.01631 0
M  V30 31636 H 2826.63 4.78876 -4.48346 0
M  V30 31637 H 2826.54 4.37608 -6.1647 0
M  V30 31638 H 2827.81 5.42253 -5.59984 0
M  V30 31639 N 2832.04 1.52005 0.4162 0
M  V30 31640 C 2833 1.74226 1.48923 0
M  V30 31641 C 2834 0.612146 1.48692 0
M  V30 31642 O 2835.19 0.879947 1.50342 0
M  V30 31643 C 2832.32 1.81814 2.88368 0
M  V30 31644 H 2833.52 2.70011 1.30515 0
M  V30 31645 H 2831.07 1.42314 0.646246 0
M  V30 31646 H 2831.81 0.87919 3.12155 0
M  V30 31647 H 2831.59 2.63965 2.89939 0
M  V30 31648 H 2833.08 2.00772 3.6617 0
M  V30 31649 N 2833.52 -0.672992 1.42508 0
M  V30 31650 C 2834.93 -0.986333 1.25474 0
M  V30 31651 C 2835.13 -2.00862 0.160217 0
M  V30 31652 O 2834.19 -2.48126 -0.467949 0
M  V30 31653 C 2835.5 -1.48942 2.61222 0
M  V30 31654 C 2837.05 -1.6071 2.68591 0
M  V30 31655 C 2837.53 -2.14414 4.0471 0
M  V30 31656 N 2839.02 -2.21745 4.06674 0
M  V30 31657 C 2839.75 -2.64377 5.08814 0
M  V30 31658 N 2839.25 -3.06449 6.21338 0
M  V30 31659 N 2841.04 -2.64142 4.96171 0
M  V30 31660 H 2833.19 0.00382266 2.124 0
M  V30 31661 H 2835.45 -0.06082 0.946047 0
M  V30 31662 H 2835.16 -0.812752 3.4218 0
M  V30 31663 H 2835.03 -2.46786 2.85266 0
M  V30 31664 H 2837.42 -2.27483 1.87978 0
M  V30 31665 H 2837.5 -0.613509 2.48334 0
M  V30 31666 H 2837.15 -1.4825 4.85782 0
M  V30 31667 H 2837.08 -3.14568 4.22321 0
M  V30 31668 H 2839.57 -1.92084 3.25442 0
M  V30 31669 H 2839.88 -3.37672 6.95124 0
M  V30 31670 H 2838.23 -3.04302 6.2484 0
M  V30 31671 H 2841.42 -2.30637 4.07338 0
M  V30 31672 H 2841.59 -2.97047 5.75906 0
M  V30 31673 N 2835 -1.2871 -0.909472 0
M  V30 31674 C 2836.27 -1.06809 -1.63863 0
M  V30 31675 C 2836.65 0.391107 -2.07445 0
M  V30 31676 O 2836 1.37802 -1.82271 0
M  V30 31677 C 2836.21 -2.04666 -2.82688 0
M  V30 31678 C 2837.56 -2.35048 -3.53606 0
M  V30 31679 O 2838.58 -2.02784 -2.92843 0
M  V30 31680 O 2837.44 -2.90132 -4.63126 0
M  V30 31681 H 2834.54 -0.408515 -0.719058 0
M  V30 31682 H 2837.08 -1.40046 -0.9584 0
M  V30 31683 H 2835.85 -3.02995 -2.47609 0
M  V30 31684 H 2835.48 -1.72101 -3.58423 0
M  V30 31685 N 2836.47 1.1185 -1.11028 0
M  V30 31686 C 2837.4 2.19843 -0.786851 0
M  V30 31687 C 2838.38 1.68357 0.242905 0
M  V30 31688 O 2839.57 1.93903 0.107321 0
M  V30 31689 C 2836.7 3.46573 -0.224577 0
M  V30 31690 C 2835.65 4.11248 -1.18572 0
M  V30 31691 C 2834.98 5.32502 -0.484355 0
M  V30 31692 C 2836.28 4.56671 -2.53473 0
M  V30 31693 H 2837.97 2.47155 -1.68982 0
M  V30 31694 H 2835.52 1.18791 -0.813927 0
M  V30 31695 H 2837.47 4.21398 0.0138694 0
M  V30 31696 H 2836.2 3.18707 0.713666 0
M  V30 31697 H 2834.86 3.38412 -1.40972 0
M  V30 31698 H 2834.5 5.00905 0.458558 0
M  V30 31699 H 2834.2 5.76723 -1.12536 0
M  V30 31700 H 2835.73 6.10069 -0.2546 0
M  V30 31701 H 2837.14 5.22839 -2.35186 0
M  V30 31702 H 2835.54 5.11691 -3.13516 0
M  V30 31703 H 2836.61 3.70338 -3.13014 0
M  V30 31704 N 2837.95 0.89995 1.29378 0
M  V30 31705 C 2838.86 0.382478 2.31461 0
M  V30 31706 C 2839.88 -0.5229 1.65957 0
M  V30 31707 O 2841.05 -0.412419 1.97132 0
M  V30 31708 C 2838.12 -0.381411 3.44596 0
M  V30 31709 C 2837.18 0.555519 4.25691 0
M  V30 31710 C 2836.41 -0.172008 5.33423 0
M  V30 31711 O 2836.64 -1.39591 5.53056 0
M  V30 31712 O 2835.57 0.485597 5.99938 0
M  V30 31713 H 2839.4 1.22939 2.77704 0
M  V30 31714 H 2836.98 0.664282 1.33819 0
M  V30 31715 H 2838.86 -0.813369 4.13476 0
M  V30 31716 H 2837.54 -1.20438 3.0046 0
M  V30 31717 H 2836.44 1.0366 3.59452 0
M  V30 31718 H 2837.78 1.34491 4.73469 0
M  V30 31719 N 2839.43 -1.43001 0.662458 0
M  V30 31720 C 2840.68 -2.00923 0.176908 0
M  V30 31721 C 2840.99 -1.52929 -1.21952 0
M  V30 31722 O 2842.2 -2.03185 -1.80078 0
M  V30 31723 C 2840.65 -3.5892 0.265442 0
M  V30 31724 C 2840.26 -4.15905 1.66514 0
M  V30 31725 C 2842.01 -4.24191 -0.162029 0
M  V30 31726 C 2839.91 -5.66226 1.7071 0
M  V30 31727 H 2838.84 -0.751415 0.062376 0
M  V30 31728 H 2841.49 -1.63866 0.825842 0
M  V30 31729 H 2839.88 -3.93422 -0.451166 0
M  V30 31730 H 2841.05 -3.92886 2.40784 0
M  V30 31731 H 2839.37 -3.6304 2.03939 0
M  V30 31732 H 2841.96 -5.34488 -0.150651 0
M  V30 31733 H 2842.31 -3.98776 -1.19512 0
M  V30 31734 H 2842.84 -3.94605 0.503144 0
M  V30 31735 H 2839.58 -5.96421 2.7196 0
M  V30 31736 H 2839.1 -5.91273 1.00779 0
M  V30 31737 H 2840.78 -6.30428 1.45498 0
M  V30 31738 N 2840.91 -0.404973 -1.52308 0
M  V30 31739 C 2841.84 0.457871 -2.2458 0
M  V30 31740 C 2842.85 1.01367 -1.27391 0
M  V30 31741 O 2844.04 0.913323 -1.53364 0
M  V30 31742 C 2841.14 1.64888 -2.96083 0
M  V30 31743 C 2840.32 1.2177 -4.20108 0
M  V30 31744 C 2839.37 2.27514 -4.74472 0
M  V30 31745 O 2838.4 1.88276 -5.3716 0
M  V30 31746 N 2839.6 3.59627 -4.55685 0
M  V30 31747 H 2842.37 -0.161393 -2.99265 0
M  V30 31748 H 2839.93 -0.232135 -1.60227 0
M  V30 31749 H 2841.92 2.35185 -3.29348 0
M  V30 31750 H 2840.49 2.17415 -2.2461 0
M  V30 31751 H 2839.71 0.343002 -3.92705 0
M  V30 31752 H 2841 0.906508 -5.00659 0
M  V30 31753 H 2840.4 3.94259 -4.0568 0
M  V30 31754 H 2838.95 4.25913 -4.93397 0
M  V30 31755 N 2842.39 1.57018 -0.135265 0
M  V30 31756 C 2843.32 2.13267 0.839637 0
M  V30 31757 C 2844.33 1.07926 1.21885 0
M  V30 31758 O 2845.52 1.35243 1.16497 0
M  V30 31759 C 2842.62 2.63079 2.13642 0
M  V30 31760 C 2841.79 3.92694 1.9264 0
M  V30 31761 C 2840.85 4.27937 3.06197 0
M  V30 31762 O 2839.88 4.9647 2.784 0
M  V30 31763 N 2841.08 3.86568 4.33065 0
M  V30 31764 H 2843.85 2.97542 0.358974 0
M  V30 31765 H 2841.41 1.61827 0.0486695 0
M  V30 31766 H 2843.4 2.83675 2.88636 0
M  V30 31767 H 2841.97 1.83593 2.53007 0
M  V30 31768 H 2841.19 3.80843 1.01747 0
M  V30 31769 H 2842.48 4.77416 1.75931 0
M  V30 31770 H 2841.87 3.31325 4.5852 0
M  V30 31771 H 2840.43 4.1224 5.04878 0
M  V30 31772 N 2843.86 -0.138524 1.5699 0
M  V30 31773 C 2844.77 -1.19005 2.02176 0
M  V30 31774 C 2845.79 -1.46511 0.938647 0
M  V30 31775 O 2846.97 -1.58013 1.24875 0
M  V30 31776 C 2844.03 -2.50154 2.40049 0
M  V30 31777 C 2843.09 -2.3022 3.6235 0
M  V30 31778 C 2842.33 -3.55116 3.98407 0
M  V30 31779 O 2842.55 -4.61642 3.35027 0
M  V30 31780 O 2841.48 -3.47276 4.91613 0
M  V30 31781 H 2845.31 -0.836401 2.91956 0
M  V30 31782 H 2842.89 -0.347881 1.45293 0
M  V30 31783 H 2844.78 -3.27461 2.65231 0
M  V30 31784 H 2843.45 -2.85032 1.53422 0
M  V30 31785 H 2842.36 -1.50837 3.42344 0
M  V30 31786 H 2843.69 -2.00255 4.49621 0
M  V30 31787 N 2845.34 -1.52224 -0.408133 0
M  V30 31788 C 2846.27 -1.78598 -1.50416 0
M  V30 31789 C 2847.25 -0.637002 -1.57722 0
M  V30 31790 O 2848.44 -0.882695 -1.7298 0
M  V30 31791 C 2845.57 -1.93756 -2.88229 0
M  V30 31792 C 2844.52 -3.09358 -2.95773 0
M  V30 31793 C 2843.85 -3.0974 -4.3585 0
M  V30 31794 C 2845.15 -4.48797 -2.67167 0
M  V30 31795 H 2846.84 -2.70376 -1.28596 0
M  V30 31796 H 2844.39 -1.30103 -0.617198 0
M  V30 31797 H 2846.34 -2.10789 -3.64892 0
M  V30 31798 H 2845.07 -0.986497 -3.11345 0
M  V30 31799 H 2843.72 -2.92076 -2.21556 0
M  V30 31800 H 2843.37 -2.12354 -4.55977 0
M  V30 31801 H 2843.07 -3.87385 -4.41822 0
M  V30 31802 H 2844.6 -3.28904 -5.14446 0
M  V30 31803 H 2846.01 -4.66279 -3.33552 0
M  V30 31804 H 2844.41 -5.28367 -2.84514 0
M  V30 31805 H 2845.48 -4.56825 -1.62601 0
M  V30 31806 N 2846.82 0.665425 -1.42863 0
M  V30 31807 C 2847.77 1.77871 -1.47073 0
M  V30 31808 C 2848.74 1.62955 -0.321682 0
M  V30 31809 O 2849.92 1.83375 -0.527102 0
M  V30 31810 C 2847.06 3.1596 -1.38793 0
M  V30 31811 C 2846.18 3.42096 -2.63807 0
M  V30 31812 C 2845.31 4.69964 -2.47603 0
M  V30 31813 C 2844.35 4.89166 -3.67944 0
M  V30 31814 N 2843.49 6.08282 -3.50625 0
M  V30 31815 H 2848.33 1.73608 -2.42207 0
M  V30 31816 H 2845.86 0.84738 -1.20241 0
M  V30 31817 H 2847.82 3.95771 -1.31989 0
M  V30 31818 H 2846.45 3.19323 -0.472487 0
M  V30 31819 H 2845.5 2.5647 -2.8094 0
M  V30 31820 H 2846.82 3.52175 -3.53234 0
M  V30 31821 H 2845.97 5.57882 -2.38437 0
M  V30 31822 H 2844.71 4.62185 -1.5568 0
M  V30 31823 H 2843.71 3.99687 -3.77532 0
M  V30 31824 H 2844.94 4.98784 -4.60859 0
M  V30 31825 H 2842.88 6.01658 -2.61427 0
M  V30 31826 H 2842.8 6.19264 -4.33645 0
M  V30 31827 H 2844.07 6.98853 -3.45289 0
M  V30 31828 N 2848.3 1.29191 0.902633 0
M  V30 31829 C 2849.53 1.19872 1.68637 0
M  V30 31830 C 2849.94 -0.241088 1.87254 0
M  V30 31831 O 2849.3 -1.16174 1.40747 0
M  V30 31832 C 2849.35 1.90476 3.07247 0
M  V30 31833 O 2849.07 3.28834 2.89482 0
M  V30 31834 C 2850.57 1.87597 4.01649 0
M  V30 31835 H 2847.79 0.415606 0.526795 0
M  V30 31836 H 2850.34 1.70512 1.12898 0
M  V30 31837 H 2848.49 1.43679 3.59771 0
M  V30 31838 H 2848.9 3.64352 3.7729 0
M  V30 31839 H 2850.38 2.41569 4.96335 0
M  V30 31840 H 2850.86 0.850832 4.3088 0
M  V30 31841 H 2851.46 2.34125 3.55057 0
M  V30 31842 N 2849.78 -1.1126 1.1162 0
M  V30 31843 C 2850.74 -2.15538 0.779485 0
M  V30 31844 C 2851.74 -1.59525 -0.202053 0
M  V30 31845 O 2852.93 -1.74185 0.0226663 0
M  V30 31846 C 2850.06 -3.40539 0.1568 0
M  V30 31847 H 2851.25 -2.46837 1.70328 0
M  V30 31848 H 2848.81 -1.26478 0.918321 0
M  V30 31849 H 2849.54 -3.14851 -0.77713 0
M  V30 31850 H 2849.33 -3.82476 0.863375 0
M  V30 31851 H 2850.82 -4.17553 -0.0625876 0
M  V30 31852 N 2851.25 -0.906798 -1.28899 0
M  V30 31853 C 2852.67 -0.603928 -1.47732 0
M  V30 31854 C 2852.87 0.85267 -1.8257 0
M  V30 31855 O 2851.93 1.6323 -1.92645 0
M  V30 31856 C 2853.24 -1.53585 -2.58519 0
M  V30 31857 C 2854.79 -1.54182 -2.72391 0
M  V30 31858 C 2855.26 -2.4602 -3.86314 0
M  V30 31859 N 2856.75 -2.44107 -3.93657 0
M  V30 31860 C 2857.49 -3.11868 -4.81172 0
M  V30 31861 N 2856.98 -3.88933 -5.73326 0
M  V30 31862 N 2858.78 -3.0099 -4.74723 0
M  V30 31863 H 2850.93 -1.84879 -1.04564 0
M  V30 31864 H 2853.19 -0.792588 -0.520104 0
M  V30 31865 H 2852.9 -2.574 -2.39662 0
M  V30 31866 H 2852.77 -1.26171 -3.55472 0
M  V30 31867 H 2855.16 -0.511086 -2.90641 0
M  V30 31868 H 2855.24 -1.85637 -1.7599 0
M  V30 31869 H 2854.88 -3.49191 -3.68819 0
M  V30 31870 H 2854.81 -2.11871 -4.82098 0
M  V30 31871 H 2857.3 -1.88121 -3.27748 0
M  V30 31872 H 2857.62 -4.37674 -6.36915 0
M  V30 31873 H 2855.96 -3.93039 -5.73189 0
M  V30 31874 H 2859.15 -2.40293 -4.01717 0
M  V30 31875 H 2859.33 -3.54072 -5.42713 0
M  V30 31876 N 2852.73 1.42648 -0.670032 0
M  V30 31877 C 2853.67 2.28118 0.0613222 0
M  V30 31878 C 2854.64 1.40793 0.813389 0
M  V30 31879 O 2855.83 1.70233 0.809499 0
M  V30 31880 C 2852.95 3.20548 1.09393 0
M  V30 31881 C 2852 4.24245 0.43799 0
M  V30 31882 S 2852.83 5.29477 -0.800901 0
M  V30 31883 C 2853.99 6.25475 0.230751 0
M  V30 31884 H 2854.22 2.89798 -0.663656 0
M  V30 31885 H 2851.76 1.47407 -0.459416 0
M  V30 31886 H 2853.71 3.7434 1.68463 0
M  V30 31887 H 2852.37 2.58012 1.79132 0
M  V30 31888 H 2851.57 4.89086 1.21698 0
M  V30 31889 H 2851.17 3.73917 -0.0790003 0
M  V30 31890 H 2853.46 6.68643 1.09192 0
M  V30 31891 H 2854.4 7.07063 -0.38307 0
M  V30 31892 H 2854.81 5.61573 0.574092 0
M  V30 31893 N 2854.21 0.413044 1.52091 0
M  V30 31894 C 2855.14 -0.401527 2.30022 0
M  V30 31895 C 2856.12 -1.04267 1.34397 0
M  V30 31896 O 2857.31 -1.05094 1.63306 0
M  V30 31897 C 2854.44 -1.51632 3.1245 0
M  V30 31898 C 2853.39 -0.999977 4.16154 0
M  V30 31899 C 2852.72 -2.20867 4.86952 0
M  V30 31900 C 2854.02 -0.0512839 5.22275 0
M  V30 31901 H 2855.71 0.248757 2.98365 0
M  V30 31902 H 2853.26 0.121077 1.4349 0
M  V30 31903 H 2855.21 -2.09319 3.65737 0
M  V30 31904 H 2853.93 -2.19454 2.41883 0
M  V30 31905 H 2852.59 -0.445485 3.63883 0
M  V30 31906 H 2852.24 -2.87252 4.1291 0
M  V30 31907 H 2851.94 -1.86968 5.57061 0
M  V30 31908 H 2853.47 -2.79153 5.43053 0
M  V30 31909 H 2854.88 -0.537076 5.70779 0
M  V30 31910 H 2853.28 0.199082 5.9977 0
M  V30 31911 H 2854.35 0.892819 4.7661 0
M  V30 31912 N 2855.69 -1.56945 0.143591 0
M  V30 31913 C 2856.91 -2.0081 -0.518666 0
M  V30 31914 C 2857.34 -1.02301 -1.57849 0
M  V30 31915 O 2856.7 0.00175203 -1.813 0
M  V30 31916 C 2856.75 -3.43438 -1.09923 0
M  V30 31917 O 2855.85 -3.47919 -2.21419 0
M  V30 31918 H 2855.19 -0.651702 -0.127203 0
M  V30 31919 H 2857.72 -2.03196 0.239318 0
M  V30 31920 H 2857.73 -3.82167 -1.42873 0
M  V30 31921 H 2856.41 -4.14643 -0.323089 0
M  V30 31922 H 2854.98 -3.21029 -1.89723 0
M  V30 31923 N 2857.17 0.130197 -1.57061 0
M  V30 31924 C 2858.11 1.16021 -1.99519 0
M  V30 31925 C 2859.08 1.4177 -0.865477 0
M  V30 31926 O 2860.27 1.53824 -1.12885 0
M  V30 31927 C 2857.41 2.48449 -2.39514 0
M  V30 31928 C 2856.52 2.29731 -3.65852 0
M  V30 31929 C 2855.66 3.55311 -3.94876 0
M  V30 31930 C 2854.7 3.31702 -5.14432 0
M  V30 31931 N 2853.83 4.49456 -5.39383 0
M  V30 31932 H 2858.67 0.791144 -2.87306 0
M  V30 31933 H 2856.21 0.37917 -1.42129 0
M  V30 31934 H 2858.17 3.25687 -2.60736 0
M  V30 31935 H 2856.8 2.8327 -1.54784 0
M  V30 31936 H 2855.85 1.43464 -3.5231 0
M  V30 31937 H 2857.16 2.08255 -4.53245 0
M  V30 31938 H 2856.32 4.40972 -4.16687 0
M  V30 31939 H 2855.06 3.79807 -3.05937 0
M  V30 31940 H 2854.06 2.44431 -4.92477 0
M  V30 31941 H 2855.29 3.08588 -6.04938 0
M  V30 31942 H 2853.23 4.74094 -4.534 0
M  V30 31943 H 2853.15 4.31045 -6.21077 0
M  V30 31944 H 2854.42 5.36283 -5.65704 0
M  V30 31945 N 2858.65 1.52438 0.400055 0
M  V30 31946 C 2859.56 1.79334 1.5125 0
M  V30 31947 C 2860.57 0.679425 1.60187 0
M  V30 31948 O 2861.75 0.965822 1.76731 0
M  V30 31949 C 2858.81 1.94657 2.86896 0
M  V30 31950 C 2857.87 3.18569 2.87772 0
M  V30 31951 C 2857.11 3.33152 4.16948 0
M  V30 31952 O 2857.33 2.52792 5.11324 0
M  V30 31953 O 2856.26 4.26351 4.24863 0
M  V30 31954 H 2860.09 2.73775 1.31456 0
M  V30 31955 H 2857.67 1.37393 0.58681 0
M  V30 31956 H 2859.56 2.06507 3.67332 0
M  V30 31957 H 2858.23 1.03405 3.06739 0
M  V30 31958 H 2857.14 3.1217 2.06157 0
M  V30 31959 H 2858.47 4.09631 2.72879 0
M  V30 31960 N 2860.12 -0.657839 1.43214 0
M  V30 31961 C 2861.07 -1.76394 1.44462 0
M  V30 31962 C 2862.06 -1.57813 0.313668 0
M  V30 31963 O 2863.25 -1.68003 0.557123 0
M  V30 31964 C 2860.38 -3.14957 1.36591 0
M  V30 31965 C 2859.46 -3.39101 2.54698 0
M  V30 31966 N 2859.86 -3.33742 3.80065 0
M  V30 31967 C 2858.15 -3.69803 2.49323 0
M  V30 31968 C 2858.85 -3.57841 4.58612 0
M  V30 31969 N 2857.83 -3.7943 3.89273 0
M  V30 31970 H 2861.63 -1.70669 2.39268 0
M  V30 31971 H 2859.15 -0.859333 1.37801 0
M  V30 31972 H 2861.14 -3.94242 1.35568 0
M  V30 31973 H 2859.8 -3.21867 0.428013 0
M  V30 31974 H 2860.81 -3.13259 4.12419 0
M  V30 31975 H 2857.49 -3.83856 1.64197 0
M  V30 31976 H 2858.88 -3.59515 5.67625 0
M  V30 31977 N 2861.6 -1.29668 -0.895769 0
M  V30 31978 C 2862.55 -1.15132 -2.00033 0
M  V30 31979 C 2863.52 -0.0436111 -1.66043 0
M  V30 31980 O 2864.7 -0.211844 -1.8962 0
M  V30 31981 C 2861.84 -0.837929 -3.34773 0
M  V30 31982 C 2860.96 -2.02646 -3.81521 0
M  V30 31983 C 2860.09 -1.6521 -5.04855 0
M  V30 31984 C 2859.13 -2.80622 -5.43983 0
M  V30 31985 N 2858.27 -2.43555 -6.58502 0
M  V30 31986 H 2863.11 -2.09632 -2.11798 0
M  V30 31987 H 2860.64 -1.04313 -1.03717 0
M  V30 31988 H 2862.6 -0.636896 -4.1231 0
M  V30 31989 H 2861.23 0.0701746 -3.22724 0
M  V30 31990 H 2860.28 -2.33908 -2.99985 0
M  V30 31991 H 2861.6 -2.89113 -4.06467 0
M  V30 31992 H 2860.75 -1.41419 -5.89988 0
M  V30 31993 H 2859.49 -0.758977 -4.81758 0
M  V30 31994 H 2858.49 -3.05091 -4.57383 0
M  V30 31995 H 2859.72 -3.70605 -5.6906 0
M  V30 31996 H 2857.67 -1.56735 -6.37001 0
M  V30 31997 H 2857.58 -3.23555 -6.83263 0
M  V30 31998 H 2858.85 -2.23093 -7.46893 0
M  V30 31999 N 2863.08 1.10667 -1.12208 0
M  V30 32000 C 2863.99 2.20512 -0.800724 0
M  V30 32001 C 2865.01 1.72734 0.209482 0
M  V30 32002 O 2866.18 2.01353 0.0436696 0
M  V30 32003 C 2863.25 3.45743 -0.257414 0
M  V30 32004 C 2862.31 4.08268 -1.32725 0
M  V30 32005 C 2861.54 5.27521 -0.809767 0
M  V30 32006 O 2861.76 5.6928 0.35732 0
M  V30 32007 O 2860.7 5.80839 -1.57826 0
M  V30 32008 H 2864.52 2.50429 -1.71811 0
M  V30 32009 H 2862.11 1.19357 -0.898567 0
M  V30 32010 H 2863.99 4.2138 0.0408108 0
M  V30 32011 H 2862.67 3.17459 0.632572 0
M  V30 32012 H 2861.57 3.34326 -1.6786 0
M  V30 32013 H 2862.91 4.40749 -2.19091 0
M  V30 32014 N 2864.56 0.913621 1.28416 0
M  V30 32015 C 2865.79 0.562571 1.99105 0
M  V30 32016 C 2866.2 -0.856107 1.68274 0
M  V30 32017 O 2865.56 -1.56703 0.935429 0
M  V30 32018 C 2865.61 0.761965 3.53378 0
M  V30 32019 O 2865.33 2.12482 3.83123 0
M  V30 32020 C 2866.83 0.417729 4.41327 0
M  V30 32021 H 2864.05 0.214492 0.635794 0
M  V30 32022 H 2866.59 1.22679 1.63616 0
M  V30 32023 H 2864.75 0.144744 3.8713 0
M  V30 32024 H 2865.16 2.1644 4.77759 0
M  V30 32025 H 2866.64 0.608015 5.48641 0
M  V30 32026 H 2867.11 -0.646031 4.34423 0
M  V30 32027 H 2867.72 1.01248 4.13072 0
M  V30 32028 N 2866.04 -1.4229 0.677588 0
M  V30 32029 C 2867.28 -2.01798 0.201308 0
M  V30 32030 C 2867.61 -1.53467 -1.19002 0
M  V30 32031 O 2866.89 -0.738071 -1.79952 0
M  V30 32032 C 2867.17 -3.59306 0.239031 0
M  V30 32033 C 2867.03 -4.17809 1.66601 0
M  V30 32034 C 2868.34 -4.38175 -0.41121 0
M  V30 32035 H 2865.46 -0.733212 0.0746243 0
M  V30 32036 H 2868.11 -1.69275 0.862902 0
M  V30 32037 H 2866.26 -3.87144 -0.3243 0
M  V30 32038 H 2867.93 -4.00913 2.2818 0
M  V30 32039 H 2866.17 -3.73532 2.20582 0
M  V30 32040 H 2866.84 -5.26948 1.64407 0
M  V30 32041 H 2869.32 -4.16044 0.0683535 0
M  V30 32042 H 2868.19 -5.47756 -0.35419 0
M  V30 32043 H 2868.45 -4.16263 -1.48923 0
M  V30 32044 N 2867.51 -0.421104 -1.5187 0
M  V30 32045 C 2868.79 0.209896 -1.94471 0
M  V30 32046 C 2869.17 1.61556 -1.35878 0
M  V30 32047 O 2868.52 2.22044 -0.539333 0
M  V30 32048 C 2868.73 0.204103 -3.48403 0
M  V30 32049 C 2870.08 0.417622 -4.22541 0
M  V30 32050 O 2871.1 0.282937 -3.55075 0
M  V30 32051 O 2869.96 0.684144 -5.42201 0
M  V30 32052 H 2867.05 0.138704 -0.815285 0
M  V30 32053 H 2869.6 -0.477913 -1.62831 0
M  V30 32054 H 2868.37 -0.77925 -3.83462 0
M  V30 32055 H 2867.99 0.935508 -3.86438 0
M  V30 32056 N 2868.99 1.56866 -0.151912 0
M  V30 32057 C 2869.94 2.17008 0.785897 0
M  V30 32058 C 2870.91 1.10437 1.24068 0
M  V30 32059 O 2872.09 1.38501 1.31233 0
M  V30 32060 C 2869.23 2.79972 2.01766 0
M  V30 32061 C 2868.35 4.00949 1.60823 0
M  V30 32062 C 2867.48 4.51898 2.79216 0
M  V30 32063 C 2866.52 5.65328 2.3467 0
M  V30 32064 N 2865.66 6.10874 3.46089 0
M  V30 32065 H 2870.5 2.96808 0.266234 0
M  V30 32066 H 2868.04 1.46612 0.119694 0
M  V30 32067 H 2869.99 3.14625 2.73983 0
M  V30 32068 H 2868.62 2.02808 2.51135 0
M  V30 32069 H 2867.68 3.72243 0.783527 0
M  V30 32070 H 2868.99 4.83113 1.2411 0
M  V30 32071 H 2868.14 4.88631 3.59617 0
M  V30 32072 H 2866.88 3.68751 3.19177 0
M  V30 32073 H 2865.89 5.28166 1.52711 0
M  V30 32074 H 2867.11 6.50264 1.9579 0
M  V30 32075 H 2865.06 5.30661 3.85662 0
M  V30 32076 H 2864.97 6.87977 3.13407 0
M  V30 32077 H 2866.24 6.52253 4.26832 0
M  V30 32078 N 2870.47 -0.121866 1.57128 0
M  V30 32079 C 2871.4 -1.15089 2.03167 0
M  V30 32080 C 2872.38 -1.43355 0.915612 0
M  V30 32081 O 2873.57 -1.53845 1.18513 0
M  V30 32082 C 2870.7 -2.4778 2.43357 0
M  V30 32083 C 2869.65 -2.33982 3.5838 0
M  V30 32084 C 2868.98 -3.7161 3.84461 0
M  V30 32085 C 2870.28 -1.80274 4.90203 0
M  V30 32086 H 2871.97 -0.767972 2.89383 0
M  V30 32087 H 2869.52 -0.367973 1.39219 0
M  V30 32088 H 2871.47 -3.20015 2.74169 0
M  V30 32089 H 2870.19 -2.87955 1.54108 0
M  V30 32090 H 2868.85 -1.64196 3.27773 0
M  V30 32091 H 2868.5 -4.09266 2.92422 0
M  V30 32092 H 2868.2 -3.63232 4.61883 0
M  V30 32093 H 2869.72 -4.45354 4.17722 0
M  V30 32094 H 2871.14 -2.42324 5.19569 0
M  V30 32095 H 2869.54 -1.82725 5.71605 0
M  V30 32096 H 2870.61 -0.7601 4.78906 0
M  V30 32097 N 2871.95 -1.52648 -0.391965 0
M  V30 32098 C 2873.36 -1.41833 -0.731823 0
M  V30 32099 C 2873.56 -0.536395 -1.94229 0
M  V30 32100 O 2872.62 -0.0087101 -2.52498 0
M  V30 32101 C 2873.93 -2.84636 -0.969693 0
M  V30 32102 C 2875.48 -2.94094 -1.07135 0
M  V30 32103 C 2875.96 -4.37902 -1.34187 0
M  V30 32104 N 2877.45 -4.41213 -1.41015 0
M  V30 32105 C 2878.18 -5.49564 -1.63606 0
M  V30 32106 N 2877.68 -6.68005 -1.83687 0
M  V30 32107 N 2879.47 -5.37103 -1.65761 0
M  V30 32108 H 2871.62 -2.08511 0.404584 0
M  V30 32109 H 2873.89 -0.940526 0.118806 0
M  V30 32110 H 2873.59 -3.5137 -0.152403 0
M  V30 32111 H 2873.47 -3.26712 -1.88518 0
M  V30 32112 H 2875.85 -2.2753 -1.87921 0
M  V30 32113 H 2875.93 -2.5545 -0.133842 0
M  V30 32114 H 2875.58 -5.05031 -0.539118 0
M  V30 32115 H 2875.51 -4.74096 -2.29217 0
M  V30 32116 H 2878 -3.55843 -1.27216 0
M  V30 32117 H 2878.31 -7.46358 -2.00424 0
M  V30 32118 H 2876.66 -6.71039 -1.80918 0
M  V30 32119 H 2879.85 -4.43543 -1.49622 0
M  V30 32120 H 2880.02 -6.21615 -1.83027 0
M  V30 32121 N 2873.43 0.650235 -1.43561 0
M  V30 32122 C 2874.34 1.79204 -1.51404 0
M  V30 32123 C 2875.35 1.69318 -0.400925 0
M  V30 32124 O 2876.53 1.90434 -0.655491 0
M  V30 32125 C 2873.59 3.15498 -1.43743 0
M  V30 32126 C 2872.65 3.37159 -2.65749 0
M  V30 32127 C 2871.89 4.6695 -2.58444 0
M  V30 32128 O 2872.11 5.465 -1.63384 0
M  V30 32129 O 2871.04 4.90395 -3.48993 0
M  V30 32130 H 2874.87 1.75542 -2.47828 0
M  V30 32131 H 2872.46 0.809089 -1.25595 0
M  V30 32132 H 2874.34 3.96782 -1.41923 0
M  V30 32133 H 2873.01 3.19744 -0.504544 0
M  V30 32134 H 2871.92 2.55627 -2.7314 0
M  V30 32135 H 2873.25 3.37761 -3.5802 0
M  V30 32136 N 2874.9 1.30141 0.88888 0
M  V30 32137 C 2875.85 1.16191 1.9942 0
M  V30 32138 C 2876.82 0.0524161 1.66017 0
M  V30 32139 O 2878.01 0.221897 1.89505 0
M  V30 32140 C 2875.15 0.855671 3.34324 0
M  V30 32141 C 2874.26 2.04667 3.80441 0
M  V30 32142 C 2873.39 1.67885 5.03972 0
M  V30 32143 C 2872.43 2.83503 5.42487 0
M  V30 32144 N 2871.57 2.47044 6.57201 0
M  V30 32145 H 2876.41 2.10752 2.10683 0
M  V30 32146 H 2873.95 1.04861 1.03163 0
M  V30 32147 H 2875.91 0.658753 4.11966 0
M  V30 32148 H 2874.54 -0.0530588 3.22756 0
M  V30 32149 H 2873.59 2.35496 2.98741 0
M  V30 32150 H 2874.9 2.91265 4.04928 0
M  V30 32151 H 2874.05 1.44545 5.8923 0
M  V30 32152 H 2872.79 0.784515 4.81349 0
M  V30 32153 H 2871.8 3.07513 4.55759 0
M  V30 32154 H 2873.02 3.73617 5.67086 0
M  V30 32155 H 2870.97 1.60111 6.36161 0
M  V30 32156 H 2870.89 3.27173 6.81538 0
M  V30 32157 H 2872.15 2.27051 7.457 0
M  V30 32158 N 2876.38 -1.1007 1.12794 0
M  V30 32159 C 2877.63 -1.81478 0.880264 0
M  V30 32160 C 2877.94 -1.86313 -0.595542 0
M  V30 32161 O 2879.15 -2.53964 -0.959934 0
M  V30 32162 C 2877.61 -3.25984 1.5252 0
M  V30 32163 C 2877.21 -3.29435 3.03606 0
M  V30 32164 C 2878.96 -4.02194 1.35795 0
M  V30 32165 C 2876.87 -4.68425 3.61015 0
M  V30 32166 H 2875.8 -0.680042 0.325666 0
M  V30 32167 H 2878.45 -1.23756 1.35487 0
M  V30 32168 H 2876.83 -3.83727 0.978256 0
M  V30 32169 H 2878 -2.81496 3.64824 0
M  V30 32170 H 2876.32 -2.66713 3.1977 0
M  V30 32171 H 2878.91 -5.04867 1.76105 0
M  V30 32172 H 2879.26 -4.15203 0.302045 0
M  V30 32173 H 2879.79 -3.50876 1.87432 0
M  V30 32174 H 2876.53 -4.60616 4.66383 0
M  V30 32175 H 2876.05 -5.16716 3.04573 0
M  V30 32176 H 2877.73 -5.37396 3.60298 0
M  V30 32177 N 2877.86 -0.920419 -1.2793 0
M  V30 32178 C 2879.09 -0.572514 -1.99342 0
M  V30 32179 C 2879.51 0.840666 -1.68269 0
M  V30 32180 O 2878.87 1.56292 -0.918832 0
M  V30 32181 C 2878.92 -0.796346 -3.51697 0
M  V30 32182 O 2878.02 0.141529 -4.12157 0
M  V30 32183 H 2877.36 -0.221232 -0.626061 0
M  V30 32184 H 2879.89 -1.23768 -1.62919 0
M  V30 32185 H 2879.9 -0.709055 -4.01792 0
M  V30 32186 H 2878.58 -1.82651 -3.73646 0
M  V30 32187 H 2877.15 0.00494146 -3.729 0
M  V30 32188 N 2879.34 1.41929 -0.685124 0
M  V30 32189 C 2880.25 2.34596 -0.0134453 0
M  V30 32190 C 2881.26 1.5566 0.777562 0
M  V30 32191 O 2882.44 1.88185 0.71752 0
M  V30 32192 C 2879.51 3.34299 0.918972 0
M  V30 32193 C 2878.57 4.29128 0.121342 0
M  V30 32194 C 2877.8 5.24069 1.00935 0
M  V30 32195 O 2878.02 5.24196 2.24889 0
M  V30 32196 O 2876.96 6.00104 0.464618 0
M  V30 32197 H 2880.78 2.93591 -0.777029 0
M  V30 32198 H 2878.37 1.42606 -0.445404 0
M  V30 32199 H 2880.25 3.95523 1.45395 0
M  V30 32200 H 2878.92 2.77762 1.66223 0
M  V30 32201 H 2877.83 3.71286 -0.457986 0
M  V30 32202 H 2879.16 4.88735 -0.583023 0
M  V30 32203 N 2880.82 0.429152 1.51644 0
M  V30 32204 C 2881.76 -0.386406 2.27542 0
M  V30 32205 C 2882.73 -1.02391 1.30788 0
M  V30 32206 O 2883.92 -1.04437 1.59679 0
M  V30 32207 C 2881.06 -1.48617 3.11459 0
M  V30 32208 C 2880.17 -0.867617 4.23198 0
M  V30 32209 C 2879.31 -1.94175 4.94439 0
M  V30 32210 C 2878.35 -1.30119 5.9811 0
M  V30 32211 N 2877.48 -2.31633 6.6279 0
M  V30 32212 H 2882.32 0.267207 2.968 0
M  V30 32213 H 2879.86 0.143616 1.46397 0
M  V30 32214 H 2881.82 -2.13499 3.58433 0
M  V30 32215 H 2880.45 -2.10953 2.44333 0
M  V30 32216 H 2879.5 -0.107306 3.80249 0
M  V30 32217 H 2880.81 -0.359883 4.975 0
M  V30 32218 H 2879.97 -2.66738 5.44918 0
M  V30 32219 H 2878.7 -2.48319 4.19749 0
M  V30 32220 H 2877.71 -0.560986 5.46931 0
M  V30 32221 H 2878.93 -0.767185 6.74753 0
M  V30 32222 H 2876.88 -2.84872 5.90918 0
M  V30 32223 H 2876.8 -1.85728 7.32831 0
M  V30 32224 H 2878.07 -3.03704 7.17903 0
M  V30 32225 N 2882.29 -1.56783 0.160229 0
M  V30 32226 C 2883.52 -2.00913 -0.49413 0
M  V30 32227 C 2883.94 -1.04041 -1.57546 0
M  V30 32228 O 2883.29 -0.0394902 -1.82457 0
M  V30 32229 C 2883.35 -3.44907 -1.08265 0
M  V30 32230 O 2883.07 -4.38077 -0.0444934 0
M  V30 32231 C 2884.57 -4.04382 -1.81633 0
M  V30 32232 H 2881.79 -0.658778 -0.127486 0
M  V30 32233 H 2884.33 -2.02857 0.258701 0
M  V30 32234 H 2882.49 -3.43773 -1.78603 0
M  V30 32235 H 2882.9 -5.22322 -0.477452 0
M  V30 32236 H 2884.37 -5.07093 -2.18085 0
M  V30 32237 H 2884.85 -3.45842 -2.70721 0
M  V30 32238 H 2885.46 -4.09186 -1.15962 0
M  V30 32239 N 2883.77 0.113531 -1.57191 0
M  V30 32240 C 2885.02 0.818952 -1.84326 0
M  V30 32241 C 2885.34 1.80786 -0.746717 0
M  V30 32242 O 2886.54 2.55985 -0.904641 0
M  V30 32243 C 2885 1.50718 -3.26821 0
M  V30 32244 C 2884.61 0.558987 -4.44499 0
M  V30 32245 C 2886.35 2.19742 -3.63199 0
M  V30 32246 C 2884.26 1.25076 -5.78023 0
M  V30 32247 H 2883.19 0.309584 -0.687513 0
M  V30 32248 H 2885.84 0.0717299 -1.8336 0
M  V30 32249 H 2884.22 2.30122 -3.22273 0
M  V30 32250 H 2885.39 -0.202227 -4.60356 0
M  V30 32251 H 2883.71 -0.0245681 -4.16393 0
M  V30 32252 H 2886.31 2.72198 -4.60231 0
M  V30 32253 H 2886.65 2.97793 -2.90904 0
M  V30 32254 H 2887.18 1.4722 -3.69555 0
M  V30 32255 H 2883.92 0.511424 -6.53502 0
M  V30 32256 H 2883.44 1.98385 -5.66042 0
M  V30 32257 H 2885.12 1.78242 -6.21964 0
M  V30 32258 N 2885.25 1.52854 0.383864 0
M  V30 32259 C 2886.18 1.74257 1.48886 0
M  V30 32260 C 2887.2 0.623089 1.50404 0
M  V30 32261 O 2888.39 0.898914 1.54213 0
M  V30 32262 C 2885.49 1.79086 2.87718 0
M  V30 32263 C 2884.66 3.08469 3.10106 0
M  V30 32264 C 2883.72 3.04778 4.28949 0
M  V30 32265 O 2882.74 3.78628 4.25005 0
M  V30 32266 N 2883.95 2.2432 5.35407 0
M  V30 32267 H 2886.71 2.69597 1.3091 0
M  V30 32268 H 2884.27 1.51405 0.573427 0
M  V30 32269 H 2886.26 1.74116 3.6533 0
M  V30 32270 H 2884.83 0.911104 2.99028 0
M  V30 32271 H 2884.05 3.26888 2.20313 0
M  V30 32272 H 2885.34 3.9401 3.21921 0
M  V30 32273 H 2884.74 1.63796 5.41468 0
M  V30 32274 H 2883.3 2.25185 6.11666 0
M  V30 32275 N 2886.73 -0.642612 1.43904 0
M  V30 32276 C 2887.98 -1.39828 1.45365 0
M  V30 32277 C 2888.29 -1.95412 0.0856633 0
M  V30 32278 O 2889.5 -2.71491 -0.0222379 0
M  V30 32279 C 2887.95 -2.53107 2.55861 0
M  V30 32280 C 2887.56 -2.04085 3.98815 0
M  V30 32281 C 2889.31 -3.30397 2.66529 0
M  V30 32282 C 2887.21 -3.14638 5.00756 0
M  V30 32283 H 2886.14 -0.52542 0.540786 0
M  V30 32284 H 2888.79 -0.692529 1.6993 0
M  V30 32285 H 2887.18 -3.26203 2.24516 0
M  V30 32286 H 2888.35 -1.3793 4.39673 0
M  V30 32287 H 2886.66 -1.39644 3.92286 0
M  V30 32288 H 2889.26 -4.1279 3.39865 0
M  V30 32289 H 2889.6 -3.79126 1.71956 0
M  V30 32290 H 2890.14 -2.64386 2.97228 0
M  V30 32291 H 2886.88 -2.70866 5.96919 0
M  V30 32292 H 2886.4 -3.79471 4.64501 0
M  V30 32293 H 2888.08 -3.796 5.2394 0
M  V30 32294 N 2888.21 -1.30611 -0.881966 0
M  V30 32295 C 2889.43 -1.22668 -1.67234 0
M  V30 32296 C 2889.86 0.206745 -1.8696 0
M  V30 32297 O 2889.22 1.14863 -1.40272 0
M  V30 32298 C 2889.26 -1.96369 -3.02443 0
M  V30 32299 O 2888.37 -1.29283 -3.91612 0
M  V30 32300 H 2887.71 -0.424126 -0.510894 0
M  V30 32301 H 2890.24 -1.72481 -1.10052 0
M  V30 32302 H 2890.25 -2.05506 -3.52465 0
M  V30 32303 H 2888.92 -3.00618 -2.87405 0
M  V30 32304 H 2887.5 -1.2852 -3.50053 0
M  V30 32305 N 2889.69 1.0947 -1.13376 0
M  V30 32306 C 2890.96 1.78205 -0.80636 0
M  V30 32307 C 2891.34 1.9908 0.702156 0
M  V30 32308 O 2890.69 1.59185 1.63928 0
M  V30 32309 C 2890.9 3.10535 -1.59276 0
M  V30 32310 C 2892.25 3.8525 -1.78516 0
M  V30 32311 O 2893.27 3.20285 -1.55871 0
M  V30 32312 O 2892.13 5.01875 -2.16296 0
M  V30 32313 H 2889.23 0.772838 -0.294364 0
M  V30 32314 H 2891.77 1.16031 -1.23835 0
M  V30 32315 H 2890.54 2.90823 -2.61797 0
M  V30 32316 H 2890.17 3.80434 -1.15568 0
M  V30 32317 N 2891.16 0.92719 1.2744 0
M  V30 32318 C 2892.41 0.56318 1.93678 0
M  V30 32319 C 2892.73 -0.899806 1.73675 0
M  V30 32320 O 2893.93 -1.37257 2.34249 0
M  V30 32321 C 2892.39 0.956421 3.46959 0
M  V30 32322 C 2892 2.44006 3.7572 0
M  V30 32323 C 2893.74 0.663639 4.1928 0
M  V30 32324 C 2891.65 2.77273 5.22373 0
M  V30 32325 H 2890.58 0.206907 0.725056 0
M  V30 32326 H 2893.23 1.12793 1.44741 0
M  V30 32327 H 2891.61 0.320323 3.94702 0
M  V30 32328 H 2892.78 3.12402 3.38735 0
M  V30 32329 H 2891.1 2.70468 3.16601 0
M  V30 32330 H 2893.7 0.888689 5.27263 0
M  V30 32331 H 2894.04 -0.399125 4.14382 0
M  V30 32332 H 2894.57 1.25881 3.77358 0
M  V30 32333 H 2891.31 3.82456 5.32361 0
M  V30 32334 H 2890.83 2.13526 5.60506 0
M  V30 32335 H 2892.51 2.64989 5.90246 0
M  V30 32336 N 2892.64 -1.41564 0.692641 0
M  V30 32337 C 2893.57 -2.29196 -0.013673 0
M  V30 32338 C 2894.59 -1.4463 -0.747391 0
M  V30 32339 O 2895.78 -1.68164 -0.598581 0
M  V30 32340 C 2892.88 -3.22438 -1.04341 0
M  V30 32341 C 2892.05 -4.35747 -0.379908 0
M  V30 32342 C 2891.11 -5.09585 -1.31186 0
M  V30 32343 O 2890.13 -5.63474 -0.805356 0
M  V30 32344 N 2891.34 -5.16773 -2.64434 0
M  V30 32345 H 2894.1 -2.90455 0.738666 0
M  V30 32346 H 2891.66 -1.52684 0.538442 0
M  V30 32347 H 2893.65 -3.68703 -1.66854 0
M  V30 32348 H 2892.22 -2.62507 -1.69731 0
M  V30 32349 H 2891.44 -3.91902 0.425044 0
M  V30 32350 H 2892.73 -5.08735 0.0815798 0
M  V30 32351 H 2892.13 -4.74434 -3.08106 0
M  V30 32352 H 2890.69 -5.66625 -3.22149 0
M  V30 32353 N 2894.12 -0.437188 -1.51415 0
M  V30 32354 C 2895.07 0.374334 -2.27744 0
M  V30 32355 C 2896.04 1.01696 -1.31329 0
M  V30 32356 O 2897.22 1.03589 -1.60231 0
M  V30 32357 C 2894.36 1.46963 -3.12243 0
M  V30 32358 C 2893.47 0.845161 -4.23652 0
M  V30 32359 C 2892.61 1.9155 -4.95462 0
M  V30 32360 C 2891.65 1.26945 -5.98792 0
M  V30 32361 N 2890.79 2.28114 -6.64009 0
M  V30 32362 H 2895.63 -0.282944 -2.96654 0
M  V30 32363 H 2893.16 -0.151378 -1.46319 0
M  V30 32364 H 2895.12 2.11595 -3.5956 0
M  V30 32365 H 2893.75 2.09654 -2.45448 0
M  V30 32366 H 2892.8 0.0871391 -3.803 0
M  V30 32367 H 2894.11 0.333494 -4.97684 0
M  V30 32368 H 2893.27 2.63844 -5.46325 0
M  V30 32369 H 2892.01 2.46089 -4.2106 0
M  V30 32370 H 2891.01 0.531973 -5.4722 0
M  V30 32371 H 2892.24 0.73139 -6.7515 0
M  V30 32372 H 2890.18 2.81734 -5.9242 0
M  V30 32373 H 2890.1 1.81839 -7.33806 0
M  V30 32374 H 2891.37 2.99893 -7.19503 0
M  V30 32375 N 2895.6 1.56696 -0.168541 0
M  V30 32376 C 2896.87 1.88469 0.523334 0
M  V30 32377 C 2897.25 1.07799 1.81501 0
M  V30 32378 O 2896.6 0.171085 2.27859 0
M  V30 32379 C 2896.81 3.40447 0.767931 0
M  V30 32380 C 2898.16 4.10126 1.09917 0
M  V30 32381 O 2899.18 3.45748 0.856564 0
M  V30 32382 O 2898.04 5.23859 1.55672 0
M  V30 32383 H 2895.14 0.781879 0.269433 0
M  V30 32384 H 2897.68 1.68436 -0.206769 0
M  V30 32385 H 2896.46 3.9103 -0.145323 0
M  V30 32386 H 2896.08 3.66082 1.55145 0
M  V30 32387 N 2897.08 -0.105193 1.57249 0
M  V30 32388 C 2898.01 -1.12927 2.04376 0
M  V30 32389 C 2898.99 -1.42375 0.930765 0
M  V30 32390 O 2900.17 -1.52579 1.20138 0
M  V30 32391 C 2897.3 -2.45185 2.45971 0
M  V30 32392 C 2896.26 -2.30168 3.60842 0
M  V30 32393 C 2895.58 -3.67511 3.88381 0
M  V30 32394 C 2896.88 -1.75065 4.92087 0
M  V30 32395 H 2898.58 -0.737236 2.90181 0
M  V30 32396 H 2896.12 -0.353187 1.39602 0
M  V30 32397 H 2898.07 -3.17089 2.77548 0
M  V30 32398 H 2896.8 -2.86305 1.57153 0
M  V30 32399 H 2895.46 -1.6071 3.29496 0
M  V30 32400 H 2895.11 -4.06141 2.96746 0
M  V30 32401 H 2894.81 -3.58313 4.6571 0
M  V30 32402 H 2896.33 -4.40899 4.22422 0
M  V30 32403 H 2897.74 -2.36799 5.2211 0
M  V30 32404 H 2896.14 -1.76652 5.7351 0
M  V30 32405 H 2897.21 -0.709263 4.79685 0
M  V30 32406 N 2898.55 -1.53055 -0.375752 0
M  V30 32407 C 2899.83 -1.59338 -1.1345 0
M  V30 32408 C 2900.21 -0.394651 -2.07378 0
M  V30 32409 O 2899.56 0.615962 -2.20041 0
M  V30 32410 C 2899.77 -2.93872 -1.88255 0
M  V30 32411 C 2901.12 -3.48086 -2.43149 0
M  V30 32412 O 2902.14 -2.95834 -1.98395 0
M  V30 32413 O 2901 -4.39407 -3.24937 0
M  V30 32414 H 2898.09 -0.643188 -0.519845 0
M  V30 32415 H 2900.64 -1.65394 -0.379836 0
M  V30 32416 H 2899.41 -3.7256 -1.19645 0
M  V30 32417 H 2899.04 -2.91261 -2.70653 0
M  V30 32418 N 2900.03 0.634971 -1.44242 0
M  V30 32419 C 2900.98 1.74712 -1.50813 0
M  V30 32420 C 2901.95 1.62236 -0.356175 0
M  V30 32421 O 2903.13 1.82215 -0.56588 0
M  V30 32422 C 2900.27 3.12945 -1.45464 0
M  V30 32423 C 2899.39 3.36424 -2.71004 0
M  V30 32424 C 2898.52 4.64607 -2.57516 0
M  V30 32425 C 2897.56 4.81251 -3.78237 0
M  V30 32426 N 2896.7 6.00708 -3.63448 0
M  V30 32427 H 2901.54 1.68432 -2.45835 0
M  V30 32428 H 2899.08 0.821685 -1.22011 0
M  V30 32429 H 2901.03 3.92882 -1.40354 0
M  V30 32430 H 2899.66 3.18249 -0.540114 0
M  V30 32431 H 2898.72 2.50453 -2.86317 0
M  V30 32432 H 2900.03 3.44603 -3.60625 0
M  V30 32433 H 2899.18 5.52699 -2.50217 0
M  V30 32434 H 2897.92 4.58779 -1.65449 0
M  V30 32435 H 2896.93 3.91589 -3.85925 0
M  V30 32436 H 2898.15 4.88896 -4.71336 0
M  V30 32437 H 2896.1 5.95977 -2.7413 0
M  V30 32438 H 2896.01 6.09927 -4.46683 0
M  V30 32439 H 2897.28 6.91372 -3.60035 0
M  V30 32440 N 2901.51 1.31076 0.875027 0
M  V30 32441 C 2902.74 1.23553 1.66581 0
M  V30 32442 C 2903.16 -0.196827 1.87067 0
M  V30 32443 O 2902.52 -1.14117 1.40879 0
M  V30 32444 C 2902.57 1.9797 3.01397 0
M  V30 32445 O 2901.67 1.31358 3.9092 0
M  V30 32446 H 2901.01 0.42683 0.508638 0
M  V30 32447 H 2903.54 1.73062 1.09136 0
M  V30 32448 H 2903.55 2.07372 3.5137 0
M  V30 32449 H 2902.23 3.02138 2.85806 0
M  V30 32450 H 2900.8 1.30374 3.49366 0
M  V30 32451 N 2902.99 -1.08867 1.13955 0
M  V30 32452 C 2903.94 -2.1566 0.822168 0
M  V30 32453 C 2904.91 -1.6466 -0.218245 0
M  V30 32454 O 2906.09 -1.90591 -0.089214 0
M  V30 32455 C 2903.23 -3.43788 0.300632 0
M  V30 32456 C 2902.34 -4.08659 1.40079 0
M  V30 32457 C 2901.48 -5.24565 0.836989 0
M  V30 32458 C 2900.52 -5.81368 1.91515 0
M  V30 32459 N 2899.65 -6.88626 1.36887 0
M  V30 32460 H 2904.49 -2.4215 1.73688 0
M  V30 32461 H 2902.03 -1.18841 0.866899 0
M  V30 32462 H 2903.99 -4.17195 -0.0199209 0
M  V30 32463 H 2902.62 -3.17598 -0.577193 0
M  V30 32464 H 2901.67 -3.33059 1.83782 0
M  V30 32465 H 2902.98 -4.46901 2.21542 0
M  V30 32466 H 2902.14 -6.04892 0.468059 0
M  V30 32467 H 2900.88 -4.87699 -0.00865635 0
M  V30 32468 H 2899.88 -4.99698 2.29308 0
M  V30 32469 H 2901.11 -6.20293 2.7643 0
M  V30 32470 H 2899.05 -6.53729 0.545326 0
M  V30 32471 H 2898.97 -7.25669 2.11993 0
M  V30 32472 H 2900.24 -7.72696 1.02769 0
M  V30 32473 N 2904.47 -0.933936 -1.26946 0
M  V30 32474 C 2905.74 -0.495817 -1.89212 0
M  V30 32475 C 2906.12 1.02634 -1.84471 0
M  V30 32476 O 2905.47 1.88321 -1.29412 0
M  V30 32477 C 2905.68 -1.04896 -3.32863 0
M  V30 32478 C 2907.03 -1.11322 -4.09747 0
M  V30 32479 O 2908.05 -0.999026 -3.41903 0
M  V30 32480 O 2906.91 -1.28992 -5.31059 0
M  V30 32481 H 2904.01 -0.160473 -0.811281 0
M  V30 32482 H 2906.55 -1.02603 -1.35169 0
M  V30 32483 H 2905.32 -2.09271 -3.30638 0
M  V30 32484 H 2904.95 -0.500761 -3.94434 0
M  V30 32485 N 2905.94 1.41194 -0.700139 0
M  V30 32486 C 2906.85 2.34569 -0.0383266 0
M  V30 32487 C 2907.87 1.56476 0.761009 0
M  V30 32488 O 2909.05 1.88935 0.69752 0
M  V30 32489 C 2906.11 3.35255 0.883463 0
M  V30 32490 C 2905.17 4.29233 0.0758202 0
M  V30 32491 C 2904.41 5.2511 0.953707 0
M  V30 32492 O 2904.63 5.26551 2.19317 0
M  V30 32493 O 2903.56 6.00563 0.400943 0
M  V30 32494 H 2907.39 2.92751 -0.808125 0
M  V30 32495 H 2904.97 1.42126 -0.460504 0
M  V30 32496 H 2906.86 3.97043 1.41192 0
M  V30 32497 H 2905.53 2.79509 1.63267 0
M  V30 32498 H 2904.44 3.70779 -0.49734 0
M  V30 32499 H 2905.77 4.88089 -0.634827 0
M  V30 32500 N 2907.42 0.445212 1.51181 0
M  V30 32501 C 2908.35 -0.352645 2.30822 0
M  V30 32502 C 2909.33 -1.01393 1.36578 0
M  V30 32503 O 2910.52 -1.01606 1.65499 0
M  V30 32504 C 2907.65 -1.4497 3.15596 0
M  V30 32505 C 2906.6 -0.911479 4.18182 0
M  V30 32506 C 2905.93 -2.10488 4.91527 0
M  V30 32507 C 2907.23 0.0595098 5.22266 0
M  V30 32508 H 2908.92 0.311988 2.9777 0
M  V30 32509 H 2906.47 0.151487 1.43201 0
M  V30 32510 H 2908.42 -2.01514 3.70095 0
M  V30 32511 H 2907.15 -2.14274 2.46484 0
M  V30 32512 H 2905.8 -0.3682 3.64746 0
M  V30 32513 H 2905.45 -2.78429 4.18911 0
M  V30 32514 H 2905.15 -1.7511 5.60901 0
M  V30 32515 H 2906.68 -2.67571 5.48852 0
M  V30 32516 H 2908.09 -0.415884 5.7179 0
M  V30 32517 H 2906.49 0.326258 5.99212 0
M  V30 32518 H 2907.56 0.993714 4.74609 0
M  V30 32519 N 2908.9 -1.56605 0.176849 0
M  V30 32520 C 2909.83 -2.15418 -0.782798 0
M  V30 32521 C 2910.85 -1.11119 -1.18981 0
M  V30 32522 O 2912.03 -1.38285 -1.1287 0
M  V30 32523 C 2909.13 -2.6865 -2.06592 0
M  V30 32524 C 2908.31 -3.97664 -1.8216 0
M  V30 32525 C 2907.37 -4.35905 -2.94743 0
M  V30 32526 O 2906.39 -5.03676 -2.65139 0
M  V30 32527 N 2907.59 -3.97914 -4.22663 0
M  V30 32528 H 2910.36 -2.9839 -0.279959 0
M  V30 32529 H 2907.92 -1.61899 -0.00574683 0
M  V30 32530 H 2909.91 -2.91228 -2.81013 0
M  V30 32531 H 2908.48 -1.90236 -2.4805 0
M  V30 32532 H 2907.7 -3.83406 -0.91614 0
M  V30 32533 H 2908.99 -4.81912 -1.63211 0
M  V30 32534 H 2908.39 -3.43365 -4.49574 0
M  V30 32535 H 2906.95 -4.25481 -4.9377 0
M  V30 32536 N 2910.38 0.0968524 -1.57302 0
M  V30 32537 C 2911.33 1.11762 -2.01935 0
M  V30 32538 C 2912.3 1.39902 -0.895354 0
M  V30 32539 O 2913.48 1.51395 -1.16122 0
M  V30 32540 C 2910.62 2.43313 -2.4473 0
M  V30 32541 C 2909.73 2.21919 -3.70643 0
M  V30 32542 C 2908.87 3.46855 -4.02324 0
M  V30 32543 C 2907.91 3.20716 -5.21352 0
M  V30 32544 N 2907.04 4.37914 -5.48795 0
M  V30 32545 H 2911.88 0.730024 -2.8892 0
M  V30 32546 H 2909.42 0.348937 -1.42902 0
M  V30 32547 H 2911.38 3.20084 -2.67586 0
M  V30 32548 H 2910.01 2.79923 -1.60758 0
M  V30 32549 H 2909.06 1.35959 -3.55274 0
M  V30 32550 H 2910.37 1.98595 -4.57561 0
M  V30 32551 H 2909.53 4.32035 -4.25947 0
M  V30 32552 H 2908.27 3.73232 -3.13925 0
M  V30 32553 H 2907.27 2.33929 -4.97551 0
M  V30 32554 H 2908.5 2.95687 -6.11348 0
M  V30 32555 H 2906.44 4.6437 -4.63354 0
M  V30 32556 H 2906.36 4.17774 -6.3008 0
M  V30 32557 H 2907.63 5.24163 -5.76952 0
M  V30 32558 N 2911.86 1.53252 0.36763 0
M  V30 32559 C 2912.8 1.79545 1.45024 0
M  V30 32560 C 2913.77 0.639717 1.53287 0
M  V30 32561 O 2914.96 0.881683 1.69207 0
M  V30 32562 C 2912.1 1.98928 2.81996 0
M  V30 32563 C 2911.21 3.26643 2.82717 0
M  V30 32564 C 2910.35 3.36224 4.11251 0
M  V30 32565 C 2909.39 4.57979 4.06105 0
M  V30 32566 N 2908.52 4.64725 5.26285 0
M  V30 32567 H 2913.36 2.71926 1.21903 0
M  V30 32568 H 2910.9 1.34706 0.590988 0
M  V30 32569 H 2912.86 2.08152 3.61564 0
M  V30 32570 H 2911.49 1.09886 3.03521 0
M  V30 32571 H 2910.54 3.26382 1.95394 0
M  V30 32572 H 2911.85 4.16286 2.74787 0
M  V30 32573 H 2911.01 3.44748 4.99233 0
M  V30 32574 H 2909.74 2.44593 4.21931 0
M  V30 32575 H 2908.75 4.49557 3.1651 0
M  V30 32576 H 2909.97 5.50949 3.97029 0
M  V30 32577 H 2907.92 3.75994 5.37554 0
M  V30 32578 H 2907.84 5.48269 5.20516 0
M  V30 32579 H 2909.11 4.7753 6.16105 0
M  V30 32580 N 2913.34 -0.627313 1.44577 0
M  V30 32581 C 2914.58 -1.38279 1.4684 0
M  V30 32582 C 2914.9 -1.9531 0.106385 0
M  V30 32583 O 2916.1 -2.71499 0.00655857 0
M  V30 32584 C 2914.56 -2.50379 2.58531 0
M  V30 32585 C 2914.17 -1.99844 4.00957 0
M  V30 32586 C 2915.91 -3.27552 2.70019 0
M  V30 32587 C 2913.82 -3.09309 5.04065 0
M  V30 32588 H 2912.75 -0.519655 0.546329 0
M  V30 32589 H 2915.4 -0.674467 1.70655 0
M  V30 32590 H 2913.78 -3.23804 2.27963 0
M  V30 32591 H 2914.96 -1.33259 4.41111 0
M  V30 32592 H 2913.27 -1.35475 3.93745 0
M  V30 32593 H 2915.87 -4.09162 3.44224 0
M  V30 32594 H 2916.21 -3.77281 1.75967 0
M  V30 32595 H 2916.74 -2.61219 3.00016 0
M  V30 32596 H 2913.48 -2.64519 5.99758 0
M  V30 32597 H 2913 -3.74523 4.685 0
M  V30 32598 H 2914.68 -3.74021 5.27937 0
M  V30 32599 N 2914.81 -1.31539 -0.868063 0
M  V30 32600 C 2915.75 -1.1517 -1.98163 0
M  V30 32601 C 2916.76 -0.0902621 -1.6255 0
M  V30 32602 O 2917.95 -0.33794 -1.75272 0
M  V30 32603 C 2915.05 -0.737834 -3.30771 0
M  V30 32604 C 2914.22 -1.88469 -3.94713 0
M  V30 32605 C 2913.28 -1.45657 -5.05639 0
M  V30 32606 O 2912.31 -2.16652 -5.26356 0
M  V30 32607 N 2913.51 -0.345032 -5.79474 0
M  V30 32608 H 2916.27 -2.11086 -2.1275 0
M  V30 32609 H 2913.83 -1.23898 -1.04215 0
M  V30 32610 H 2915.83 -0.434102 -4.02365 0
M  V30 32611 H 2914.4 0.129779 -3.1233 0
M  V30 32612 H 2913.62 -2.35564 -3.16075 0
M  V30 32613 H 2914.9 -2.6528 -4.3417 0
M  V30 32614 H 2914.3 0.24616 -5.65164 0
M  V30 32615 H 2912.86 -0.100843 -6.51722 0
M  V30 32616 N 2916.29 1.08262 -1.1453 0
M  V30 32617 C 2917.2 2.18764 -0.847318 0
M  V30 32618 C 2918.22 1.7314 0.172795 0
M  V30 32619 O 2919.39 2.014 0.000949935 0
M  V30 32620 C 2916.46 3.45119 -0.330693 0
M  V30 32621 C 2915.52 4.05361 -1.41355 0
M  V30 32622 C 2914.75 5.25685 -0.92148 0
M  V30 32623 O 2914.98 5.6991 0.236487 0
M  V30 32624 O 2913.91 5.77361 -1.70111 0
M  V30 32625 H 2917.74 2.46728 -1.77085 0
M  V30 32626 H 2915.32 1.17424 -0.923682 0
M  V30 32627 H 2917.2 4.21372 -0.0485793 0
M  V30 32628 H 2915.88 3.18729 0.565091 0
M  V30 32629 H 2914.78 3.3069 -1.74914 0
M  V30 32630 H 2916.12 4.36003 -2.28391 0
M  V30 32631 N 2917.77 0.940655 1.26449 0
M  V30 32632 C 2918.7 0.467519 2.28772 0
M  V30 32633 C 2919.68 -0.478927 1.63219 0
M  V30 32634 O 2920.87 -0.380895 1.90428 0
M  V30 32635 C 2918 -0.268595 3.4626 0
M  V30 32636 C 2916.95 0.591246 4.23897 0
M  V30 32637 C 2916.28 -0.274797 5.33993 0
M  V30 32638 C 2917.58 1.86232 4.8797 0
M  V30 32639 H 2919.27 1.3227 2.68598 0
M  V30 32640 H 2916.82 0.637458 1.29122 0
M  V30 32641 H 2918.77 -0.610623 4.16952 0
M  V30 32642 H 2917.49 -1.15791 3.05385 0
M  V30 32643 H 2916.15 0.916161 3.54968 0
M  V30 32644 H 2915.8 -1.16345 4.8936 0
M  V30 32645 H 2915.5 0.297109 5.86848 0
M  V30 32646 H 2917.02 -0.612106 6.07524 0
M  V30 32647 H 2918.44 1.58757 5.5088 0
M  V30 32648 H 2916.83 2.37875 5.5094 0
M  V30 32649 H 2917.9 2.57402 4.10941 0
M  V30 32650 N 2919.25 -1.40821 0.707617 0
M  V30 32651 C 2920.18 -2.29198 0.0106371 0
M  V30 32652 C 2921.19 -1.45415 -0.732009 0
M  V30 32653 O 2922.38 -1.6879 -0.580711 0
M  V30 32654 C 2919.48 -3.23526 -1.00915 0
M  V30 32655 C 2918.65 -4.36125 -0.33367 0
M  V30 32656 C 2917.71 -5.10948 -1.25774 0
M  V30 32657 O 2916.74 -5.64296 -0.745547 0
M  V30 32658 N 2917.94 -5.19549 -2.58938 0
M  V30 32659 H 2920.71 -2.89655 0.769431 0
M  V30 32660 H 2918.27 -1.52104 0.554606 0
M  V30 32661 H 2920.26 -3.70452 -1.62934 0
M  V30 32662 H 2918.83 -2.64293 -1.66938 0
M  V30 32663 H 2918.05 -3.91429 0.466586 0
M  V30 32664 H 2919.34 -5.08619 0.135533 0
M  V30 32665 H 2918.74 -4.77675 -3.03056 0
M  V30 32666 H 2917.29 -5.7001 -3.16121 0
M  V30 32667 N 2920.73 -0.453223 -1.50943 0
M  V30 32668 C 2921.67 0.350157 -2.28128 0
M  V30 32669 C 2922.64 1.00297 -1.324 0
M  V30 32670 O 2923.83 1.01884 -1.61321 0
M  V30 32671 C 2920.97 1.43643 -3.13784 0
M  V30 32672 C 2920.08 0.80018 -4.24525 0
M  V30 32673 C 2919.22 1.86284 -4.97465 0
M  V30 32674 C 2918.25 1.20587 -6.00104 0
M  V30 32675 N 2917.39 2.21059 -6.66391 0
M  V30 32676 H 2922.23 -0.314392 -2.96337 0
M  V30 32677 H 2919.77 -0.166889 -1.4615 0
M  V30 32678 H 2921.73 2.0777 -3.61784 0
M  V30 32679 H 2920.36 2.07039 -2.47658 0
M  V30 32680 H 2919.41 0.0467982 -3.80371 0
M  V30 32681 H 2920.72 0.280689 -4.9801 0
M  V30 32682 H 2919.87 2.58035 -5.49093 0
M  V30 32683 H 2918.61 2.4161 -4.23646 0
M  V30 32684 H 2917.62 0.473903 -5.47754 0
M  V30 32685 H 2918.84 0.65974 -6.75888 0
M  V30 32686 H 2916.79 2.75435 -5.95375 0
M  V30 32687 H 2916.71 1.74046 -7.35693 0
M  V30 32688 H 2917.97 2.92245 -7.22643 0
M  V30 32689 N 2922.2 1.56509 -0.185151 0
M  V30 32690 C 2923.15 2.18626 0.73969 0
M  V30 32691 C 2924.12 1.13044 1.21698 0
M  V30 32692 O 2925.31 1.41254 1.28266 0
M  V30 32693 C 2922.45 2.84189 1.95782 0
M  V30 32694 C 2921.56 4.0427 1.52282 0
M  V30 32695 C 2920.69 4.57719 2.69568 0
M  V30 32696 C 2919.73 5.70179 2.22626 0
M  V30 32697 N 2918.87 6.18077 3.33054 0
M  V30 32698 H 2923.71 2.97306 0.203216 0
M  V30 32699 H 2921.25 1.46833 0.0885688 0
M  V30 32700 H 2923.2 3.20366 2.67248 0
M  V30 32701 H 2921.83 2.08089 2.46777 0
M  V30 32702 H 2920.89 3.73821 0.704392 0
M  V30 32703 H 2922.2 4.85637 1.13835 0
M  V30 32704 H 2921.35 4.9615 3.49171 0
M  V30 32705 H 2920.09 3.75438 3.11283 0
M  V30 32706 H 2919.1 5.31286 1.41474 0
M  V30 32707 H 2920.32 6.54271 1.81953 0
M  V30 32708 H 2918.27 5.38722 3.74319 0
M  V30 32709 H 2918.18 6.9447 2.98744 0
M  V30 32710 H 2919.45 6.6116 4.12901 0
M  V30 32711 N 2923.68 -0.0885089 1.57351 0
M  V30 32712 C 2924.59 -1.12512 2.05859 0
M  V30 32713 C 2925.61 -1.4345 0.984783 0
M  V30 32714 O 2926.78 -1.53961 1.29839 0
M  V30 32715 C 2923.85 -2.42391 2.47886 0
M  V30 32716 C 2922.91 -2.18576 3.6949 0
M  V30 32717 C 2922.14 -3.42261 4.09503 0
M  V30 32718 O 2922.37 -4.50749 3.49544 0
M  V30 32719 O 2921.3 -3.3146 5.02412 0
M  V30 32720 H 2925.13 -0.743094 2.94469 0
M  V30 32721 H 2922.71 -0.301481 1.46327 0
M  V30 32722 H 2924.59 -3.18857 2.75515 0
M  V30 32723 H 2923.27 -2.80007 1.62412 0
M  V30 32724 H 2922.17 -1.39869 3.46969 0
M  V30 32725 H 2923.51 -1.85849 4.55764 0
M  V30 32726 N 2925.16 -1.53445 -0.359498 0
M  V30 32727 C 2926.09 -1.83293 -1.44658 0
M  V30 32728 C 2927.07 -0.686857 -1.55616 0
M  V30 32729 O 2928.26 -0.93728 -1.70084 0
M  V30 32730 C 2925.39 -2.02827 -2.81919 0
M  V30 32731 C 2924.34 -3.18611 -2.85782 0
M  V30 32732 C 2923.67 -3.2345 -4.25775 0
M  V30 32733 C 2924.97 -4.5707 -2.52754 0
M  V30 32734 H 2926.66 -2.74331 -1.19929 0
M  V30 32735 H 2924.21 -1.32 -0.575494 0
M  V30 32736 H 2926.16 -2.22291 -3.58001 0
M  V30 32737 H 2924.88 -1.08505 -3.08049 0
M  V30 32738 H 2923.54 -2.98977 -2.12151 0
M  V30 32739 H 2923.19 -2.26753 -4.4899 0
M  V30 32740 H 2922.89 -4.01245 -4.29274 0
M  V30 32741 H 2924.41 -3.45105 -5.03721 0
M  V30 32742 H 2925.83 -4.76654 -3.18549 0
M  V30 32743 H 2924.22 -5.37151 -2.6756 0
M  V30 32744 H 2925.29 -4.61767 -1.47985 0
M  V30 32745 N 2926.64 0.619637 -1.44908 0
M  V30 32746 C 2927.57 1.74455 -1.48655 0
M  V30 32747 C 2928.58 1.58336 -0.378623 0
M  V30 32748 O 2929.77 1.66439 -0.645016 0
M  V30 32749 C 2926.87 3.12316 -1.31574 0
M  V30 32750 C 2926.04 3.54787 -2.55822 0
M  V30 32751 C 2925.1 4.71568 -2.33473 0
M  V30 32752 O 2924.13 4.79296 -3.07024 0
M  V30 32753 N 2925.33 5.64038 -1.37264 0
M  V30 32754 H 2928.1 1.71707 -2.45635 0
M  V30 32755 H 2925.66 0.804558 -1.40494 0
M  V30 32756 H 2927.65 3.88179 -1.14452 0
M  V30 32757 H 2926.22 3.0964 -0.42915 0
M  V30 32758 H 2925.44 2.69013 -2.88142 0
M  V30 32759 H 2926.73 3.79918 -3.38438 0
M  V30 32760 H 2926.13 5.60498 -0.765407 0
M  V30 32761 H 2924.68 6.39482 -1.26117 0
M  V30 32762 N 2928.12 1.31997 0.861075 0
M  V30 32763 C 2929.05 1.22997 1.98479 0
M  V30 32764 C 2930.03 0.115198 1.69709 0
M  V30 32765 O 2931.21 0.301294 1.91849 0
M  V30 32766 C 2928.34 0.945674 3.34177 0
M  V30 32767 C 2927.3 2.02098 3.7728 0
M  V30 32768 C 2926.62 1.58921 5.10537 0
M  V30 32769 C 2927.92 3.43522 3.93433 0
M  V30 32770 H 2929.62 2.17012 2.06268 0
M  V30 32771 H 2927.16 1.04473 0.991025 0
M  V30 32772 H 2929.12 0.869279 4.12337 0
M  V30 32773 H 2927.84 -0.0301275 3.26586 0
M  V30 32774 H 2926.5 2.08742 3.01368 0
M  V30 32775 H 2926.15 0.60103 4.99396 0
M  V30 32776 H 2925.85 2.30864 5.40348 0
M  V30 32777 H 2927.37 1.52706 5.91196 0
M  V30 32778 H 2928.78 3.39503 4.61964 0
M  V30 32779 H 2927.18 4.13759 4.34653 0
M  V30 32780 H 2928.25 3.83655 2.96542 0
M  V30 32781 N 2929.59 -1.07653 1.15103 0
M  V30 32782 C 2930.52 -2.16771 0.867902 0
M  V30 32783 C 2931.51 -1.69142 -0.180253 0
M  V30 32784 O 2932.69 -1.94168 -0.0352811 0
M  V30 32785 C 2929.82 -3.45501 0.35305 0
M  V30 32786 C 2928.77 -4.06564 1.33753 0
M  V30 32787 C 2928.1 -5.30337 0.681656 0
M  V30 32788 C 2929.4 -4.46949 2.70248 0
M  V30 32789 H 2931.09 -2.40713 1.78039 0
M  V30 32790 H 2928.64 -1.15688 0.857455 0
M  V30 32791 H 2930.59 -4.21159 0.142539 0
M  V30 32792 H 2929.32 -3.21136 -0.594888 0
M  V30 32793 H 2927.98 -3.32946 1.53435 0
M  V30 32794 H 2927.62 -5.02262 -0.272334 0
M  V30 32795 H 2927.32 -5.72149 1.33863 0
M  V30 32796 H 2928.85 -6.08704 0.480847 0
M  V30 32797 H 2930.26 -5.1375 2.54429 0
M  V30 32798 H 2928.66 -4.99703 3.32291 0
M  V30 32799 H 2929.73 -3.58465 3.26544 0
M  V30 32800 N 2931.07 -0.947348 -1.25949 0
M  V30 32801 C 2932.49 -0.650622 -1.45736 0
M  V30 32802 C 2932.69 0.794155 -1.8519 0
M  V30 32803 O 2931.74 1.57019 -1.9774 0
M  V30 32804 C 2933.06 -1.61732 -2.53502 0
M  V30 32805 C 2934.61 -1.6277 -2.67348 0
M  V30 32806 C 2935.08 -2.58186 -3.78291 0
M  V30 32807 N 2936.57 -2.56507 -3.85692 0
M  V30 32808 C 2937.31 -3.27018 -4.71006 0
M  V30 32809 N 2936.8 -4.06976 -5.60662 0
M  V30 32810 N 2938.6 -3.1594 -4.64907 0
M  V30 32811 H 2930.75 -1.88112 -0.986294 0
M  V30 32812 H 2933.01 -0.808734 -0.494625 0
M  V30 32813 H 2932.72 -2.64895 -2.31352 0
M  V30 32814 H 2932.59 -1.37416 -3.51278 0
M  V30 32815 H 2934.98 -0.603292 -2.88867 0
M  V30 32816 H 2935.06 -1.91142 -1.69995 0
M  V30 32817 H 2934.7 -3.60748 -3.57523 0
M  V30 32818 H 2934.63 -2.27101 -4.75113 0
M  V30 32819 H 2937.12 -1.98453 -3.21597 0
M  V30 32820 H 2937.44 -4.57715 -6.22669 0
M  V30 32821 H 2935.78 -4.11076 -5.60394 0
M  V30 32822 H 2938.97 -2.52952 -3.93869 0
M  V30 32823 H 2939.14 -3.71159 -5.31174 0
M  V30 32824 N 2932.55 1.40444 -0.715075 0
M  V30 32825 C 2933.8 2.01194 -0.25474 0
M  V30 32826 C 2934.13 1.56569 1.14891 0
M  V30 32827 O 2933.4 0.785522 1.77932 0
M  V30 32828 C 2933.69 3.58546 -0.334211 0
M  V30 32829 C 2933.54 4.13245 -1.7762 0
M  V30 32830 C 2934.86 4.39111 0.294891 0
M  V30 32831 H 2931.98 0.730976 -0.0940379 0
M  V30 32832 H 2934.62 1.66928 -0.907479 0
M  V30 32833 H 2932.77 3.87868 0.221541 0
M  V30 32834 H 2934.44 3.94722 -2.3873 0
M  V30 32835 H 2932.69 3.67552 -2.30408 0
M  V30 32836 H 2933.36 5.22404 -1.7832 0
M  V30 32837 H 2935.83 4.15716 -0.178636 0
M  V30 32838 H 2934.71 5.48503 0.208838 0
M  V30 32839 H 2934.97 4.20065 1.37834 0
M  V30 32840 N 2934.03 0.461222 1.507 0
M  V30 32841 C 2934.98 -0.338054 2.28311 0
M  V30 32842 C 2935.95 -0.995933 1.3293 0
M  V30 32843 O 2937.13 -1.01027 1.61859 0
M  V30 32844 C 2934.27 -1.41977 3.14542 0
M  V30 32845 C 2933.38 -0.777655 4.24943 0
M  V30 32846 C 2932.52 -1.83643 4.98446 0
M  V30 32847 C 2931.56 -1.17403 6.00735 0
M  V30 32848 N 2930.69 -2.17522 6.67554 0
M  V30 32849 H 2935.53 0.330103 2.96166 0
M  V30 32850 H 2933.07 0.174637 1.4606 0
M  V30 32851 H 2935.03 -2.05848 3.62881 0
M  V30 32852 H 2933.66 -2.05723 2.48753 0
M  V30 32853 H 2932.71 -0.0266256 3.80391 0
M  V30 32854 H 2934.02 -0.254275 4.98151 0
M  V30 32855 H 2933.18 -2.55119 5.50454 0
M  V30 32856 H 2931.92 -2.3936 4.24921 0
M  V30 32857 H 2930.92 -0.444848 5.47997 0
M  V30 32858 H 2932.15 -0.623887 6.76228 0
M  V30 32859 H 2930.09 -2.72274 5.96827 0
M  V30 32860 H 2930.01 -1.70142 7.36606 0
M  V30 32861 H 2931.28 -2.88408 7.24183 0
M  V30 32862 N 2935.51 -1.56408 0.193449 0
M  V30 32863 C 2936.42 -2.22621 -0.740073 0
M  V30 32864 C 2937.43 -1.22476 -1.23594 0
M  V30 32865 O 2938.61 -1.55208 -1.28345 0
M  V30 32866 C 2935.67 -2.8713 -1.94312 0
M  V30 32867 C 2934.73 -4.0254 -1.49198 0
M  V30 32868 C 2933.97 -4.63964 -2.63768 0
M  V30 32869 O 2934.19 -4.24308 -3.81208 0
M  V30 32870 O 2933.12 -5.53458 -2.36575 0
M  V30 32871 H 2936.95 -3.02999 -0.206184 0
M  V30 32872 H 2934.54 -1.49357 -0.0357676 0
M  V30 32873 H 2936.42 -3.27949 -2.64627 0
M  V30 32874 H 2935.09 -2.09732 -2.46564 0
M  V30 32875 H 2934 -3.66347 -0.757673 0
M  V30 32876 H 2935.33 -4.81597 -1.01614 0
M  V30 32877 N 2936.98 0.0801629 -1.57396 0
M  V30 32878 C 2938.26 0.81342 -1.77884 0
M  V30 32879 C 2938.64 1.96204 -0.778913 0
M  V30 32880 O 2937.99 2.27712 0.189643 0
M  V30 32881 C 2938.2 1.29415 -3.24119 0
M  V30 32882 C 2939.55 1.73091 -3.87717 0
M  V30 32883 O 2940.57 1.39002 -3.27959 0
M  V30 32884 O 2939.43 2.36176 -4.92832 0
M  V30 32885 H 2936.52 0.389125 -0.729733 0
M  V30 32886 H 2939.07 0.0608868 -1.69591 0
M  V30 32887 H 2937.84 0.471879 -3.88444 0
M  V30 32888 H 2937.47 2.10824 -3.37104 0
M  V30 32889 N 2938.46 1.53634 0.351355 0
M  V30 32890 C 2939.71 1.70756 1.09408 0
M  V30 32891 C 2940.04 0.465326 1.88543 0
M  V30 32892 O 2939.32 -0.537575 1.86923 0
M  V30 32893 C 2939.6 2.96627 2.04168 0
M  V30 32894 C 2939.45 4.3104 1.28548 0
M  V30 32895 C 2940.77 3.18141 3.04096 0
M  V30 32896 H 2937.89 0.621342 0.396362 0
M  V30 32897 H 2940.53 1.86294 0.373431 0
M  V30 32898 H 2938.68 2.8351 2.6562 0
M  V30 32899 H 2940.35 4.55993 0.697706 0
M  V30 32900 H 2938.6 4.29804 0.587422 0
M  V30 32901 H 2939.27 5.15275 1.9798 0
M  V30 32902 H 2941.74 3.30536 2.52755 0
M  V30 32903 H 2940.62 4.07621 3.67609 0
M  V30 32904 H 2940.88 2.34075 3.75048 0
M  V30 32905 N 2939.94 -0.611943 1.45234 0
M  V30 32906 C 2940.89 -1.74406 1.53901 0
M  V30 32907 C 2941.88 -1.64381 0.409283 0
M  V30 32908 O 2943.09 -1.70228 0.585018 0
M  V30 32909 H 2939.46 -0.576118 0.483313 0
M  V30 32910 H 2941.43 -1.64222 2.49146 0
M  V30 32911 C 2940.18 -3.12779 1.5187 0
M  V30 32912 H 2939.51 -3.21149 2.38124 0
M  V30 32913 H 2940.95 -3.91835 1.61993 0
M  V30 32914 C 2939.41 -3.36027 0.242433 0
M  V30 32915 O 2939.94 -3.95911 -0.679518 0
M  V30 32916 N 2938.14 -2.90265 0.139499 0
M  V30 32917 H 2937.69 -2.41714 0.890614 0
M  V30 32918 H 2937.65 -3.06194 -0.713632 0
M  V30 32919 N 2941.42 -1.32452 -0.854063 0
M  V30 32920 C 2942.35 -1.15772 -1.96652 0
M  V30 32921 C 2943.33 -0.057026 -1.625 0
M  V30 32922 O 2944.51 -0.216445 -1.87253 0
M  V30 32923 C 2941.64 -0.772419 -3.29775 0
M  V30 32924 C 2940.69 -1.87844 -3.82906 0
M  V30 32925 S 2941.52 -3.48683 -4.06424 0
M  V30 32926 C 2942.68 -3.12126 -5.4252 0
M  V30 32927 H 2942.91 -2.09945 -2.105 0
M  V30 32928 H 2940.44 -1.17119 -1.0061 0
M  V30 32929 H 2942.4 -0.55688 -4.06705 0
M  V30 32930 H 2941.06 0.150464 -3.13739 0
M  V30 32931 H 2940.25 -1.56185 -4.79189 0
M  V30 32932 H 2939.86 -2.04986 -3.12821 0
M  V30 32933 H 2942.15 -2.62007 -6.24787 0
M  V30 32934 H 2943.09 -4.07432 -5.79141 0
M  V30 32935 H 2943.5 -2.4913 -5.06552 0
M  V30 32936 N 2942.9 1.07041 -1.15672 0
M  V30 32937 C 2944.12 1.8395 -0.957978 0
M  V30 32938 C 2944.55 1.81639 0.488775 0
M  V30 32939 O 2943.91 1.21164 1.34866 0
M  V30 32940 C 2943.95 3.28797 -1.4807 0
M  V30 32941 O 2943.06 4.06722 -0.681993 0
M  V30 32942 H 2942.4 0.569473 -0.341463 0
M  V30 32943 H 2944.93 1.35012 -1.5373 0
M  V30 32944 H 2944.94 3.79627 -1.4949 0
M  V30 32945 H 2943.61 3.29794 -2.53394 0
M  V30 32946 H 2942.19 3.65531 -0.737676 0
M  V30 32947 N 2944.38 0.954014 1.25445 0
M  V30 32948 C 2945.33 0.444452 2.23626 0
M  V30 32949 C 2946.31 -0.465966 1.54005 0
M  V30 32950 O 2947.5 -0.299119 1.74454 0
M  V30 32951 C 2944.63 -0.277115 3.4218 0
M  V30 32952 C 2943.72 0.651337 4.19069 0
M  V30 32953 N 2944.11 1.78271 4.73343 0
M  V30 32954 C 2942.41 0.459416 4.43628 0
M  V30 32955 C 2943.11 2.36233 5.31572 0
M  V30 32956 N 2942.08 1.64893 5.17988 0
M  V30 32957 H 2945.88 1.3079 2.63194 0
M  V30 32958 H 2943.4 0.811427 1.40676 0
M  V30 32959 H 2945.4 -0.659294 4.11654 0
M  V30 32960 H 2944.06 -1.13717 3.04136 0
M  V30 32961 H 2945.07 2.16458 4.70496 0
M  V30 32962 H 2941.74 -0.357812 4.15964 0
M  V30 32963 H 2943.13 3.3163 5.84355 0
M  V30 32964 N 2945.85 -1.40063 0.722513 0
M  V30 32965 C 2946.8 -2.3068 0.0744144 0
M  V30 32966 C 2947.77 -1.48557 -0.742978 0
M  V30 32967 O 2948.96 -1.77277 -0.705505 0
M  V30 32968 C 2946.1 -3.34815 -0.836233 0
M  V30 32969 C 2945.21 -4.31999 -0.00757069 0
M  V30 32970 C 2944.34 -5.23202 -0.918336 0
M  V30 32971 C 2943.38 -6.12042 -0.0841763 0
M  V30 32972 N 2942.52 -6.95641 -0.950193 0
M  V30 32973 H 2947.36 -2.85536 0.852844 0
M  V30 32974 H 2944.9 -1.40606 0.432247 0
M  V30 32975 H 2946.85 -3.93767 -1.37853 0
M  V30 32976 H 2945.48 -2.81445 -1.58077 0
M  V30 32977 H 2944.54 -3.74771 0.651994 0
M  V30 32978 H 2945.85 -4.94704 0.637947 0
M  V30 32979 H 2945 -5.87119 -1.52892 0
M  V30 32980 H 2943.74 -4.60789 -1.59766 0
M  V30 32981 H 2942.75 -5.47149 0.539296 0
M  V30 32982 H 2943.97 -6.76517 0.591747 0
M  V30 32983 H 2941.92 -6.35809 -1.61504 0
M  V30 32984 H 2941.83 -7.55138 -0.360872 0
M  V30 32985 H 2943.1 -7.64 -1.54674 0
M  V30 32986 N 2947.33 -0.469207 -1.50453 0
M  V30 32987 C 2948.28 0.325941 -2.28487 0
M  V30 32988 C 2949.25 0.98887 -1.33456 0
M  V30 32989 O 2950.43 1.00167 -1.62392 0
M  V30 32990 C 2947.57 1.40307 -3.1529 0
M  V30 32991 C 2946.69 0.755108 -4.25349 0
M  V30 32992 C 2945.82 1.80997 -4.99413 0
M  V30 32993 C 2944.86 1.14215 -6.0135 0
M  V30 32994 N 2944 2.13978 -6.68698 0
M  V30 32995 H 2948.84 -0.345805 -2.95987 0
M  V30 32996 H 2946.37 -0.18238 -1.45965 0
M  V30 32997 H 2948.33 2.03921 -3.63967 0
M  V30 32998 H 2946.96 2.04401 -2.4984 0
M  V30 32999 H 2946.01 0.00645215 -3.80399 0
M  V30 33000 H 2947.33 0.227853 -4.98279 0
M  V30 33001 H 2946.48 2.52196 -5.51799 0
M  V30 33002 H 2945.22 2.37103 -4.26185 0
M  V30 33003 H 2944.22 0.41578 -5.48226 0
M  V30 33004 H 2945.45 0.588016 -6.76549 0
M  V30 33005 H 2943.4 2.69105 -5.98263 0
M  V30 33006 H 2943.31 1.66233 -7.37498 0
M  V30 33007 H 2944.58 2.84563 -7.25702 0
M  V30 33008 N 2948.81 1.56303 -0.201741 0
M  V30 33009 C 2950.06 1.96942 0.435522 0
M  V30 33010 C 2950.37 1.09174 1.62297 0
M  V30 33011 O 2951.58 1.39624 2.32846 0
M  V30 33012 C 2950.03 3.50288 0.826236 0
M  V30 33013 C 2949.64 4.46728 -0.337294 0
M  V30 33014 C 2951.39 3.99681 1.43021 0
M  V30 33015 C 2949.29 5.91353 0.0747499 0
M  V30 33016 H 2948.22 0.73539 0.166487 0
M  V30 33017 H 2950.87 1.81116 -0.294813 0
M  V30 33018 H 2949.26 3.61641 1.61343 0
M  V30 33019 H 2950.43 4.47111 -1.11484 0
M  V30 33020 H 2948.74 4.07565 -0.853198 0
M  V30 33021 H 2951.34 5.05215 1.75106 0
M  V30 33022 H 2951.68 3.44375 2.33905 0
M  V30 33023 H 2952.22 3.9147 0.706856 0
M  V30 33024 H 2948.96 6.50599 -0.800071 0
M  V30 33025 H 2948.48 5.94209 0.817018 0
M  V30 33026 H 2950.16 6.45 0.508275 0
M  V30 33027 N 2950.29 -0.0718147 1.57436 0
M  V30 33028 C 2951.24 -1.10407 2.04727 0
M  V30 33029 C 2952.23 -1.40078 0.952604 0
M  V30 33030 O 2953.44 -1.39485 1.13771 0
M  V30 33031 H 2949.81 -0.373382 0.652756 0
M  V30 33032 H 2951.78 -0.679075 2.9057 0
M  V30 33033 C 2950.53 -2.40941 2.50684 0
M  V30 33034 H 2949.85 -2.18961 3.34509 0
M  V30 33035 H 2951.29 -3.11616 2.87526 0
M  V30 33036 C 2949.75 -3.06899 1.38976 0
M  V30 33037 O 2950.28 -3.94977 0.731855 0
M  V30 33038 N 2948.49 -2.67523 1.1349 0
M  V30 33039 H 2948.04 -1.95989 1.67171 0
M  V30 33040 H 2947.99 -3.11978 0.389522 0
M  V30 33041 N 2951.77 -1.53818 -0.343203 0
M  V30 33042 C 2952.68 -1.84824 -1.4449 0
M  V30 33043 C 2953.69 -0.738409 -1.57555 0
M  V30 33044 O 2954.87 -1.03075 -1.73025 0
M  V30 33045 C 2951.93 -2.05171 -2.79474 0
M  V30 33046 C 2950.99 -3.2903 -2.7575 0
M  V30 33047 C 2950.23 -3.48397 -4.04296 0
M  V30 33048 O 2950.45 -2.71595 -5.0159 0
M  V30 33049 O 2949.38 -4.41826 -4.08746 0
M  V30 33050 H 2953.21 -2.78466 -1.21204 0
M  V30 33051 H 2950.79 -1.39476 -0.535413 0
M  V30 33052 H 2952.68 -2.19998 -3.59415 0
M  V30 33053 H 2951.35 -1.14718 -3.0269 0
M  V30 33054 H 2950.26 -3.19607 -1.94429 0
M  V30 33055 H 2951.59 -4.19477 -2.57488 0
M  V30 33056 N 2953.24 0.604233 -1.45557 0
M  V30 33057 C 2954.18 1.72861 -1.48978 0
M  V30 33058 C 2955.15 1.5888 -0.345831 0
M  V30 33059 O 2956.34 1.80394 -0.546828 0
M  V30 33060 C 2953.47 3.1072 -1.34799 0
M  V30 33061 C 2952.51 3.43281 -2.53102 0
M  V30 33062 S 2953.34 3.37746 -4.15557 0
M  V30 33063 C 2954.5 4.7818 -4.0385 0
M  V30 33064 H 2954.73 1.69697 -2.44111 0
M  V30 33065 H 2952.27 0.781171 -1.33181 0
M  V30 33066 H 2954.22 3.9026 -1.27307 0
M  V30 33067 H 2952.89 3.11395 -0.411309 0
M  V30 33068 H 2952.08 4.43666 -2.39117 0
M  V30 33069 H 2951.68 2.71262 -2.57474 0
M  V30 33070 H 2953.97 5.68064 -3.69201 0
M  V30 33071 H 2954.92 4.97222 -5.04159 0
M  V30 33072 H 2955.32 4.54019 -3.35451 0
M  V30 33073 N 2954.72 1.32903 0.847027 0
M  V30 33074 C 2955.63 1.24493 1.98843 0
M  V30 33075 C 2956.65 0.15705 1.7329 0
M  V30 33076 O 2957.82 0.379139 1.97799 0
M  V30 33077 C 2954.89 0.976043 3.32677 0
M  V30 33078 C 2953.95 2.15313 3.71401 0
M  V30 33079 C 2953.18 1.89697 4.98849 0
M  V30 33080 O 2953.41 0.843267 5.64132 0
M  V30 33081 O 2952.34 2.76011 5.34884 0
M  V30 33082 H 2956.17 2.20464 2.08876 0
M  V30 33083 H 2953.75 1.12868 0.978832 0
M  V30 33084 H 2955.63 0.842899 4.12884 0
M  V30 33085 H 2954.31 0.0465523 3.23667 0
M  V30 33086 H 2953.21 2.34177 2.91739 0
M  V30 33087 H 2954.55 3.06567 3.85068 0
M  V30 33088 N 2956.2 -1.06426 1.16238 0
M  V30 33089 C 2957.13 -2.13819 0.825484 0
M  V30 33090 C 2958.14 -1.61945 -0.166678 0
M  V30 33091 O 2959.33 -1.78406 0.0578919 0
M  V30 33092 C 2956.43 -3.38261 0.208083 0
M  V30 33093 C 2955.61 -4.19455 1.24001 0
M  V30 33094 C 2954.67 -5.22261 0.642661 0
M  V30 33095 O 2953.69 -5.53893 1.31116 0
M  V30 33096 N 2954.89 -5.77683 -0.571226 0
M  V30 33097 H 2957.66 -2.43319 1.74974 0
M  V30 33098 H 2955.22 -1.22415 1.05953 0
M  V30 33099 H 2957.21 -4.04183 -0.204537 0
M  V30 33100 H 2955.78 -3.06396 -0.619698 0
M  V30 33101 H 2955 -3.49209 1.82885 0
M  V30 33102 H 2956.29 -4.70509 1.93646 0
M  V30 33103 H 2955.69 -5.54247 -1.13253 0
M  V30 33104 H 2954.24 -6.45188 -0.926074 0
M  V30 33105 N 2957.68 -0.960653 -1.24937 0
M  V30 33106 C 2958.61 -0.503855 -2.27999 0
M  V30 33107 C 2959.59 0.4529 -1.6396 0
M  V30 33108 O 2960.77 0.350552 -1.9101 0
M  V30 33109 C 2957.9 0.213474 -3.46643 0
M  V30 33110 C 2956.86 -0.658609 -4.22902 0
M  V30 33111 C 2956.18 0.189808 -5.34363 0
M  V30 33112 C 2957.48 -1.93972 -4.84946 0
M  V30 33113 H 2959.18 -1.36526 -2.6646 0
M  V30 33114 H 2956.72 -0.65792 -1.28091 0
M  V30 33115 H 2958.68 0.544212 -4.17871 0
M  V30 33116 H 2957.4 1.10918 -3.07189 0
M  V30 33117 H 2956.06 -0.972517 -3.53465 0
M  V30 33118 H 2955.71 1.08545 -4.91149 0
M  V30 33119 H 2955.41 -0.390434 -5.86301 0
M  V30 33120 H 2956.93 0.515377 -6.08421 0
M  V30 33121 H 2958.35 -1.67501 -5.48285 0
M  V30 33122 H 2956.74 -2.4661 -5.47086 0
M  V30 33123 H 2957.81 -2.63907 -4.06794 0
M  V30 33124 N 2959.16 1.39677 -0.729931 0
M  V30 33125 C 2960.1 2.30637 -0.0866469 0
M  V30 33126 C 2961.07 1.48948 0.735089 0
M  V30 33127 O 2962.26 1.77649 0.696094 0
M  V30 33128 C 2959.4 3.35254 0.818465 0
M  V30 33129 C 2958.51 4.31997 -0.0153394 0
M  V30 33130 C 2957.65 5.23681 0.890577 0
M  V30 33131 C 2956.69 6.12078 0.051717 0
M  V30 33132 N 2955.82 6.96135 0.913289 0
M  V30 33133 H 2960.66 2.85079 -0.867975 0
M  V30 33134 H 2958.2 1.40375 -0.439697 0
M  V30 33135 H 2960.16 3.94493 1.35763 0
M  V30 33136 H 2958.79 2.8228 1.56582 0
M  V30 33137 H 2957.84 3.7442 -0.67186 0
M  V30 33138 H 2959.15 4.94358 -0.664173 0
M  V30 33139 H 2958.31 5.87922 1.49776 0
M  V30 33140 H 2957.04 4.61629 1.5732 0
M  V30 33141 H 2956.05 5.46855 -0.568305 0
M  V30 33142 H 2957.27 6.76194 -0.627616 0
M  V30 33143 H 2955.22 6.36656 1.5813 0
M  V30 33144 H 2955.14 7.55319 0.32082 0
M  V30 33145 H 2956.41 7.6481 1.5062 0
M  V30 33146 N 2960.63 0.47718 1.50202 0
M  V30 33147 C 2961.58 -0.31382 2.28657 0
M  V30 33148 C 2962.55 -0.981778 1.33979 0
M  V30 33149 O 2963.74 -0.993043 1.62921 0
M  V30 33150 C 2960.88 -1.38633 3.1603 0
M  V30 33151 C 2959.99 -0.73254 4.25744 0
M  V30 33152 C 2959.12 -1.78346 5.00366 0
M  V30 33153 C 2958.16 -1.11025 6.01947 0
M  V30 33154 N 2957.3 -2.10429 6.69824 0
M  V30 33155 H 2962.14 0.361497 2.95799 0
M  V30 33156 H 2959.68 0.190119 1.45866 0
M  V30 33157 H 2961.64 -2.01988 3.65043 0
M  V30 33158 H 2960.27 -2.03073 2.50921 0
M  V30 33159 H 2959.32 0.0137214 3.80398 0
M  V30 33160 H 2960.63 -0.201425 4.98393 0
M  V30 33161 H 2959.78 -2.49266 5.53129 0
M  V30 33162 H 2958.52 -2.34839 4.27436 0
M  V30 33163 H 2957.53 -0.386701 5.48438 0
M  V30 33164 H 2958.75 -0.552129 6.76852 0
M  V30 33165 H 2956.7 -2.65928 5.99682 0
M  V30 33166 H 2956.62 -1.62319 7.38369 0
M  V30 33167 H 2957.88 -2.80711 7.27201 0
M  V30 33168 N 2962.11 -1.56194 0.210027 0
M  V30 33169 C 2963.04 -2.1703 -0.736929 0
M  V30 33170 C 2964.06 -1.13618 -1.16597 0
M  V30 33171 O 2965.25 -1.40648 -1.09911 0
M  V30 33172 C 2962.35 -2.72972 -2.00847 0
M  V30 33173 C 2961.52 -4.01438 -1.73684 0
M  V30 33174 C 2960.58 -4.42058 -2.85431 0
M  V30 33175 O 2959.6 -5.09187 -2.54396 0
M  V30 33176 N 2960.81 -4.0679 -4.14128 0
M  V30 33177 H 2963.57 -2.98916 -0.216604 0
M  V30 33178 H 2961.13 -1.61875 0.0285956 0
M  V30 33179 H 2963.12 -2.97123 -2.74773 0
M  V30 33180 H 2961.69 -1.95455 -2.43959 0
M  V30 33181 H 2960.91 -3.85263 -0.834608 0
M  V30 33182 H 2962.2 -4.85266 -1.52952 0
M  V30 33183 H 2961.6 -3.52824 -4.4219 0
M  V30 33184 H 2960.16 -4.35859 -4.84634 0
M  V30 33185 N 2963.59 0.0634645 -1.57472 0
M  V30 33186 C 2964.84 0.761033 -1.87655 0
M  V30 33187 C 2965.17 1.77156 -0.802878 0
M  V30 33188 O 2964.42 1.94673 0.20021 0
M  V30 33189 C 2964.72 1.4973 -3.24524 0
M  V30 33190 C 2964.39 0.625986 -4.46534 0
M  V30 33191 C 2963.05 0.385894 -4.7965 0
M  V30 33192 C 2965.4 0.0223085 -5.21195 0
M  V30 33193 C 2962.73 -0.467221 -5.84837 0
M  V30 33194 C 2965.08 -0.818308 -6.27285 0
M  V30 33195 C 2963.74 -1.06819 -6.58897 0
M  V30 33196 H 2963.01 0.278482 -0.68668 0
M  V30 33197 H 2965.66 0.0216012 -1.91488 0
M  V30 33198 H 2963.97 2.30916 -3.1652 0
M  V30 33199 H 2965.66 2.04198 -3.45115 0
M  V30 33200 H 2962.25 0.823251 -4.20619 0
M  V30 33201 H 2966.44 0.194898 -4.95917 0
M  V30 33202 H 2961.69 -0.669482 -6.07724 0
M  V30 33203 H 2965.87 -1.29277 -6.84295 0
M  V30 33204 H 2963.49 -1.73101 -7.4023 0
M  V30 33205 N 2965.07 1.53998 0.33504 0
M  V30 33206 C 2965.98 1.85587 1.43508 0
M  V30 33207 C 2966.99 0.746754 1.57161 0
M  V30 33208 O 2968.17 1.03991 1.72476 0
M  V30 33209 C 2965.24 2.0665 2.78382 0
M  V30 33210 C 2964.3 3.30487 2.74001 0
M  V30 33211 C 2963.53 3.50536 4.02443 0
M  V30 33212 O 2963.75 2.74251 5.00142 0
M  V30 33213 O 2962.69 4.43987 4.06398 0
M  V30 33214 H 2966.51 2.79105 1.19726 0
M  V30 33215 H 2964.1 1.39758 0.528009 0
M  V30 33216 H 2965.98 2.21901 3.58243 0
M  V30 33217 H 2964.65 1.16322 3.02078 0
M  V30 33218 H 2963.56 3.20633 1.92731 0
M  V30 33219 H 2964.89 4.20837 2.5526 0
M  V30 33220 N 2966.55 -0.596505 1.45875 0
M  V30 33221 C 2967.51 -1.6885 1.54991 0
M  V30 33222 C 2968.51 -1.5499 0.428329 0
M  V30 33223 O 2969.7 -1.59858 0.692186 0
M  V30 33224 C 2966.83 -3.08193 1.45705 0
M  V30 33225 H 2968.02 -1.6213 2.52297 0
M  V30 33226 H 2965.58 -0.813183 1.3348 0
M  V30 33227 H 2966.31 -3.2048 0.496261 0
M  V30 33228 H 2966.1 -3.19661 2.27067 0
M  V30 33229 H 2967.59 -3.87713 1.5514 0
M  V30 33230 N 2968.02 -1.3335 -0.839967 0
M  V30 33231 C 2968.96 -1.19347 -1.95675 0
M  V30 33232 C 2969.97 -0.124721 -1.62322 0
M  V30 33233 O 2971.16 -0.375042 -1.74516 0
M  V30 33234 C 2968.26 -0.807829 -3.29131 0
M  V30 33235 C 2967.43 -1.96799 -3.90626 0
M  V30 33236 C 2966.49 -1.5635 -5.02435 0
M  V30 33237 O 2965.52 -2.27768 -5.21642 0
M  V30 33238 N 2966.72 -0.467869 -5.78611 0
M  V30 33239 H 2969.48 -2.15551 -2.08225 0
M  V30 33240 H 2967.04 -1.26081 -1.01564 0
M  V30 33241 H 2969.04 -0.519352 -4.01354 0
M  V30 33242 H 2967.61 0.0635001 -3.12535 0
M  V30 33243 H 2966.83 -2.42215 -3.11007 0
M  V30 33244 H 2968.11 -2.7443 -4.28446 0
M  V30 33245 H 2967.51 0.126225 -5.65559 0
M  V30 33246 H 2966.07 -0.23906 -6.51361 0
M  V30 33247 N 2969.5 1.05808 -1.16801 0
M  V30 33248 C 2970.45 2.15508 -0.875149 0
M  V30 33249 C 2971.44 1.68664 0.157751 0
M  V30 33250 O 2972.65 1.79996 0.0112654 0
M  V30 33251 H 2969.03 0.703598 -0.265432 0
M  V30 33252 H 2971 2.37417 -1.80764 0
M  V30 33253 C 2969.75 3.45414 -0.398081 0
M  V30 33254 H 2969.07 3.81856 -1.18432 0
M  V30 33255 H 2970.51 4.23365 -0.231988 0
M  V30 33256 C 2968.97 3.25117 0.883213 0
M  V30 33257 O 2969.5 3.51118 1.95139 0
M  V30 33258 N 2967.7 2.78527 0.828912 0
M  V30 33259 H 2967.25 2.57568 -0.0405482 0
M  V30 33260 H 2967.21 2.65327 1.68669 0
M  V30 33261 N 2970.98 0.967265 1.24426 0
M  V30 33262 C 2971.91 0.515939 2.27729 0
M  V30 33263 C 2972.89 -0.444198 1.64198 0
M  V30 33264 O 2974.08 -0.340417 1.91193 0
M  V30 33265 C 2971.21 -0.195088 3.46752 0
M  V30 33266 C 2970.16 0.681027 4.22547 0
M  V30 33267 C 2969.49 -0.161467 5.34456 0
M  V30 33268 C 2970.79 1.96541 4.8391 0
M  V30 33269 H 2972.48 1.37937 2.65732 0
M  V30 33270 H 2970.03 0.664704 1.27741 0
M  V30 33271 H 2971.98 -0.522044 4.18154 0
M  V30 33272 H 2970.7 -1.09287 3.07773 0
M  V30 33273 H 2969.36 0.991248 3.52945 0
M  V30 33274 H 2969.01 -1.05938 4.91717 0
M  V30 33275 H 2968.71 0.421521 5.86086 0
M  V30 33276 H 2970.23 -0.483104 6.08686 0
M  V30 33277 H 2971.65 1.70406 5.47389 0
M  V30 33278 H 2970.05 2.49508 5.45771 0
M  V30 33279 H 2971.12 2.6606 4.05389 0
M  V30 33280 N 2972.46 -1.39288 0.737328 0
M  V30 33281 C 2973.68 -2.05287 0.295273 0
M  V30 33282 C 2974.11 -1.5523 -1.06232 0
M  V30 33283 O 2973.47 -0.697072 -1.67364 0
M  V30 33284 C 2973.52 -3.59272 0.30921 0
M  V30 33285 O 2972.62 -4.06375 -0.702365 0
M  V30 33286 H 2971.96 -0.650385 0.133773 0
M  V30 33287 H 2974.49 -1.78278 1.0039 0
M  V30 33288 H 2974.5 -4.07708 0.154408 0
M  V30 33289 H 2973.18 -3.95067 1.29981 0
M  V30 33290 H 2971.75 -3.69347 -0.513509 0
M  V30 33291 N 2973.94 -0.485139 -1.49947 0
M  V30 33292 C 2974.87 0.347988 -2.25531 0
M  V30 33293 C 2975.85 0.984149 -1.29434 0
M  V30 33294 O 2977.03 1.01735 -1.58689 0
M  V30 33295 C 2974.16 1.48873 -3.04228 0
M  V30 33296 C 2973.21 0.968543 -4.15357 0
M  V30 33297 S 2974.04 -0.128028 -5.35347 0
M  V30 33298 C 2975.19 1.01626 -6.17595 0
M  V30 33299 H 2975.43 -0.293581 -2.95847 0
M  V30 33300 H 2972.96 -0.270207 -1.52017 0
M  V30 33301 H 2974.92 2.14244 -3.50157 0
M  V30 33302 H 2973.58 2.10186 -2.33411 0
M  V30 33303 H 2972.77 1.82296 -4.69877 0
M  V30 33304 H 2972.37 0.392312 -3.71937 0
M  V30 33305 H 2974.67 1.92492 -6.49579 0
M  V30 33306 H 2975.61 0.510025 -7.06261 0
M  V30 33307 H 2976.02 1.27643 -5.4988 0
M  V30 33308 N 2975.42 1.56081 -0.218307 0
M  V30 33309 C 2976.35 2.17418 0.725409 0
M  V30 33310 C 2977.36 1.14235 1.15993 0
M  V30 33311 O 2978.55 1.41229 1.09164 0
M  V30 33312 C 2975.65 2.74033 1.99396 0
M  V30 33313 C 2974.82 4.02354 1.71553 0
M  V30 33314 C 2973.88 4.43566 2.83083 0
M  V30 33315 O 2972.91 5.10529 2.51692 0
M  V30 33316 N 2974.11 4.08981 4.11965 0
M  V30 33317 H 2976.87 2.99027 0.200748 0
M  V30 33318 H 2974.44 1.61857 -0.0371798 0
M  V30 33319 H 2976.43 2.98576 2.73193 0
M  V30 33320 H 2975 1.96746 2.42919 0
M  V30 33321 H 2974.22 3.85701 0.814165 0
M  V30 33322 H 2975.51 4.8607 1.50377 0
M  V30 33323 H 2974.9 3.55164 4.40313 0
M  V30 33324 H 2973.46 4.38423 4.82316 0
M  V30 33325 N 2976.89 -0.0551124 1.57504 0
M  V30 33326 C 2978.12 -0.767318 1.92684 0
M  V30 33327 C 2978.54 -1.69471 0.81617 0
M  V30 33328 O 2977.9 -1.79836 -0.229957 0
M  V30 33329 C 2977.95 -1.5228 3.26869 0
M  V30 33330 O 2977.05 -2.63454 3.17279 0
M  V30 33331 H 2976.39 -0.208227 0.630506 0
M  V30 33332 H 2978.92 -0.0183666 2.04592 0
M  V30 33333 H 2978.93 -1.89844 3.61142 0
M  V30 33334 H 2977.61 -0.84247 4.07278 0
M  V30 33335 H 2976.19 -2.28624 2.94593 0
M  V30 33336 N 2978.37 -1.54173 -0.326869 0
M  V30 33337 C 2979.62 -1.72475 -1.06678 0
M  V30 33338 C 2979.95 -0.495263 -1.87779 0
M  V30 33339 O 2979.23 0.50777 -1.87755 0
M  V30 33340 C 2979.51 -2.99837 -1.99423 0
M  V30 33341 C 2979.36 -4.3303 -1.21674 0
M  V30 33342 C 2980.68 -3.22939 -2.98996 0
M  V30 33343 H 2977.8 -0.62757 -0.386427 0
M  V30 33344 H 2980.44 -1.86865 -0.343746 0
M  V30 33345 H 2978.59 -2.877 -2.61076 0
M  V30 33346 H 2980.26 -4.57045 -0.625073 0
M  V30 33347 H 2978.51 -4.30685 -0.51897 0
M  V30 33348 H 2979.18 -5.18359 -1.89757 0
M  V30 33349 H 2981.65 -3.34516 -2.47464 0
M  V30 33350 H 2980.53 -4.13418 -3.61077 0
M  V30 33351 H 2980.79 -2.40012 -3.71277 0
M  V30 33352 N 2979.85 0.58876 -1.4619 0
M  V30 33353 C 2981.27 0.911501 -1.31011 0
M  V30 33354 C 2981.47 1.99586 -0.277053 0
M  V30 33355 O 2980.52 2.50432 0.322488 0
M  V30 33356 C 2981.83 1.33459 -2.69461 0
M  V30 33357 C 2983.38 1.44777 -2.77504 0
M  V30 33358 C 2983.86 1.90454 -4.16523 0
M  V30 33359 N 2985.35 1.97657 -4.1891 0
M  V30 33360 C 2986.08 2.34262 -5.23363 0
M  V30 33361 N 2985.58 2.69702 -6.38148 0
M  V30 33362 N 2987.37 2.34765 -5.10727 0
M  V30 33363 H 2979.52 -0.127651 -2.12016 0
M  V30 33364 H 2981.79 0.00555933 -0.947984 0
M  V30 33365 H 2981.49 0.611868 -3.46337 0
M  V30 33366 H 2981.37 2.29734 -2.99169 0
M  V30 33367 H 2983.75 2.16136 -2.00921 0
M  V30 33368 H 2983.83 0.467679 -2.51488 0
M  V30 33369 H 2983.48 1.19675 -4.93599 0
M  V30 33370 H 2983.41 2.8941 -4.39942 0
M  V30 33371 H 2985.9 1.72783 -3.36087 0
M  V30 33372 H 2986.21 2.96569 -7.13629 0
M  V30 33373 H 2984.56 2.67355 -6.41519 0
M  V30 33374 H 2987.75 2.06496 -4.20092 0
M  V30 33375 H 2987.92 2.62965 -5.92245 0
M  V30 33376 N 2981.33 1.33794 0.832883 0
M  V30 33377 C 2982.26 1.18886 1.94786 0
M  V30 33378 C 2983.24 0.0828711 1.62389 0
M  V30 33379 O 2984.42 0.246208 1.86885 0
M  V30 33380 C 2981.55 0.824785 3.28504 0
M  V30 33381 C 2980.6 1.93912 3.79869 0
M  V30 33382 S 2981.43 3.55104 4.00826 0
M  V30 33383 C 2982.58 3.20717 5.37486 0
M  V30 33384 H 2982.82 2.13268 2.07133 0
M  V30 33385 H 2980.35 1.18705 0.987341 0
M  V30 33386 H 2982.31 0.621513 4.05768 0
M  V30 33387 H 2980.97 -0.100531 3.13939 0
M  V30 33388 H 2980.16 1.63789 4.76644 0
M  V30 33389 H 2979.76 2.09936 3.0952 0
M  V30 33390 H 2982.06 2.71913 6.2054 0
M  V30 33391 H 2983 4.16594 5.72586 0
M  V30 33392 H 2983.41 2.57157 5.02524 0
M  V30 33393 N 2982.81 -1.05187 1.1736 0
M  V30 33394 C 2984.08 -1.7509 0.871944 0
M  V30 33395 C 2984.46 -2.01549 -0.627785 0
M  V30 33396 O 2983.81 -1.65159 -1.57907 0
M  V30 33397 C 2984.02 -3.0441 1.70692 0
M  V30 33398 C 2985.37 -3.78359 1.92691 0
M  V30 33399 O 2986.39 -3.14279 1.67651 0
M  V30 33400 O 2985.25 -4.93501 2.34774 0
M  V30 33401 H 2982.35 -0.761381 0.322845 0
M  V30 33402 H 2984.89 -1.11355 1.28056 0
M  V30 33403 H 2983.66 -2.80906 2.7241 0
M  V30 33404 H 2983.29 -3.75882 1.29608 0
M  V30 33405 N 2984.28 -0.97385 -1.23911 0
M  V30 33406 C 2985.23 -0.501019 -2.2714 0
M  V30 33407 C 2986.23 0.438602 -1.63623 0
M  V30 33408 O 2987.43 0.313216 -1.77254 0
M  V30 33409 H 2983.81 -0.143573 -0.738167 0
M  V30 33410 H 2985.78 -1.38351 -2.64389 0
M  V30 33411 C 2984.53 0.187316 -3.47195 0
M  V30 33412 H 2983.85 -0.526605 -3.96317 0
M  V30 33413 H 2985.29 0.481888 -4.21253 0
M  V30 33414 C 2983.75 1.41637 -3.05681 0
M  V30 33415 O 2984.28 2.51303 -3.13384 0
M  V30 33416 N 2982.48 1.28464 -2.60663 0
M  V30 33417 H 2982.03 0.392335 -2.54595 0
M  V30 33418 H 2981.99 2.10809 -2.33253 0
M  V30 33419 N 2985.76 1.38895 -0.744705 0
M  V30 33420 C 2987.01 2.00311 -0.296919 0
M  V30 33421 C 2987.34 1.59104 1.11875 0
M  V30 33422 O 2986.59 0.815734 1.77888 0
M  V30 33423 C 2986.89 3.55609 -0.357364 0
M  V30 33424 C 2986.56 4.16498 -1.72743 0
M  V30 33425 C 2985.22 4.32843 -2.1024 0
M  V30 33426 C 2987.57 4.5018 -2.62655 0
M  V30 33427 C 2984.9 4.80161 -3.37138 0
M  V30 33428 C 2987.25 4.98911 -3.88935 0
M  V30 33429 C 2985.91 5.13463 -4.26512 0
M  V30 33430 H 2985.18 0.732991 -0.10865 0
M  V30 33431 H 2987.83 1.66077 -0.953448 0
M  V30 33432 H 2986.14 3.89926 0.382736 0
M  V30 33433 H 2987.83 4.00999 0.00738911 0
M  V30 33434 H 2984.42 4.04185 -1.42592 0
M  V30 33435 H 2988.61 4.37162 -2.34953 0
M  V30 33436 H 2983.86 4.89613 -3.66182 0
M  V30 33437 H 2988.04 5.23944 -4.58754 0
M  V30 33438 H 2985.66 5.49889 -5.24906 0
M  V30 33439 N 2987.24 0.493084 1.49688 0
M  V30 33440 C 2988.17 -0.326155 2.26868 0
M  V30 33441 C 2989.19 -0.937674 1.33085 0
M  V30 33442 O 2990.37 -0.822354 1.58429 0
M  V30 33443 C 2987.47 -1.47345 3.05193 0
M  V30 33444 C 2986.65 -0.970692 4.26493 0
M  V30 33445 C 2985.71 -1.99464 4.8693 0
M  V30 33446 O 2984.73 -1.56638 5.47223 0
M  V30 33447 N 2985.93 -3.32448 4.75877 0
M  V30 33448 H 2988.7 0.335599 2.97815 0
M  V30 33449 H 2986.26 0.325157 1.58601 0
M  V30 33450 H 2988.25 -2.15583 3.425 0
M  V30 33451 H 2986.82 -2.0395 2.36904 0
M  V30 33452 H 2986.04 -0.11346 3.94037 0
M  V30 33453 H 2987.33 -0.613068 5.05093 0
M  V30 33454 H 2986.73 -3.69936 4.27976 0
M  V30 33455 H 2985.29 -3.96422 5.1739 0
M  V30 33456 N 2988.72 -1.55963 0.226582 0
M  V30 33457 C 2989.65 -2.23499 -0.67604 0
M  V30 33458 C 2990.63 -1.20839 -1.19716 0
M  V30 33459 O 2991.81 -1.49438 -1.24024 0
M  V30 33460 C 2988.94 -2.91879 -1.88212 0
M  V30 33461 C 2987.9 -4.01055 -1.49463 0
M  V30 33462 C 2987.22 -4.56756 -2.77989 0
M  V30 33463 C 2988.52 -5.17843 -0.68086 0
M  V30 33464 H 2990.22 -2.99187 -0.112937 0
M  V30 33465 H 2987.76 -1.43903 -0.0528793 0
M  V30 33466 H 2989.72 -3.37819 -2.51905 0
M  V30 33467 H 2988.44 -2.13647 -2.47027 0
M  V30 33468 H 2987.1 -3.55853 -0.881136 0
M  V30 33469 H 2986.75 -3.75248 -3.34959 0
M  V30 33470 H 2986.45 -5.30442 -2.52794 0
M  V30 33471 H 2987.97 -5.05417 -3.42616 0
M  V30 33472 H 2989.39 -5.60134 -1.22161 0
M  V30 33473 H 2987.78 -5.97792 -0.525793 0
M  V30 33474 H 2988.85 -4.83899 0.311431 0
M  V30 33475 N 2990.2 0.0467589 -1.57531 0
M  V30 33476 C 2991.42 0.753337 -1.92698 0
M  V30 33477 C 2991.84 1.6983 -0.824822 0
M  V30 33478 O 2991.2 1.81399 0.200123 0
M  V30 33479 C 2991.25 1.52561 -3.27731 0
M  V30 33480 O 2990.97 0.618598 -4.33711 0
M  V30 33481 C 2992.47 2.33094 -3.7707 0
M  V30 33482 H 2989.69 0.212776 -0.63637 0
M  V30 33483 H 2992.23 0.00955767 -2.04498 0
M  V30 33484 H 2990.39 2.22143 -3.17382 0
M  V30 33485 H 2990.8 1.1583 -5.1155 0
M  V30 33486 H 2992.28 2.82701 -4.74114 0
M  V30 33487 H 2992.75 3.13736 -3.07354 0
M  V30 33488 H 2993.36 1.68621 -3.90445 0
M  V30 33489 N 2991.67 1.54344 0.318688 0
M  V30 33490 C 2992.62 1.84068 1.39239 0
M  V30 33491 C 2993.59 0.68816 1.51174 0
M  V30 33492 O 2994.78 0.935068 1.66316 0
M  V30 33493 C 2991.92 2.07799 2.75525 0
M  V30 33494 C 2991.03 3.35472 2.72182 0
M  V30 33495 C 2990.16 3.49137 4.00346 0
M  V30 33496 C 2989.2 4.70667 3.9133 0
M  V30 33497 N 2988.34 4.81233 5.11233 0
M  V30 33498 H 2993.18 2.75666 1.13191 0
M  V30 33499 H 2990.72 1.36518 0.547833 0
M  V30 33500 H 2992.68 2.1955 3.54759 0
M  V30 33501 H 2991.31 1.19487 2.99871 0
M  V30 33502 H 2990.36 3.32434 1.84911 0
M  V30 33503 H 2991.67 4.24817 2.61404 0
M  V30 33504 H 2990.82 3.60456 4.88012 0
M  V30 33505 H 2989.56 2.57893 4.13935 0
M  V30 33506 H 2988.57 4.59399 3.02047 0
M  V30 33507 H 2989.79 5.63301 3.793 0
M  V30 33508 H 2987.74 3.92906 5.2532 0
M  V30 33509 H 2987.66 5.64551 5.0281 0
M  V30 33510 H 2988.92 4.96889 6.00601 0
M  V30 33511 N 2993.15 -0.580999 1.465 0
M  V30 33512 C 2994.1 -1.68994 1.57193 0
M  V30 33513 C 2995.07 -1.60803 0.416143 0
M  V30 33514 O 2996.25 -1.7999 0.633118 0
M  V30 33515 C 2993.39 -3.0733 1.56978 0
M  V30 33516 C 2992.51 -3.26134 2.83303 0
M  V30 33517 C 2991.64 -4.54729 2.74582 0
M  V30 33518 C 2990.68 -4.66882 3.95838 0
M  V30 33519 N 2989.82 -5.86805 3.85493 0
M  V30 33520 H 2994.66 -1.59192 2.51917 0
M  V30 33521 H 2992.2 -0.775835 1.24977 0
M  V30 33522 H 2994.15 -3.87402 1.54839 0
M  V30 33523 H 2992.78 -3.16025 0.657858 0
M  V30 33524 H 2991.84 -2.39654 2.95415 0
M  V30 33525 H 2993.15 -3.30981 3.73166 0
M  V30 33526 H 2992.3 -5.43032 2.70558 0
M  V30 33527 H 2991.04 -4.52322 1.82362 0
M  V30 33528 H 2990.05 -3.76996 4.00192 0
M  V30 33529 H 2991.27 -4.71066 4.89156 0
M  V30 33530 H 2989.22 -5.85392 2.96061 0
M  V30 33531 H 2989.13 -5.92928 4.69012 0
M  V30 33532 H 2990.4 -6.77533 3.85446 0
M  V30 33533 N 2994.63 -1.34234 -0.825776 0
M  V30 33534 C 2995.56 -1.28216 -1.95149 0
M  V30 33535 C 2996.54 -0.160152 -1.69344 0
M  V30 33536 O 2997.73 -0.352053 -1.90982 0
M  V30 33537 C 2994.86 -1.03394 -3.31552 0
M  V30 33538 C 2993.81 -2.1203 -3.71789 0
M  V30 33539 C 2993.14 -1.72401 -5.06144 0
M  V30 33540 C 2994.44 -3.53833 -3.84187 0
M  V30 33541 H 2996.13 -2.22404 -2.00441 0
M  V30 33542 H 2993.68 -1.07064 -0.962977 0
M  V30 33543 H 2995.63 -0.978297 -4.09887 0
M  V30 33544 H 2994.35 -0.0564716 -3.26551 0
M  V30 33545 H 2993.01 -2.16659 -2.95727 0
M  V30 33546 H 2992.66 -0.733225 -4.97627 0
M  V30 33547 H 2992.36 -2.45109 -5.34037 0
M  V30 33548 H 2993.88 -1.68327 -5.8694 0
M  V30 33549 H 2995.3 -3.51632 -4.528 0
M  V30 33550 H 2993.7 -4.25137 -4.23531 0
M  V30 33551 H 2994.77 -3.91382 -2.86266 0
M  V30 33552 N 2996.11 1.04563 -1.17917 0
M  V30 33553 C 2997.06 2.10762 -0.869671 0
M  V30 33554 C 2998.04 1.60118 0.158474 0
M  V30 33555 O 2999.23 1.76943 -0.0448611 0
M  V30 33556 C 2996.36 3.41058 -0.391702 0
M  V30 33557 C 2995.45 3.98483 -1.45163 0
M  V30 33558 N 2995.84 4.29787 -2.66677 0
M  V30 33559 C 2994.14 4.26297 -1.31098 0
M  V30 33560 C 2994.84 4.75671 -3.34831 0
M  V30 33561 N 2993.82 4.76179 -2.62211 0
M  V30 33562 H 2997.62 2.32835 -1.79346 0
M  V30 33563 H 2995.13 1.2227 -1.06882 0
M  V30 33564 H 2997.13 4.16625 -0.151501 0
M  V30 33565 H 2995.79 3.20414 0.525806 0
M  V30 33566 H 2996.8 4.19589 -3.03588 0
M  V30 33567 H 2993.48 4.15006 -0.455618 0
M  V30 33568 H 2994.87 5.08953 -4.38654 0
M  V30 33569 N 2997.59 0.980408 1.23393 0
M  V30 33570 C 2998.5 0.528904 2.2856 0
M  V30 33571 C 2999.51 -0.416299 1.68947 0
M  V30 33572 O 3000.69 -0.286216 1.99356 0
M  V30 33573 C 2997.75 -0.161489 3.46324 0
M  V30 33574 C 2996.81 0.825118 4.21296 0
M  V30 33575 C 2996.05 0.167577 5.33437 0
M  V30 33576 O 2996.27 -1.04136 5.60814 0
M  V30 33577 O 2995.2 0.866152 5.95635 0
M  V30 33578 H 2999.03 1.40351 2.69324 0
M  V30 33579 H 2996.62 0.748042 1.29324 0
M  V30 33580 H 2998.5 -0.548767 4.17812 0
M  V30 33581 H 2997.17 -1.01086 3.07511 0
M  V30 33582 H 2996.08 1.2631 3.52132 0
M  V30 33583 H 2997.41 1.6433 4.63957 0
M  V30 33584 N 2999.06 -1.38498 0.75206 0
M  V30 33585 C 3000.29 -2.04963 0.317029 0
M  V30 33586 C 3000.71 -1.56348 -1.0458 0
M  V30 33587 O 3000.07 -0.714784 -1.66615 0
M  V30 33588 C 3000.12 -3.58924 0.347298 0
M  V30 33589 O 2999.22 -4.07097 -0.659224 0
M  V30 33590 H 2998.57 -0.64893 0.140664 0
M  V30 33591 H 3001.1 -1.77203 1.02276 0
M  V30 33592 H 3001.11 -4.07521 0.197642 0
M  V30 33593 H 2999.78 -3.93666 1.34164 0
M  V30 33594 H 2998.36 -3.69871 -0.474306 0
M  V30 33595 N 3000.54 -0.501015 -1.49424 0
M  V30 33596 C 3001.47 0.266734 -2.31972 0
M  V30 33597 C 3002.45 0.962538 -1.40247 0
M  V30 33598 O 3003.64 0.953938 -1.69156 0
M  V30 33599 C 3000.77 1.33157 -3.20759 0
M  V30 33600 C 2999.72 0.755646 -4.21277 0
M  V30 33601 C 2999.05 1.921 -4.99001 0
M  V30 33602 C 3000.35 -0.253304 -5.21685 0
M  V30 33603 H 3002.04 -0.422289 -2.96407 0
M  V30 33604 H 2999.59 -0.20453 -1.4254 0
M  V30 33605 H 3001.54 1.8764 -3.77319 0
M  V30 33606 H 3000.27 2.04978 -2.54266 0
M  V30 33607 H 2998.92 0.232573 -3.65862 0
M  V30 33608 H 2998.57 2.6269 -4.28956 0
M  V30 33609 H 2998.27 1.54172 -5.67014 0
M  V30 33610 H 2999.8 2.47016 -5.58404 0
M  V30 33611 H 3001.21 0.203382 -5.72939 0
M  V30 33612 H 2999.61 -0.548427 -5.97589 0
M  V30 33613 H 3000.68 -1.16918 -4.70594 0
M  V30 33614 N 3002.02 1.5584 -0.234849 0
M  V30 33615 C 3002.93 2.24505 0.680789 0
M  V30 33616 C 3003.95 1.2571 1.20304 0
M  V30 33617 O 3005.12 1.58556 1.24185 0
M  V30 33618 C 3002.19 2.92181 1.86631 0
M  V30 33619 C 3001.25 4.06354 1.38473 0
M  V30 33620 C 3000.48 4.70794 2.51374 0
M  V30 33621 O 3000.71 4.34265 3.69824 0
M  V30 33622 O 2999.64 5.59536 2.21818 0
M  V30 33623 H 3003.47 3.03439 0.125777 0
M  V30 33624 H 3001.05 1.494 -0.00384443 0
M  V30 33625 H 3002.93 3.3485 2.55839 0
M  V30 33626 H 3001.61 2.16196 2.40917 0
M  V30 33627 H 3000.51 3.68227 0.660276 0
M  V30 33628 H 3001.85 4.84122 0.888092 0
M  V30 33629 N 3003.5 -0.038404 1.57553 0
M  V30 33630 C 3004.41 -1.05906 2.09335 0
M  V30 33631 C 3005.43 -1.40245 1.02992 0
M  V30 33632 O 3006.6 -1.49752 1.34671 0
M  V30 33633 C 3003.67 -2.34382 2.55472 0
M  V30 33634 C 3002.73 -2.0671 3.76257 0
M  V30 33635 C 3001.96 -3.2906 4.20185 0
M  V30 33636 O 3002.18 -4.39401 3.63708 0
M  V30 33637 O 3001.12 -3.15308 5.12703 0
M  V30 33638 H 3004.94 -0.649035 2.96684 0
M  V30 33639 H 3002.53 -0.254776 1.47212 0
M  V30 33640 H 3004.41 -3.0993 2.85519 0
M  V30 33641 H 3003.09 -2.74698 1.71238 0
M  V30 33642 H 3001.99 -1.2876 3.51243 0
M  V30 33643 H 3003.33 -1.71255 4.61446 0
M  V30 33644 N 3004.98 -1.54511 -0.310498 0
M  V30 33645 C 3006.23 -1.72551 -1.04447 0
M  V30 33646 C 3006.54 -0.513205 -1.88747 0
M  V30 33647 O 3007.75 -0.575212 -2.65337 0
M  V30 33648 C 3006.2 -3.05249 -1.9066 0
M  V30 33649 C 3005.81 -4.33927 -1.11407 0
M  V30 33650 C 3007.55 -3.32649 -2.63713 0
M  V30 33651 C 3005.46 -5.5768 -1.96842 0
M  V30 33652 H 3004.39 -0.643074 -0.393665 0
M  V30 33653 H 3007.04 -1.80998 -0.301972 0
M  V30 33654 H 3005.42 -2.90742 -2.68859 0
M  V30 33655 H 3006.6 -4.5924 -0.378875 0
M  V30 33656 H 3004.91 -4.1339 -0.49978 0
M  V30 33657 H 3007.51 -4.22306 -3.27966 0
M  V30 33658 H 3007.85 -2.51104 -3.32043 0
M  V30 33659 H 3008.39 -3.48084 -1.92568 0
M  V30 33660 H 3005.12 -6.41866 -1.32998 0
M  V30 33661 H 3004.64 -5.36567 -2.6806 0
M  V30 33662 H 3006.32 -5.94579 -2.55117 0
M  V30 33663 N 3006.46 0.573222 -1.46806 0
M  V30 33664 C 3007.87 0.897554 -1.3197 0
M  V30 33665 C 3008.07 1.99281 -0.298206 0
M  V30 33666 O 3007.13 2.5076 0.295909 0
M  V30 33667 C 3008.44 1.30593 -2.70861 0
M  V30 33668 C 3009.99 1.41825 -2.79024 0
M  V30 33669 C 3010.46 1.86025 -4.18519 0
M  V30 33670 N 3011.95 1.93203 -4.20983 0
M  V30 33671 C 3012.69 2.28698 -5.25818 0
M  V30 33672 N 3012.19 2.62919 -6.40972 0
M  V30 33673 N 3013.98 2.29334 -5.13188 0
M  V30 33674 H 3006.13 -0.150131 -2.11869 0
M  V30 33675 H 3008.39 -0.00449562 -0.947989 0
M  V30 33676 H 3008.1 0.5751 -3.46966 0
M  V30 33677 H 3007.97 2.26548 -3.01589 0
M  V30 33678 H 3010.36 2.13993 -2.03202 0
M  V30 33679 H 3010.44 0.440979 -2.5197 0
M  V30 33680 H 3010.08 1.14433 -4.94841 0
M  V30 33681 H 3010.01 2.84728 -4.42987 0
M  V30 33682 H 3012.51 1.69208 -3.37901 0
M  V30 33683 H 3012.82 2.88984 -7.16734 0
M  V30 33684 H 3011.16 2.60535 -6.44318 0
M  V30 33685 H 3014.35 2.02029 -4.22258 0
M  V30 33686 H 3014.53 2.56668 -5.95 0
M  V30 33687 N 3007.93 1.3467 0.818645 0
M  V30 33688 C 3009.18 1.26607 1.57014 0
M  V30 33689 C 3009.5 -0.161002 1.94936 0
M  V30 33690 O 3010.7 -0.363812 2.69051 0
M  V30 33691 C 3009.16 2.21965 2.83301 0
M  V30 33692 C 3008.77 3.69952 2.52664 0
M  V30 33693 C 3010.51 2.22819 3.6132 0
M  V30 33694 C 3008.42 4.57167 3.7517 0
M  V30 33695 H 3007.35 0.470345 0.589315 0
M  V30 33696 H 3010 1.59861 0.900928 0
M  V30 33697 H 3008.38 1.81667 3.51871 0
M  V30 33698 H 3009.55 4.18813 1.92178 0
M  V30 33699 H 3007.87 3.71588 1.87914 0
M  V30 33700 H 3010.47 2.852 4.52289 0
M  V30 33701 H 3010.81 1.22864 3.97756 0
M  V30 33702 H 3011.34 2.61583 2.99698 0
M  V30 33703 H 3008.08 5.58074 3.43851 0
M  V30 33704 H 3007.6 4.13039 4.34924 0
M  V30 33705 H 3009.28 4.71988 4.42534 0
M  V30 33706 N 3009.41 -1.03936 1.1847 0
M  V30 33707 C 3010.66 -1.77421 0.982317 0
M  V30 33708 C 3010.99 -1.88001 -0.486757 0
M  V30 33709 O 3010.27 -1.38907 -1.36143 0
M  V30 33710 C 3010.55 -3.2062 1.63935 0
M  V30 33711 C 3010.4 -3.17976 3.18137 0
M  V30 33712 C 3011.72 -4.18765 1.35367 0
M  V30 33713 H 3008.84 -0.644056 0.358275 0
M  V30 33714 H 3011.48 -1.21402 1.46156 0
M  V30 33715 H 3009.63 -3.68453 1.23186 0
M  V30 33716 H 3011.3 -2.78123 3.68029 0
M  V30 33717 H 3009.55 -2.55972 3.50229 0
M  V30 33718 H 3010.22 -4.19101 3.59247 0
M  V30 33719 H 3012.69 -3.79485 1.70676 0
M  V30 33720 H 3011.57 -5.17175 1.83905 0
M  V30 33721 H 3011.83 -4.41233 0.2768 0
M  V30 33722 N 3010.89 -0.986938 -1.22871 0
M  V30 33723 C 3011.85 -0.537481 -2.22809 0
M  V30 33724 C 3012.85 0.376432 -1.56332 0
M  V30 33725 O 3014.04 0.169216 -1.73376 0
M  V30 33726 C 3011.17 0.219022 -3.40196 0
M  V30 33727 H 3012.37 -1.42121 -2.64087 0
M  V30 33728 H 3009.92 -0.773512 -1.35818 0
M  V30 33729 H 3010.66 1.119 -3.04383 0
M  V30 33730 H 3010.44 -0.437095 -3.89656 0
M  V30 33731 H 3011.93 0.521853 -4.14327 0
M  V30 33732 N 3012.37 1.38098 -0.759394 0
M  V30 33733 C 3013.31 2.30402 -0.135549 0
M  V30 33734 C 3014.28 1.50474 0.703329 0
M  V30 33735 O 3015.47 1.79086 0.658255 0
M  V30 33736 C 3012.61 3.36915 0.747169 0
M  V30 33737 C 3011.72 4.31868 -0.106969 0
M  V30 33738 C 3010.86 5.25453 0.779296 0
M  V30 33739 C 3009.9 6.1205 -0.0781255 0
M  V30 33740 N 3009.03 6.97915 0.765423 0
M  V30 33741 H 3013.87 2.83174 -0.928249 0
M  V30 33742 H 3011.41 1.39411 -0.469374 0
M  V30 33743 H 3013.37 3.97284 1.27364 0
M  V30 33744 H 3012 2.85538 1.50559 0
M  V30 33745 H 3011.05 3.7291 -0.751129 0
M  V30 33746 H 3012.36 4.92838 -0.768884 0
M  V30 33747 H 3011.52 5.90966 1.37272 0
M  V30 33748 H 3010.26 4.64863 1.47493 0
M  V30 33749 H 3009.26 5.45526 -0.684174 0
M  V30 33750 H 3010.49 6.7471 -0.770905 0
M  V30 33751 H 3008.43 6.39867 1.4459 0
M  V30 33752 H 3008.35 7.5583 0.160533 0
M  V30 33753 H 3009.62 7.67833 1.34363 0
M  V30 33754 N 3013.85 0.508932 1.49156 0
M  V30 33755 C 3014.76 -0.269615 2.33046 0
M  V30 33756 C 3015.77 -0.959637 1.45145 0
M  V30 33757 O 3016.95 -0.939264 1.78157 0
M  V30 33758 C 3014.01 -1.31548 3.20774 0
M  V30 33759 C 3013.07 -0.638056 4.24532 0
M  V30 33760 C 3012.31 -1.63409 5.08068 0
M  V30 33761 O 3012.53 -2.86474 4.93243 0
M  V30 33762 O 3011.46 -1.18505 5.90119 0
M  V30 33763 H 3015.29 0.417236 3.0082 0
M  V30 33764 H 3012.87 0.270145 1.46937 0
M  V30 33765 H 3014.76 -1.9204 3.75098 0
M  V30 33766 H 3013.43 -1.98512 2.55685 0
M  V30 33767 H 3012.34 0.00680933 3.74099 0
M  V30 33768 H 3013.67 -0.010729 4.92199 0
M  V30 33769 N 3015.32 -1.55714 0.243111 0
M  V30 33770 C 3016.74 -1.59208 -0.111825 0
M  V30 33771 C 3016.94 -1.26023 -1.57228 0
M  V30 33772 O 3016 -1.00573 -2.31606 0
M  V30 33773 C 3017.31 -2.99789 0.233938 0
M  V30 33774 C 3018.86 -3.12494 0.177928 0
M  V30 33775 C 3019.33 -4.55288 0.49767 0
M  V30 33776 N 3020.82 -4.61028 0.44803 0
M  V30 33777 C 3021.56 -5.69488 0.668645 0
M  V30 33778 N 3021.05 -6.86225 0.952185 0
M  V30 33779 N 3022.85 -5.58893 0.59961 0
M  V30 33780 H 3015 -1.75556 1.19558 0
M  V30 33781 H 3017.26 -0.81704 0.48078 0
M  V30 33782 H 3016.97 -3.28797 1.24841 0
M  V30 33783 H 3016.84 -3.74616 -0.44078 0
M  V30 33784 H 3019.23 -2.83269 -0.827213 0
M  V30 33785 H 3019.31 -2.3995 0.886441 0
M  V30 33786 H 3018.95 -4.85234 1.50035 0
M  V30 33787 H 3018.88 -5.26087 -0.232279 0
M  V30 33788 H 3021.37 -3.77153 0.237454 0
M  V30 33789 H 3021.69 -7.64815 1.10805 0
M  V30 33790 H 3020.03 -6.87918 0.989617 0
M  V30 33791 H 3023.22 -4.6657 0.37817 0
M  V30 33792 H 3023.4 -6.4335 0.774941 0
M  V30 33793 N 3016.8 0.030048 -1.57571 0
M  V30 33794 C 3018.08 0.756415 -1.80382 0
M  V30 33795 C 3018.46 1.93627 -0.84094 0
M  V30 33796 O 3017.81 2.282 0.117103 0
M  V30 33797 C 3018.02 1.19037 -3.28072 0
M  V30 33798 C 3019.37 1.60669 -3.93028 0
M  V30 33799 O 3020.39 1.28498 -3.32215 0
M  V30 33800 O 3019.25 2.20377 -5.00096 0
M  V30 33801 H 3016.34 0.365712 -0.741744 0
M  V30 33802 H 3018.89 0.00690194 -1.69699 0
M  V30 33803 H 3017.66 0.348059 -3.89749 0
M  V30 33804 H 3017.28 1.99993 -3.4364 0
M  V30 33805 N 3018.28 1.54674 0.3023 0
M  V30 33806 C 3019.19 1.8859 1.39539 0
M  V30 33807 C 3020.21 0.779922 1.55542 0
M  V30 33808 O 3021.38 1.07626 1.70231 0
M  V30 33809 C 3018.45 2.12509 2.73936 0
M  V30 33810 C 3017.51 3.36225 2.66929 0
M  V30 33811 C 3016.74 3.58994 3.94917 0
M  V30 33812 O 3016.96 2.84798 4.94213 0
M  V30 33813 O 3015.9 4.52508 3.96889 0
M  V30 33814 H 3019.72 2.81581 1.13779 0
M  V30 33815 H 3017.31 1.40847 0.498245 0
M  V30 33816 H 3019.19 2.2945 3.53456 0
M  V30 33817 H 3017.87 1.22703 2.99542 0
M  V30 33818 H 3016.77 3.24649 1.85886 0
M  V30 33819 H 3018.11 4.26156 2.46276 0
M  V30 33820 N 3019.76 -0.565428 1.47108 0
M  V30 33821 C 3020.69 -1.68307 1.61849 0
M  V30 33822 C 3021.67 -1.6353 0.468187 0
M  V30 33823 O 3022.85 -1.81279 0.696536 0
M  V30 33824 C 3019.98 -3.06949 1.6248 0
M  V30 33825 C 3018.94 -3.26568 2.76654 0
M  V30 33826 C 3018.26 -4.65913 2.62353 0
M  V30 33827 C 3019.56 -3.12733 4.18324 0
M  V30 33828 H 3021.26 -1.56226 2.55409 0
M  V30 33829 H 3018.8 -0.750157 1.22917 0
M  V30 33830 H 3020.76 -3.84974 1.71385 0
M  V30 33831 H 3019.48 -3.1997 0.654748 0
M  V30 33832 H 3018.14 -2.50948 2.67247 0
M  V30 33833 H 3017.79 -4.75722 1.63394 0
M  V30 33834 H 3017.49 -4.7999 3.38945 0
M  V30 33835 H 3019.01 -5.46084 2.73175 0
M  V30 33836 H 3020.43 -3.80585 4.28752 0
M  V30 33837 H 3018.82 -3.38324 4.95638 0
M  V30 33838 H 3019.89 -2.09584 4.37267 0
M  V30 33839 N 3021.24 -1.35102 -0.811492 0
M  V30 33840 C 3022.65 -1.15033 -1.10632 0
M  V30 33841 C 3022.85 0.0405025 -2.01459 0
M  V30 33842 O 3021.91 0.712592 -2.42236 0
M  V30 33843 C 3023.22 -2.451 -1.74203 0
M  V30 33844 C 3024.77 -2.51262 -1.86645 0
M  V30 33845 C 3025.24 -3.81359 -2.53632 0
M  V30 33846 N 3026.74 -3.82583 -2.61121 0
M  V30 33847 C 3027.47 -4.79974 -3.13708 0
M  V30 33848 N 3026.97 -5.87751 -3.66771 0
M  V30 33849 N 3028.76 -4.67416 -3.12216 0
M  V30 33850 H 3020.91 -2.11383 -0.207604 0
M  V30 33851 H 3023.17 -0.935296 -0.154681 0
M  V30 33852 H 3022.88 -3.32391 -1.1493 0
M  V30 33853 H 3022.75 -2.59286 -2.73954 0
M  V30 33854 H 3025.14 -1.64402 -2.45063 0
M  V30 33855 H 3025.22 -2.40994 -0.857636 0
M  V30 33856 H 3024.87 -4.68614 -1.95865 0
M  V30 33857 H 3024.8 -3.88914 -3.5504 0
M  V30 33858 H 3027.29 -3.04707 -2.23522 0
M  V30 33859 H 3027.6 -6.58063 -4.05183 0
M  V30 33860 H 3025.94 -5.91449 -3.64983 0
M  V30 33861 H 3029.14 -3.82359 -2.70035 0
M  V30 33862 H 3029.31 -5.4348 -3.52893 0
M  V30 33863 N 3022.71 1.03306 -1.19019 0
M  V30 33864 C 3024.13 1.28871 -0.941506 0
M  V30 33865 C 3024.33 1.97718 0.388553 0
M  V30 33866 O 3023.39 2.26248 1.12107 0
M  V30 33867 C 3024.7 2.13993 -2.11253 0
M  V30 33868 C 3026.25 2.27314 -2.15168 0
M  V30 33869 C 3026.72 3.15805 -3.31709 0
M  V30 33870 N 3028.21 3.23394 -3.31619 0
M  V30 33871 C 3028.95 3.92042 -4.18438 0
M  V30 33872 N 3028.44 4.62957 -5.15405 0
M  V30 33873 N 3030.24 3.88399 -4.06328 0
M  V30 33874 H 3022.39 0.570307 -2.046 0
M  V30 33875 H 3024.65 0.314216 -0.894412 0
M  V30 33876 H 3024.36 1.70722 -3.07485 0
M  V30 33877 H 3024.23 3.14694 -2.07961 0
M  V30 33878 H 3026.62 2.69818 -1.19509 0
M  V30 33879 H 3026.7 1.26178 -2.22515 0
M  V30 33880 H 3026.34 2.74011 -4.27645 0
M  V30 33881 H 3026.27 4.16991 -3.21599 0
M  V30 33882 H 3028.76 2.72884 -2.61425 0
M  V30 33883 H 3029.08 5.12958 -5.78009 0
M  V30 33884 H 3027.42 4.61836 -5.19357 0
M  V30 33885 H 3030.61 3.32135 -3.29855 0
M  V30 33886 H 3030.79 4.41627 -4.74204 0
M  V30 33887 N 3024.19 0.99344 1.22346 0
M  V30 33888 C 3025.44 0.665053 1.9042 0
M  V30 33889 C 3025.75 -0.80648 1.782 0
M  V30 33890 O 3026.96 -1.24647 2.41196 0
M  V30 33891 C 3025.42 1.13899 3.41401 0
M  V30 33892 C 3025.02 2.63579 3.62257 0
M  V30 33893 C 3026.77 0.884957 4.15173 0
M  V30 33894 C 3024.68 3.04573 5.06941 0
M  V30 33895 H 3023.61 0.245049 0.713069 0
M  V30 33896 H 3026.26 1.20307 1.38558 0
M  V30 33897 H 3024.64 0.529096 3.92449 0
M  V30 33898 H 3025.81 3.29918 3.21699 0
M  V30 33899 H 3024.13 2.8687 3.01819 0
M  V30 33900 H 3026.72 1.16693 5.21811 0
M  V30 33901 H 3027.07 -0.178909 4.15915 0
M  V30 33902 H 3027.6 1.45707 3.70154 0
M  V30 33903 H 3024.34 4.10137 5.11339 0
M  V30 33904 H 3023.86 2.42937 5.48399 0
M  V30 33905 H 3025.54 2.95904 5.75369 0
M  V30 33906 N 3025.67 -1.37693 0.766707 0
M  V30 33907 C 3026.62 -2.30326 0.147766 0
M  V30 33908 C 3027.59 -1.50845 -0.695339 0
M  V30 33909 O 3028.77 -1.79432 -0.648749 0
M  V30 33910 C 3025.91 -3.37306 -0.729291 0
M  V30 33911 C 3025.03 -4.31805 0.12987 0
M  V30 33912 C 3024.16 -5.25858 -0.751419 0
M  V30 33913 C 3023.2 -6.12 0.110583 0
M  V30 33914 N 3022.34 -6.98311 -0.7284 0
M  V30 33915 H 3027.18 -2.82678 0.943254 0
M  V30 33916 H 3024.71 -1.3916 0.476761 0
M  V30 33917 H 3026.67 -3.97953 -1.25256 0
M  V30 33918 H 3025.3 -2.86332 -1.49043 0
M  V30 33919 H 3024.35 -3.72507 0.770895 0
M  V30 33920 H 3025.67 -4.92424 0.79501 0
M  V30 33921 H 3024.82 -5.91686 -1.34136 0
M  V30 33922 H 3023.56 -4.65638 -1.45025 0
M  V30 33923 H 3022.56 -5.45156 0.713094 0
M  V30 33924 H 3023.79 -6.74292 0.806676 0
M  V30 33925 H 3021.73 -6.40625 -1.41194 0
M  V30 33926 H 3021.65 -7.55904 -0.120447 0
M  V30 33927 H 3022.92 -7.68534 -1.30289 0
M  V30 33928 N 3027.15 -0.516835 -1.48884 0
M  V30 33929 C 3028.06 0.257252 -2.33185 0
M  V30 33930 C 3029.07 0.951926 -1.45652 0
M  V30 33931 O 3030.25 0.929803 -1.78652 0
M  V30 33932 C 3027.32 1.29845 -3.21467 0
M  V30 33933 C 3026.38 0.615533 -4.24864 0
M  V30 33934 C 3025.61 1.60713 -5.08927 0
M  V30 33935 O 3025.83 2.83854 -4.94755 0
M  V30 33936 O 3024.77 1.15374 -5.90739 0
M  V30 33937 H 3028.59 -0.433183 -3.00595 0
M  V30 33938 H 3026.18 -0.277934 -1.46792 0
M  V30 33939 H 3028.06 1.90048 -3.76111 0
M  V30 33940 H 3026.73 1.97153 -2.56734 0
M  V30 33941 H 3025.64 -0.0266486 -3.74091 0
M  V30 33942 H 3026.97 -0.0153736 -4.92198 0
M  V30 33943 N 3028.63 1.55583 -0.251365 0
M  V30 33944 C 3029.85 2.03906 0.3791 0
M  V30 33945 C 3030.28 1.12931 1.50426 0
M  V30 33946 O 3029.63 0.123146 1.80881 0
M  V30 33947 C 3029.68 3.50194 0.860028 0
M  V30 33948 O 3028.79 3.62345 1.96926 0
M  V30 33949 H 3028.13 0.658916 0.0820067 0
M  V30 33950 H 3030.66 2.01064 -0.378727 0
M  V30 33951 H 3030.67 3.91101 1.16207 0
M  V30 33952 H 3029.34 4.15884 0.0366828 0
M  V30 33953 H 3027.92 3.33336 1.67157 0
M  V30 33954 N 3030.1 -0.0216912 1.57585 0
M  V30 33955 C 3031.03 -1.01935 2.10075 0
M  V30 33956 C 3032.02 -1.37242 1.00493 0
M  V30 33957 O 3033.2 -1.45997 1.28057 0
M  V30 33958 C 3030.33 -2.31801 2.58622 0
M  V30 33959 C 3029.28 -2.10717 3.72535 0
M  V30 33960 C 3028.61 -3.46408 4.07315 0
M  V30 33961 C 3029.91 -1.48734 5.00675 0
M  V30 33962 H 3031.6 -0.582381 2.93681 0
M  V30 33963 H 3029.15 -0.27869 1.41277 0
M  V30 33964 H 3031.1 -3.01931 2.93966 0
M  V30 33965 H 3029.83 -2.77572 1.72109 0
M  V30 33966 H 3028.49 -1.43019 3.37552 0
M  V30 33967 H 3028.13 -3.89841 3.17857 0
M  V30 33968 H 3027.83 -3.33123 4.84048 0
M  V30 33969 H 3029.36 -4.17887 4.45199 0
M  V30 33970 H 3030.77 -2.08791 5.33928 0
M  V30 33971 H 3029.17 -1.46003 5.82068 0
M  V30 33972 H 3030.24 -0.453995 4.8277 0
M  V30 33973 N 3031.58 -1.54832 -0.294093 0
M  V30 33974 C 3032.53 -1.8626 -1.36293 0
M  V30 33975 C 3033.5 -0.712124 -1.5006 0
M  V30 33976 O 3034.69 -0.96141 -1.64808 0
M  V30 33977 C 3031.83 -2.12156 -2.72184 0
M  V30 33978 C 3030.94 -3.39759 -2.6681 0
M  V30 33979 C 3030.07 -3.55462 -3.94741 0
M  V30 33980 C 3029.11 -4.76833 -3.83792 0
M  V30 33981 N 3028.25 -4.89305 -5.03513 0
M  V30 33982 H 3033.09 -2.77432 -1.08791 0
M  V30 33983 H 3030.63 -1.37372 -0.526045 0
M  V30 33984 H 3032.58 -2.25166 -3.51221 0
M  V30 33985 H 3031.21 -1.24243 -2.97932 0
M  V30 33986 H 3030.27 -3.35333 -1.79599 0
M  V30 33987 H 3031.58 -4.28922 -2.54612 0
M  V30 33988 H 3030.73 -3.68175 -4.82216 0
M  V30 33989 H 3029.47 -2.64446 -4.0978 0
M  V30 33990 H 3028.48 -4.64146 -2.947 0
M  V30 33991 H 3029.7 -5.69264 -3.70291 0
M  V30 33992 H 3027.65 -4.01213 -5.19003 0
M  V30 33993 H 3027.56 -5.72479 -4.93765 0
M  V30 33994 H 3028.83 -5.06381 -5.9262 0
M  V30 33995 N 3033.06 0.557619 -1.47405 0
M  V30 33996 C 3033.99 1.68034 -1.54402 0
M  V30 33997 C 3034.97 1.57699 -0.396203 0
M  V30 33998 O 3036.16 1.78563 -0.603942 0
M  V30 33999 C 3033.28 3.06274 -1.44617 0
M  V30 34000 C 3032.33 3.35055 -2.63895 0
M  V30 34001 S 3033.16 3.24355 -4.26092 0
M  V30 34002 C 3034.32 4.6509 -4.18859 0
M  V30 34003 H 3034.55 1.61845 -2.49387 0
M  V30 34004 H 3032.08 0.738405 -1.35598 0
M  V30 34005 H 3034.04 3.86013 -1.39658 0
M  V30 34006 H 3032.7 3.09929 -0.510169 0
M  V30 34007 H 3031.9 4.35834 -2.53111 0
M  V30 34008 H 3031.5 2.62934 -2.65973 0
M  V30 34009 H 3033.79 5.5603 -3.87087 0
M  V30 34010 H 3034.73 4.80931 -5.19722 0
M  V30 34011 H 3035.14 4.43117 -3.49725 0
M  V30 34012 N 3034.54 1.35531 0.804316 0
M  V30 34013 C 3035.45 1.30756 1.94782 0
M  V30 34014 C 3036.47 0.212102 1.72702 0
M  V30 34015 O 3037.64 0.441875 1.96493 0
M  V30 34016 C 3034.71 1.08139 3.29404 0
M  V30 34017 C 3033.77 2.27019 3.64363 0
M  V30 34018 C 3033 2.05471 4.92562 0
M  V30 34019 O 3033.22 1.02231 5.61164 0
M  V30 34020 O 3032.16 2.92889 5.25833 0
M  V30 34021 H 3035.98 2.26998 2.01757 0
M  V30 34022 H 3033.57 1.15925 0.942428 0
M  V30 34023 H 3035.45 0.973828 4.09993 0
M  V30 34024 H 3034.13 0.149501 3.23355 0
M  V30 34025 H 3033.03 2.4334 2.84141 0
M  V30 34026 H 3034.37 3.18663 3.7512 0
M  V30 34027 N 3036.02 -1.02674 1.19565 0
M  V30 34028 C 3037.43 -1.2837 0.948327 0
M  V30 34029 C 3037.63 -1.97922 -0.378062 0
M  V30 34030 O 3036.69 -2.2684 -1.10906 0
M  V30 34031 C 3038 -2.12869 2.12384 0
M  V30 34032 C 3039.55 -2.2617 2.1637 0
M  V30 34033 C 3040.03 -3.14042 3.33379 0
M  V30 34034 N 3041.52 -3.2163 3.33329 0
M  V30 34035 C 3042.25 -3.89818 4.20511 0
M  V30 34036 N 3041.75 -4.60218 5.17853 0
M  V30 34037 N 3043.54 -3.86239 4.08382 0
M  V30 34038 H 3035.69 -0.559448 2.049 0
M  V30 34039 H 3037.95 -0.309469 0.896065 0
M  V30 34040 H 3037.66 -1.69089 3.08386 0
M  V30 34041 H 3037.53 -3.13587 2.09627 0
M  V30 34042 H 3039.92 -2.6918 1.20938 0
M  V30 34043 H 3040 -1.24996 2.23181 0
M  V30 34044 H 3039.65 -2.7174 4.29092 0
M  V30 34045 H 3039.58 -4.1528 3.23806 0
M  V30 34046 H 3042.07 -2.71494 2.62868 0
M  V30 34047 H 3042.38 -5.09885 5.80721 0
M  V30 34048 H 3040.73 -4.59076 5.21799 0
M  V30 34049 H 3043.92 -3.30381 3.31612 0
M  V30 34050 H 3044.09 -4.39106 4.7654 0
M  V30 34051 N 3037.5 -0.999914 -1.21817 0
M  V30 34052 C 3038.77 -0.595417 -1.86317 0
M  V30 34053 C 3039.15 0.927109 -1.89652 0
M  V30 34054 O 3038.5 1.81196 -1.39213 0
M  V30 34055 C 3038.71 -1.22393 -3.26835 0
M  V30 34056 C 3040.06 -1.32885 -4.0327 0
M  V30 34057 O 3041.08 -1.17886 -3.36127 0
M  V30 34058 O 3039.94 -1.56961 -5.23474 0
M  V30 34059 H 3037.04 -0.203252 -0.801634 0
M  V30 34060 H 3039.58 -1.09624 -1.2954 0
M  V30 34061 H 3038.35 -2.26503 -3.1908 0
M  V30 34062 H 3037.98 -0.709138 -3.91225 0
M  V30 34063 N 3038.97 1.37284 -0.773999 0
M  V30 34064 C 3039.91 2.28886 -0.119978 0
M  V30 34065 C 3040.92 1.48742 0.661796 0
M  V30 34066 O 3042.11 1.71368 0.499518 0
M  V30 34067 C 3039.21 3.27973 0.853645 0
M  V30 34068 C 3038.38 4.37221 0.125209 0
M  V30 34069 C 3037.44 5.16367 1.01252 0
M  V30 34070 O 3036.47 5.67211 0.475465 0
M  V30 34071 N 3037.67 5.31312 2.33855 0
M  V30 34072 H 3040.43 2.85654 -0.906752 0
M  V30 34073 H 3037.99 1.49285 -0.626545 0
M  V30 34074 H 3039.99 3.77804 1.45073 0
M  V30 34075 H 3038.56 2.71957 1.54138 0
M  V30 34076 H 3037.78 3.88757 -0.652811 0
M  V30 34077 H 3039.06 5.07394 -0.378048 0
M  V30 34078 H 3038.46 4.9159 2.79921 0
M  V30 34079 H 3037.02 5.84443 2.88565 0
M  V30 34080 N 3040.45 0.524724 1.48608 0
M  V30 34081 C 3041.7 -0.0112858 2.02497 0
M  V30 34082 C 3042.03 -1.34779 1.40232 0
M  V30 34083 O 3041.28 -1.88228 0.535603 0
M  V30 34084 C 3041.58 -0.18781 3.56906 0
M  V30 34085 C 3041.25 1.07367 4.37931 0
M  V30 34086 C 3039.91 1.41941 4.59789 0
M  V30 34087 C 3042.26 1.91108 4.84899 0
M  V30 34088 C 3039.59 2.60163 5.25863 0
M  V30 34089 C 3041.94 3.08504 5.52275 0
M  V30 34090 C 3040.6 3.4343 5.72374 0
M  V30 34091 H 3039.87 -0.00412977 0.740988 0
M  V30 34092 H 3042.52 0.689684 1.78649 0
M  V30 34093 H 3040.83 -0.971505 3.79564 0
M  V30 34094 H 3042.52 -0.617373 3.96219 0
M  V30 34095 H 3039.11 0.794405 4.21174 0
M  V30 34096 H 3043.3 1.65709 4.67818 0
M  V30 34097 H 3038.55 2.87431 5.39623 0
M  V30 34098 H 3042.73 3.73702 5.87639 0
M  V30 34099 H 3040.35 4.35137 6.23346 0
M  V30 34100 N 3041.93 -1.55447 0.259613 0
M  V30 34101 C 3043.18 -1.98423 -0.362128 0
M  V30 34102 C 3043.49 -1.15123 -1.58133 0
M  V30 34103 O 3044.7 -1.4817 -2.27504 0
M  V30 34104 C 3043.15 -3.53113 -0.69566 0
M  V30 34105 C 3042.76 -4.45169 0.502862 0
M  V30 34106 C 3044.51 -4.04714 -1.28089 0
M  V30 34107 C 3042.41 -5.91223 0.144778 0
M  V30 34108 H 3041.34 -0.741062 -0.139079 0
M  V30 34109 H 3043.99 -1.79897 0.36183 0
M  V30 34110 H 3042.38 -3.6738 -1.4781 0
M  V30 34111 H 3043.55 -4.42665 1.28001 0
M  V30 34112 H 3041.86 -4.04118 1.00388 0
M  V30 34113 H 3044.46 -5.11366 -1.56234 0
M  V30 34114 H 3044.8 -3.52819 -2.20962 0
M  V30 34115 H 3045.34 -3.93823 -0.561077 0
M  V30 34116 H 3042.08 -6.47181 1.04099 0
M  V30 34117 H 3041.6 -5.96832 -0.595918 0
M  V30 34118 H 3043.28 -6.46442 -0.268537 0
M  V30 34119 N 3043.41 0.0133338 -1.57594 0
M  V30 34120 C 3044.37 0.993763 -2.06536 0
M  V30 34121 C 3045.37 1.28075 -0.972289 0
M  V30 34122 O 3046.56 1.22816 -1.23539 0
M  V30 34123 C 3043.69 2.32236 -2.49558 0
M  V30 34124 H 3044.89 0.570689 -2.9442 0
M  V30 34125 H 3042.44 0.260519 -1.54114 0
M  V30 34126 H 3043.17 2.7926 -1.64877 0
M  V30 34127 H 3042.96 2.12731 -3.29375 0
M  V30 34128 H 3044.45 3.02595 -2.87795 0
M  V30 34129 N 3044.89 1.54985 0.285878 0
M  V30 34130 C 3046.11 1.78994 1.03773 0
M  V30 34131 C 3046.53 0.556845 1.80401 0
M  V30 34132 O 3045.89 -0.47377 1.76243 0
M  V30 34133 C 3045.94 3.00706 2.00645 0
M  V30 34134 O 3045.66 4.19251 1.27123 0
M  V30 34135 C 3047.16 3.37219 2.87747 0
M  V30 34136 H 3044.38 0.596591 0.307115 0
M  V30 34137 H 3046.92 2.01972 0.320564 0
M  V30 34138 H 3045.08 2.79891 2.67843 0
M  V30 34139 H 3045.49 4.87974 1.92307 0
M  V30 34140 H 3046.97 4.25586 3.51541 0
M  V30 34141 H 3047.44 2.56045 3.56844 0
M  V30 34142 H 3048.05 3.60246 2.26059 0
M  V30 34143 N 3046.36 -0.549794 1.47699 0
M  V30 34144 C 3047.29 -1.6658 1.63625 0
M  V30 34145 C 3048.28 -1.63024 0.485506 0
M  V30 34146 O 3049.46 -1.8053 0.715723 0
M  V30 34147 C 3046.59 -3.05208 1.65726 0
M  V30 34148 C 3045.54 -3.23615 2.80102 0
M  V30 34149 C 3044.87 -4.63104 2.6728 0
M  V30 34150 C 3046.17 -3.08279 4.21618 0
M  V30 34151 H 3047.86 -1.53508 2.57052 0
M  V30 34152 H 3045.41 -0.737078 1.23706 0
M  V30 34153 H 3047.36 -3.83135 1.75458 0
M  V30 34154 H 3046.09 -3.19257 0.688649 0
M  V30 34155 H 3044.75 -2.48099 2.69893 0
M  V30 34156 H 3044.39 -4.73962 1.68431 0
M  V30 34157 H 3044.09 -4.76368 3.44017 0
M  V30 34158 H 3045.62 -5.43156 2.78951 0
M  V30 34159 H 3047.03 -3.76016 4.32764 0
M  V30 34160 H 3045.43 -3.33048 4.99198 0
M  V30 34161 H 3046.5 -2.04934 4.39465 0
M  V30 34162 N 3047.84 -1.35955 -0.797117 0
M  V30 34163 C 3049.26 -1.162 -1.09406 0
M  V30 34164 C 3049.46 0.0191328 -2.01491 0
M  V30 34165 O 3048.51 0.68686 -2.42978 0
M  V30 34166 C 3049.83 -2.46934 -1.71593 0
M  V30 34167 C 3051.38 -2.53227 -1.8397 0
M  V30 34168 C 3051.85 -3.84028 -2.49573 0
M  V30 34169 N 3053.34 -3.85331 -2.57049 0
M  V30 34170 C 3054.08 -4.83274 -3.086 0
M  V30 34171 N 3053.57 -5.91608 -3.60517 0
M  V30 34172 N 3055.37 -4.70701 -3.07241 0
M  V30 34173 H 3047.52 -2.11591 -0.185172 0
M  V30 34174 H 3049.78 -0.936884 -0.144752 0
M  V30 34175 H 3049.49 -3.33592 -1.11398 0
M  V30 34176 H 3049.36 -2.62177 -2.71188 0
M  V30 34177 H 3051.75 -1.66992 -2.43306 0
M  V30 34178 H 3051.83 -2.4189 -0.832027 0
M  V30 34179 H 3051.47 -4.70665 -1.90884 0
M  V30 34180 H 3051.4 -3.92657 -3.50895 0
M  V30 34181 H 3053.89 -3.07061 -2.20277 0
M  V30 34182 H 3054.21 -6.62324 -3.9818 0
M  V30 34183 H 3052.55 -5.95287 -3.5869 0
M  V30 34184 H 3055.74 -3.85202 -2.65965 0
M  V30 34185 H 3055.91 -5.47192 -3.47109 0
M  V30 34186 N 3049.32 1.02038 -1.20108 0
M  V30 34187 C 3050.23 2.13965 -0.962089 0
M  V30 34188 C 3051.25 1.73812 0.0807748 0
M  V30 34189 O 3052.42 2.01122 -0.105809 0
M  V30 34190 C 3049.49 3.42881 -0.513169 0
M  V30 34191 C 3048.55 3.97298 -1.62643 0
M  V30 34192 C 3047.78 5.20061 -1.19884 0
M  V30 34193 O 3048 5.70362 -0.0659426 0
M  V30 34194 O 3046.94 5.67532 -2.00477 0
M  V30 34195 H 3050.76 2.36994 -1.89914 0
M  V30 34196 H 3048.35 1.12363 -0.984628 0
M  V30 34197 H 3050.23 4.20522 -0.271871 0
M  V30 34198 H 3048.91 3.21277 0.395345 0
M  V30 34199 H 3047.81 3.20953 -1.92197 0
M  V30 34200 H 3049.15 4.23283 -2.51181 0
M  V30 34201 N 3050.8 1.00636 1.21285 0
M  V30 34202 C 3051.73 0.512726 2.22365 0
M  V30 34203 C 3052.71 -0.434305 1.56693 0
M  V30 34204 O 3053.89 -0.356707 1.85094 0
M  V30 34205 C 3051.02 -0.255079 3.37738 0
M  V30 34206 C 3050.07 0.639957 4.21671 0
M  V30 34207 S 3050.9 2.10316 4.92471 0
M  V30 34208 C 3052.06 1.34523 6.11273 0
M  V30 34209 H 3052.29 1.36922 2.63893 0
M  V30 34210 H 3049.82 0.81441 1.31174 0
M  V30 34211 H 3051.78 -0.691996 4.04625 0
M  V30 34212 H 3050.44 -1.08702 2.94691 0
M  V30 34213 H 3049.63 0.0484706 5.03977 0
M  V30 34214 H 3049.24 1.01421 3.59986 0
M  V30 34215 H 3051.53 0.61984 6.74659 0
M  V30 34216 H 3052.47 2.14405 6.7486 0
M  V30 34217 H 3052.88 0.852605 5.58024 0
M  V30 34218 N 3052.28 -1.36872 0.781268 0
M  V30 34219 C 3053.53 -1.98701 0.346555 0
M  V30 34220 C 3053.84 -1.62714 -1.08552 0
M  V30 34221 O 3055.04 -2.17716 -1.6221 0
M  V30 34222 C 3053.5 -3.55379 0.568673 0
M  V30 34223 C 3053.11 -4.00297 2.01163 0
M  V30 34224 C 3054.85 -4.24038 0.198058 0
M  V30 34225 C 3052.76 -5.49721 2.18084 0
M  V30 34226 H 3051.69 -0.743426 0.125834 0
M  V30 34227 H 3054.34 -1.56278 0.961748 0
M  V30 34228 H 3052.72 -3.9583 -0.116116 0
M  V30 34229 H 3053.9 -3.71066 2.73215 0
M  V30 34230 H 3052.21 -3.4445 2.33973 0
M  V30 34231 H 3054.81 -5.33842 0.302872 0
M  V30 34232 H 3055.15 -4.0747 -0.852855 0
M  V30 34233 H 3055.68 -3.88921 0.835764 0
M  V30 34234 H 3052.42 -5.71226 3.21529 0
M  V30 34235 H 3051.94 -5.80605 1.50527 0
M  V30 34236 H 3053.62 -6.15829 1.98404 0
M  V30 34237 N 3053.75 -0.532597 -1.48328 0
M  V30 34238 C 3054.72 0.218029 -2.28161 0
M  V30 34239 C 3055.72 0.865385 -1.35528 0
M  V30 34240 O 3056.91 0.725033 -1.58395 0
M  V30 34241 C 3054.04 1.31581 -3.14483 0
M  V30 34242 H 3055.23 -0.482917 -2.95986 0
M  V30 34243 H 3052.79 -0.28863 -1.53612 0
M  V30 34244 H 3053.52 2.04992 -2.51294 0
M  V30 34245 H 3053.31 0.856711 -3.82626 0
M  V30 34246 H 3054.8 1.8437 -3.74696 0
M  V30 34247 N 3055.23 1.55307 -0.267853 0
M  V30 34248 C 3056.65 1.59366 0.0864827 0
M  V30 34249 C 3056.85 1.28508 1.55203 0
M  V30 34250 O 3055.9 1.04245 2.29977 0
M  V30 34251 C 3057.22 2.99379 -0.281602 0
M  V30 34252 C 3058.77 3.12171 -0.22762 0
M  V30 34253 C 3059.24 4.54439 -0.570039 0
M  V30 34254 N 3060.73 4.60257 -0.521319 0
M  V30 34255 C 3061.47 5.68352 -0.759161 0
M  V30 34256 N 3060.96 6.84624 -1.06124 0
M  V30 34257 N 3062.76 5.57868 -0.688449 0
M  V30 34258 H 3054.91 1.73631 -1.22335 0
M  V30 34259 H 3057.17 0.809288 -0.493717 0
M  V30 34260 H 3056.88 3.26769 -1.30056 0
M  V30 34261 H 3056.75 3.7527 0.381126 0
M  V30 34262 H 3059.14 2.84549 0.782043 0
M  V30 34263 H 3059.22 2.38509 -0.924503 0
M  V30 34264 H 3058.86 4.82786 -1.57735 0
M  V30 34265 H 3058.79 5.2639 0.148554 0
M  V30 34266 H 3061.28 3.76728 -0.297426 0
M  V30 34267 H 3061.6 7.62956 -1.22958 0
M  V30 34268 H 3059.94 6.86257 -1.09893 0
M  V30 34269 H 3063.13 4.65909 -0.45235 0
M  V30 34270 H 3063.3 6.42035 -0.877194 0
M  V30 34271 N 3056.71 -0.00497598 1.57599 0
M  V30 34272 C 3057.99 -0.727622 1.81563 0
M  V30 34273 C 3058.37 -1.92265 0.871638 0
M  V30 34274 O 3057.72 -2.28357 -0.0807831 0
M  V30 34275 C 3057.93 -1.13803 3.29924 0
M  V30 34276 C 3059.27 -1.54396 3.95534 0
M  V30 34277 O 3060.3 -1.23196 3.34217 0
M  V30 34278 O 3059.16 -2.12393 5.03539 0
M  V30 34279 H 3056.25 -0.353865 0.747468 0
M  V30 34280 H 3058.8 0.0200965 1.69688 0
M  V30 34281 H 3057.57 -0.286009 3.90253 0
M  V30 34282 H 3057.19 -1.94501 3.46778 0
M  V30 34283 N 3058.19 -1.55135 -0.277654 0
M  V30 34284 C 3059.6 -1.4687 -0.624599 0
M  V30 34285 C 3059.8 -0.678992 -1.89715 0
M  V30 34286 O 3058.86 -0.195983 -2.51738 0
M  V30 34287 C 3060.17 -2.91044 -0.755886 0
M  V30 34288 C 3061.72 -3.0123 -0.850246 0
M  V30 34289 C 3062.2 -4.46649 -1.01335 0
M  V30 34290 N 3063.69 -4.50458 -1.07898 0
M  V30 34291 C 3064.42 -5.60186 -1.2239 0
M  V30 34292 N 3063.92 -6.7979 -1.3363 0
M  V30 34293 N 3065.71 -5.47919 -1.25463 0
M  V30 34294 H 3057.86 -2.04936 0.558138 0
M  V30 34295 H 3060.13 -0.929122 0.188245 0
M  V30 34296 H 3059.83 -3.51532 0.108654 0
M  V30 34297 H 3059.71 -3.39796 -1.63764 0
M  V30 34298 H 3062.09 -2.40842 -1.70526 0
M  V30 34299 H 3062.17 -2.55739 0.0560131 0
M  V30 34300 H 3061.82 -5.07638 -0.163013 0
M  V30 34301 H 3061.75 -4.89793 -1.93419 0
M  V30 34302 H 3064.24 -3.64299 -1.0047 0
M  V30 34303 H 3064.55 -7.59169 -1.44509 0
M  V30 34304 H 3062.9 -6.82611 -1.30643 0
M  V30 34305 H 3066.09 -4.5342 -1.16309 0
M  V30 34306 H 3066.26 -6.33479 -1.36413 0
M  V30 34307 N 3059.67 0.541953 -1.47989 0
M  V30 34308 C 3060.6 1.66329 -1.57693 0
M  V30 34309 C 3061.61 1.56106 -0.462022 0
M  V30 34310 O 3062.8 1.62785 -0.732334 0
M  V30 34311 C 3059.9 3.04903 -1.47944 0
M  V30 34312 C 3059.07 3.40728 -2.74269 0
M  V30 34313 C 3058.13 4.5853 -2.58142 0
M  V30 34314 O 3057.16 4.62348 -3.31999 0
M  V30 34315 N 3058.36 5.55969 -1.66969 0
M  V30 34316 H 3061.13 1.58445 -2.54392 0
M  V30 34317 H 3058.69 0.728954 -1.44561 0
M  V30 34318 H 3060.68 3.81566 -1.34867 0
M  V30 34319 H 3059.25 3.0693 -0.59268 0
M  V30 34320 H 3058.47 2.53361 -3.01997 0
M  V30 34321 H 3059.76 3.61444 -3.581 0
M  V30 34322 H 3059.15 5.55653 -1.06144 0
M  V30 34323 H 3057.71 6.31898 -1.59838 0
M  V30 34324 N 3061.15 1.36376 0.789896 0
M  V30 34325 C 3062.09 1.30722 1.92391 0
M  V30 34326 C 3063.09 0.199105 1.68226 0
M  V30 34327 O 3064.29 0.366082 1.76238 0
M  V30 34328 H 3060.67 0.406947 0.632375 0
M  V30 34329 H 3062.64 2.26492 1.94278 0
M  V30 34330 C 3061.39 1.1129 3.29408 0
M  V30 34331 H 3060.71 1.95804 3.4857 0
M  V30 34332 H 3062.15 1.1138 4.09109 0
M  V30 34333 C 3060.61 -0.182484 3.36405 0
M  V30 34334 O 3061.14 -1.17248 3.84208 0
M  V30 34335 N 3059.35 -0.226995 2.89712 0
M  V30 34336 H 3058.89 0.579261 2.51003 0
M  V30 34337 H 3058.85 -1.09339 2.94775 0
M  V30 34338 N 3062.62 -1.014 1.20647 0
M  V30 34339 C 3063.57 -2.08382 0.925245 0
M  V30 34340 C 3064.56 -1.60482 -0.115966 0
M  V30 34341 O 3065.75 -1.76762 0.0917586 0
M  V30 34342 C 3062.88 -3.399 0.481989 0
M  V30 34343 C 3061.96 -3.94494 1.55677 0
M  V30 34344 N 3062.36 -4.22565 2.77979 0
M  V30 34345 C 3060.65 -4.22672 1.42354 0
M  V30 34346 C 3061.35 -4.66626 3.47325 0
M  V30 34347 N 3060.33 -4.69059 2.74744 0
M  V30 34348 H 3064.13 -2.27998 1.85456 0
M  V30 34349 H 3061.65 -1.19393 1.10086 0
M  V30 34350 H 3063.64 -4.16076 0.261909 0
M  V30 34351 H 3062.3 -3.21696 -0.440669 0
M  V30 34352 H 3063.31 -4.11392 3.14606 0
M  V30 34353 H 3059.99 -4.13653 0.56549 0
M  V30 34354 H 3061.38 -4.97143 4.51993 0
M  V30 34355 N 3064.1 -1.01278 -1.2075 0
M  V30 34356 C 3065.03 -0.537956 -2.22797 0
M  V30 34357 C 3066.05 0.377611 -1.5836 0
M  V30 34358 O 3067.24 0.176567 -1.77625 0
M  V30 34359 C 3064.34 0.237305 -3.38068 0
M  V30 34360 C 3063.51 -0.679237 -4.32094 0
M  V30 34361 C 3062.57 0.0477751 -5.26178 0
M  V30 34362 O 3061.59 -0.573465 -5.66304 0
M  V30 34363 N 3062.8 1.32386 -5.65203 0
M  V30 34364 H 3065.56 -1.41554 -2.64164 0
M  V30 34365 H 3063.12 -0.88985 -1.35253 0
M  V30 34366 H 3065.11 0.73281 -3.9801 0
M  V30 34367 H 3063.68 1.01615 -2.95623 0
M  V30 34368 H 3062.9 -1.35511 -3.70176 0
M  V30 34369 H 3064.19 -1.30272 -4.9184 0
M  V30 34370 H 3063.59 1.84958 -5.34609 0
M  V30 34371 H 3062.15 1.76417 -6.27471 0
M  V30 34372 N 3065.58 1.36456 -0.788516 0
M  V30 34373 C 3066.83 1.99561 -0.361031 0
M  V30 34374 C 3067.16 1.62439 1.0643 0
M  V30 34375 O 3066.43 0.878736 1.73518 0
M  V30 34376 C 3066.72 3.5627 -0.523798 0
M  V30 34377 C 3066.57 4.03248 -1.99275 0
M  V30 34378 C 3067.89 4.40057 0.0617135 0
M  V30 34379 H 3065.01 0.724964 -0.132653 0
M  V30 34380 H 3067.65 1.61883 -0.994688 0
M  V30 34381 H 3065.8 3.88497 0.0156296 0
M  V30 34382 H 3067.47 3.81513 -2.59317 0
M  V30 34383 H 3065.71 3.54822 -2.49567 0
M  V30 34384 H 3066.39 5.12217 -2.05761 0
M  V30 34385 H 3068.86 4.14185 -0.398747 0
M  V30 34386 H 3067.74 5.48838 -0.0822053 0
M  V30 34387 H 3068 4.2678 1.15373 0
M  V30 34388 N 3067.06 0.540456 1.48043 0
M  V30 34389 C 3068 -0.216556 2.29782 0
M  V30 34390 C 3068.97 -0.92407 1.38022 0
M  V30 34391 O 3070.16 -0.923049 1.66986 0
M  V30 34392 C 3067.3 -1.25104 3.21625 0
M  V30 34393 C 3066.41 -0.551309 4.28468 0
M  V30 34394 C 3065.55 -1.56963 5.0748 0
M  V30 34395 C 3064.59 -0.853942 6.06114 0
M  V30 34396 N 3063.72 -1.8183 6.78146 0
M  V30 34397 H 3068.56 0.48663 2.94 0
M  V30 34398 H 3066.1 0.251815 1.44929 0
M  V30 34399 H 3068.06 -1.86323 3.73282 0
M  V30 34400 H 3066.69 -1.92248 2.59308 0
M  V30 34401 H 3065.74 0.175049 3.79997 0
M  V30 34402 H 3067.05 0.0101419 4.98799 0
M  V30 34403 H 3066.21 -2.25582 5.63203 0
M  V30 34404 H 3064.95 -2.16499 4.37012 0
M  V30 34405 H 3063.95 -0.153741 5.49585 0
M  V30 34406 H 3065.18 -0.264556 6.78584 0
M  V30 34407 H 3063.12 -2.40254 6.10421 0
M  V30 34408 H 3063.04 -1.30856 7.44589 0
M  V30 34409 H 3064.31 -2.49615 7.38453 0
M  V30 34410 N 3068.54 -1.55163 0.276085 0
M  V30 34411 C 3069.95 -1.85382 -0.221483 0
M  V30 34412 C 3070.3 -1.1981 -1.5537 0
M  V30 34413 O 3069.42 -0.48678 -2.10854 0
M  V30 34414 C 3070.02 -3.36327 -0.408647 0
M  V30 34415 C 3068.58 -3.66667 -0.850447 0
M  V30 34416 C 3067.72 -2.77244 0.0557047 0
M  V30 34417 H 3070.67 -1.50689 0.497845 0
M  V30 34418 H 3070.7 -3.59484 -1.24705 0
M  V30 34419 H 3070.21 -3.84022 0.561119 0
M  V30 34420 H 3068.31 -3.24471 -1.83165 0
M  V30 34421 H 3068.42 -4.74147 -0.687097 0
M  V30 34422 H 3066.79 -2.50497 -0.460775 0
M  V30 34423 H 3067.57 -3.27754 1.02137 0
M  V30 34424 N 3070.01 -0.00338196 -1.576 0
M  V30 34425 C 3070.92 1.00319 -2.12069 0
M  V30 34426 C 3071.94 1.37465 -1.06674 0
M  V30 34427 O 3073.12 1.46129 -1.38594 0
M  V30 34428 C 3070.18 2.27526 -2.61597 0
M  V30 34429 C 3069.24 1.96661 -3.81606 0
M  V30 34430 C 3068.47 3.17804 -4.28761 0
M  V30 34431 O 3068.7 4.29603 -3.7523 0
M  V30 34432 O 3067.63 3.01604 -5.20882 0
M  V30 34433 H 3071.46 0.570147 -2.983 0
M  V30 34434 H 3069.04 0.215656 -1.47835 0
M  V30 34435 H 3070.92 3.02251 -2.93636 0
M  V30 34436 H 3069.6 2.70062 -1.78461 0
M  V30 34437 H 3068.51 1.19402 -3.54534 0
M  V30 34438 H 3069.84 1.5896 -4.65825 0
M  V30 34439 N 3071.49 1.5528 0.269423 0
M  V30 34440 C 3072.44 1.88405 1.33312 0
M  V30 34441 C 3073.41 0.735907 1.48908 0
M  V30 34442 O 3074.59 0.987507 1.63257 0
M  V30 34443 C 3071.73 2.16459 2.68774 0
M  V30 34444 C 3070.85 3.43961 2.61371 0
M  V30 34445 C 3069.98 3.61697 3.89036 0
M  V30 34446 C 3069.02 4.82879 3.76158 0
M  V30 34447 N 3068.16 4.97254 4.95664 0
M  V30 34448 H 3073 2.79128 1.04363 0
M  V30 34449 H 3070.53 1.38192 0.504123 0
M  V30 34450 H 3072.49 2.30725 3.47594 0
M  V30 34451 H 3071.12 1.28967 2.95918 0
M  V30 34452 H 3070.17 3.38148 1.74241 0
M  V30 34453 H 3071.49 4.32918 2.47756 0
M  V30 34454 H 3070.64 3.758 4.76298 0
M  V30 34455 H 3069.38 2.70931 4.05521 0
M  V30 34456 H 3068.38 4.68776 2.87279 0
M  V30 34457 H 3069.61 5.75083 3.61187 0
M  V30 34458 H 3067.56 4.0942 5.12554 0
M  V30 34459 H 3067.47 5.80262 4.84594 0
M  V30 34460 H 3068.74 5.15745 5.84489 0
M  V30 34461 N 3072.97 -0.534097 1.48274 0
M  V30 34462 C 3074.39 -0.862249 1.34304 0
M  V30 34463 C 3074.59 -1.9842 0.350937 0
M  V30 34464 O 3073.64 -2.51457 -0.22932 0
M  V30 34465 C 3074.95 -1.23366 2.74229 0
M  V30 34466 C 3076.5 -1.34378 2.82686 0
M  V30 34467 C 3076.98 -1.74864 4.23304 0
M  V30 34468 N 3078.47 -1.81974 4.25958 0
M  V30 34469 C 3079.2 -2.14677 5.31697 0
M  V30 34470 N 3078.7 -2.45832 6.47718 0
M  V30 34471 N 3080.49 -2.15648 5.19088 0
M  V30 34472 H 3072.64 0.206252 2.11396 0
M  V30 34473 H 3074.91 0.0296283 0.947537 0
M  V30 34474 H 3074.61 -0.482906 3.48369 0
M  V30 34475 H 3074.49 -2.18473 3.07489 0
M  V30 34476 H 3076.87 -2.0853 2.08804 0
M  V30 34477 H 3076.95 -0.374019 2.53051 0
M  V30 34478 H 3076.6 -1.01273 4.97701 0
M  V30 34479 H 3076.53 -2.72883 4.50381 0
M  V30 34480 H 3079.02 -1.6019 3.42268 0
M  V30 34481 H 3079.33 -2.69879 7.24144 0
M  V30 34482 H 3077.68 -2.43361 6.51 0
M  V30 34483 H 3080.87 -1.90762 4.27466 0
M  V30 34484 H 3081.04 -2.40803 6.01596 0
M  V30 34485 N 3074.45 -1.36793 -0.782652 0
M  V30 34486 C 3075.38 -1.34359 -1.90971 0
M  V30 34487 C 3076.36 -0.213947 -1.68749 0
M  V30 34488 O 3077.54 -0.412634 -1.89766 0
M  V30 34489 C 3074.67 -1.1389 -3.28095 0
M  V30 34490 C 3073.63 -2.23751 -3.64856 0
M  V30 34491 C 3072.95 -1.88417 -5.00403 0
M  V30 34492 C 3074.25 -3.65876 -3.72736 0
M  V30 34493 H 3075.95 -2.28668 -1.93264 0
M  V30 34494 H 3073.49 -1.10074 -0.928428 0
M  V30 34495 H 3075.45 -1.1082 -4.06567 0
M  V30 34496 H 3074.17 -0.160333 -3.26206 0
M  V30 34497 H 3072.83 -2.25957 -2.88685 0
M  V30 34498 H 3072.48 -0.89117 -4.95043 0
M  V30 34499 H 3072.18 -2.61975 -5.25969 0
M  V30 34500 H 3073.7 -1.86915 -5.81288 0
M  V30 34501 H 3075.12 -3.65859 -4.41384 0
M  V30 34502 H 3073.51 -4.38397 -4.09791 0
M  V30 34503 H 3074.58 -4.00291 -2.73669 0
M  V30 34504 N 3075.93 1.00759 -1.21184 0
M  V30 34505 C 3076.86 2.11342 -0.99281 0
M  V30 34506 C 3077.84 1.69905 0.081332 0
M  V30 34507 O 3079.02 1.94043 -0.0779844 0
M  V30 34508 C 3076.15 3.42855 -0.553887 0
M  V30 34509 C 3075.11 3.98074 -1.5723 0
M  V30 34510 C 3074.43 5.25461 -0.989698 0
M  V30 34511 C 3075.73 4.30433 -2.95846 0
M  V30 34512 H 3077.43 2.29923 -1.9177 0
M  V30 34513 H 3074.97 1.10492 -0.923446 0
M  V30 34514 H 3076.93 4.19611 -0.387844 0
M  V30 34515 H 3075.65 3.24059 0.406645 0
M  V30 34516 H 3074.31 3.23434 -1.72586 0
M  V30 34517 H 3073.96 5.02996 -0.0209627 0
M  V30 34518 H 3073.66 5.63371 -1.66993 0
M  V30 34519 H 3075.18 6.04865 -0.834921 0
M  V30 34520 H 3076.59 4.98042 -2.83949 0
M  V30 34521 H 3074.99 4.79479 -3.6086 0
M  V30 34522 H 3076.06 3.38817 -3.46888 0
M  V30 34523 N 3077.4 1.01917 1.20211 0
M  V30 34524 C 3078.63 0.72911 1.94162 0
M  V30 34525 C 3079.05 -0.704293 1.74417 0
M  V30 34526 O 3078.41 -1.48496 1.04012 0
M  V30 34527 C 3078.46 1.0733 3.44256 0
M  V30 34528 O 3077.56 0.18644 4.11978 0
M  V30 34529 H 3076.91 0.270282 0.606501 0
M  V30 34530 H 3079.44 1.36323 1.52569 0
M  V30 34531 H 3079.45 1.0261 3.94886 0
M  V30 34532 H 3078.12 2.11765 3.5795 0
M  V30 34533 H 3076.7 0.291399 3.7176 0
M  V30 34534 N 3078.88 -1.36036 0.795742 0
M  V30 34535 C 3080.16 -1.93366 0.294777 0
M  V30 34536 C 3080.54 -1.72698 -1.21402 0
M  V30 34537 O 3079.89 -1.08962 -2.00847 0
M  V30 34538 C 3080.1 -3.42024 0.694314 0
M  V30 34539 C 3081.45 -4.19158 0.67764 0
M  V30 34540 O 3082.47 -3.50491 0.635181 0
M  V30 34541 O 3081.33 -5.41653 0.726222 0
M  V30 34542 H 3078.42 -0.823632 0.0745603 0
M  V30 34543 H 3080.97 -1.45178 0.878711 0
M  V30 34544 H 3079.74 -3.5075 1.73464 0
M  V30 34545 H 3079.36 -3.9751 0.0846037 0
M  V30 34546 N 3080.36 -0.5483 -1.47755 0
M  V30 34547 C 3081.61 -0.0208898 -2.02089 0
M  V30 34548 C 3081.93 1.33014 -1.42591 0
M  V30 34549 O 3081.2 1.86554 -0.597858 0
M  V30 34550 H 3079.78 -0.00473336 -0.746985 0
M  V30 34551 H 3082.44 -0.716288 -1.8126 0
M  V30 34552 H 3081.54 0.0738468 -3.12013 0
M  V30 34553 N 3081.84 1.55014 -0.28431 0
M  V30 34554 C 3082.77 2.20299 0.632542 0
M  V30 34555 C 3083.78 1.19052 1.11043 0
M  V30 34556 O 3084.97 1.45732 1.03076 0
M  V30 34557 C 3082.07 2.82244 1.87594 0
M  V30 34558 C 3081.25 4.09268 1.54333 0
M  V30 34559 C 3080.3 4.55173 2.64015 0
M  V30 34560 O 3079.33 5.20745 2.29812 0
M  V30 34561 N 3080.53 4.26085 3.94248 0
M  V30 34562 H 3083.3 2.99609 0.0737402 0
M  V30 34563 H 3080.86 1.61554 -0.105796 0
M  V30 34564 H 3082.85 3.09894 2.60284 0
M  V30 34565 H 3081.42 2.06872 2.34356 0
M  V30 34566 H 3080.64 3.88807 0.649843 0
M  V30 34567 H 3081.93 4.92011 1.29626 0
M  V30 34568 H 3081.33 3.73519 4.24853 0
M  V30 34569 H 3079.88 4.58485 4.63287 0
M  V30 34570 N 3083.32 0.0117398 1.57596 0
M  V30 34571 C 3084.25 -1.00426 2.06027 0
M  V30 34572 C 3085.26 -1.29971 0.980371 0
M  V30 34573 O 3086.45 -1.26742 1.25693 0
M  V30 34574 C 3083.55 -2.33611 2.45518 0
M  V30 34575 C 3082.72 -2.22835 3.76382 0
M  V30 34576 C 3081.78 -3.38807 4.02612 0
M  V30 34577 O 3080.81 -3.16468 4.73114 0
M  V30 34578 N 3082.01 -4.6204 3.51424 0
M  V30 34579 H 3084.78 -0.591155 2.93812 0
M  V30 34580 H 3082.34 -0.175399 1.60947 0
M  V30 34581 H 3084.33 -3.09989 2.60171 0
M  V30 34582 H 3082.9 -2.66622 1.63191 0
M  V30 34583 H 3082.12 -1.31294 3.71693 0
M  V30 34584 H 3083.41 -2.12821 4.62152 0
M  V30 34585 H 3082.8 -4.83086 2.94355 0
M  V30 34586 H 3081.36 -5.35645 3.71387 0
M  V30 34587 N 3084.79 -1.55421 -0.261185 0
M  V30 34588 C 3085.74 -1.85499 -1.32568 0
M  V30 34589 C 3086.73 -0.714748 -1.44153 0
M  V30 34590 O 3087.92 -0.976362 -1.47635 0
M  V30 34591 C 3085.05 -2.14072 -2.68381 0
M  V30 34592 C 3084.14 -3.34386 -2.60858 0
M  V30 34593 N 3084.53 -4.54008 -2.22959 0
M  V30 34594 C 3082.82 -3.37211 -2.91898 0
M  V30 34595 C 3083.53 -5.36122 -2.25718 0
M  V30 34596 N 3082.5 -4.74823 -2.64659 0
M  V30 34597 H 3086.3 -2.75524 -1.02293 0
M  V30 34598 H 3083.82 -1.55456 -0.469822 0
M  V30 34599 H 3085.81 -2.3378 -3.45185 0
M  V30 34600 H 3084.47 -1.25337 -2.99534 0
M  V30 34601 H 3085.49 -4.79893 -1.94739 0
M  V30 34602 H 3082.16 -2.58706 -3.27685 0
M  V30 34603 H 3083.55 -6.41792 -1.98877 0
M  V30 34604 N 3086.27 0.526227 -1.48555 0
M  V30 34605 C 3087.2 1.63956 -1.66255 0
M  V30 34606 C 3088.18 1.62231 -0.51138 0
M  V30 34607 O 3089.37 1.79368 -0.744354 0
M  V30 34608 C 3086.5 3.02533 -1.70561 0
M  V30 34609 C 3085.45 3.19118 -2.85215 0
M  V30 34610 C 3084.78 4.58793 -2.74614 0
M  V30 34611 C 3086.08 3.01532 -4.26469 0
M  V30 34612 H 3087.77 1.49399 -2.59462 0
M  V30 34613 H 3085.32 0.717304 -1.24863 0
M  V30 34614 H 3087.27 3.80295 -1.81531 0
M  V30 34615 H 3086 3.18121 -0.739353 0
M  V30 34616 H 3084.65 2.43774 -2.73806 0
M  V30 34617 H 3084.3 4.71223 -1.7595 0
M  V30 34618 H 3084 4.70834 -3.51552 0
M  V30 34619 H 3085.53 5.38649 -2.87557 0
M  V30 34620 H 3086.94 3.69084 -4.38691 0
M  V30 34621 H 3085.34 3.25064 -5.04434 0
M  V30 34622 H 3086.41 1.97917 -4.4267 0
M  V30 34623 N 3087.75 1.37206 0.775387 0
M  V30 34624 C 3088.98 1.35399 1.56444 0
M  V30 34625 C 3089.39 -0.0615106 1.887 0
M  V30 34626 O 3088.75 -1.0223 1.51179 0
M  V30 34627 C 3088.8 2.18894 2.87694 0
M  V30 34628 O 3088.52 3.54928 2.56822 0
M  V30 34629 C 3090.02 2.25026 3.8194 0
M  V30 34630 H 3087.24 0.463924 0.484784 0
M  V30 34631 H 3089.79 1.80497 0.961314 0
M  V30 34632 H 3087.94 1.77316 3.44439 0
M  V30 34633 H 3088.36 3.98655 3.40844 0
M  V30 34634 H 3089.83 2.87777 4.7105 0
M  V30 34635 H 3090.31 1.25765 4.20809 0
M  V30 34636 H 3090.91 2.66901 3.31125 0
M  V30 34637 N 3089.23 -1.00115 1.21716 0
M  V30 34638 C 3090.14 -2.12407 0.996007 0
M  V30 34639 C 3091.15 -1.73919 -0.0531125 0
M  V30 34640 O 3092.33 -2.00928 0.137793 0
M  V30 34641 C 3089.4 -3.42021 0.567653 0
M  V30 34642 C 3088.46 -3.9466 1.68943 0
M  V30 34643 C 3087.69 -5.18088 1.28142 0
M  V30 34644 O 3087.91 -5.70185 0.156674 0
M  V30 34645 O 3086.85 -5.64271 2.0948 0
M  V30 34646 H 3090.67 -2.33943 1.93661 0
M  V30 34647 H 3088.26 -1.10782 1.00238 0
M  V30 34648 H 3090.14 -4.20036 0.338738 0
M  V30 34649 H 3088.81 -3.21865 -0.344183 0
M  V30 34650 H 3087.72 -3.17855 1.97279 0
M  V30 34651 H 3089.05 -4.19234 2.57884 0
M  V30 34652 N 3090.71 -1.02553 -1.19669 0
M  V30 34653 C 3091.93 -0.739397 -1.93772 0
M  V30 34654 C 3092.36 0.695033 -1.74788 0
M  V30 34655 O 3091.72 1.47942 -1.04798 0
M  V30 34656 C 3091.76 -1.09155 -3.43682 0
M  V30 34657 O 3090.87 -0.208285 -4.11874 0
M  V30 34658 H 3090.21 -0.273495 -0.605059 0
M  V30 34659 H 3092.74 -1.3713 -1.51843 0
M  V30 34660 H 3092.75 -1.04702 -3.94337 0
M  V30 34661 H 3091.42 -2.1366 -3.56822 0
M  V30 34662 H 3090 -0.311111 -3.716 0
M  V30 34663 N 3092.19 1.35612 -0.802945 0
M  V30 34664 C 3093.12 2.32412 -0.225172 0
M  V30 34665 C 3094.1 1.573 0.647356 0
M  V30 34666 O 3095.28 1.85387 0.578382 0
M  V30 34667 C 3092.41 3.41538 0.630025 0
M  V30 34668 C 3091.37 4.27759 -0.14371 0
M  V30 34669 C 3090.69 5.28172 0.832953 0
M  V30 34670 C 3091.99 5.04801 -1.34063 0
M  V30 34671 H 3093.69 2.80982 -1.0339 0
M  V30 34672 H 3091.23 1.35092 -0.498617 0
M  V30 34673 H 3093.18 4.08256 1.04426 0
M  V30 34674 H 3091.91 2.91567 1.4716 0
M  V30 34675 H 3090.57 3.62615 -0.539079 0
M  V30 34676 H 3090.22 4.74471 1.66993 0
M  V30 34677 H 3089.92 5.8673 0.319594 0
M  V30 34678 H 3091.44 5.97763 1.24547 0
M  V30 34679 H 3092.85 5.64485 -1.00146 0
M  V30 34680 H 3091.25 5.72837 -1.78822 0
M  V30 34681 H 3092.32 4.35655 -2.12914 0
M  V30 34682 N 3093.66 0.556128 1.47462 0
M  V30 34683 C 3095.08 0.215818 1.58134 0
M  V30 34684 C 3095.28 -1.28163 1.55488 0
M  V30 34685 O 3094.34 -2.06172 1.45772 0
M  V30 34686 C 3095.65 0.841515 2.88685 0
M  V30 34687 C 3097.2 0.812644 3.02267 0
M  V30 34688 C 3097.67 1.41739 4.35516 0
M  V30 34689 N 3099.16 1.38053 4.42149 0
M  V30 34690 C 3099.9 1.81809 5.43814 0
M  V30 34691 N 3099.39 2.33416 6.52295 0
M  V30 34692 N 3101.19 1.72886 5.34852 0
M  V30 34693 H 3093.34 1.52904 1.47425 0
M  V30 34694 H 3095.6 0.637571 0.701575 0
M  V30 34695 H 3095.31 1.89386 2.96354 0
M  V30 34696 H 3095.18 0.333912 3.75719 0
M  V30 34697 H 3097.57 -0.231004 2.94194 0
M  V30 34698 H 3097.65 1.35799 2.16777 0
M  V30 34699 H 3097.29 2.4601 4.44344 0
M  V30 34700 H 3097.22 0.847493 5.19736 0
M  V30 34701 H 3099.71 1.00302 3.64346 0
M  V30 34702 H 3100.03 2.6473 7.26043 0
M  V30 34703 H 3098.37 2.37426 6.53188 0
M  V30 34704 H 3101.56 1.32346 4.49001 0
M  V30 34705 H 3101.74 2.07305 6.13945 0
M  V30 34706 N 3095.14 -1.54861 0.292527 0
M  V30 34707 C 3096.05 -2.26877 -0.596996 0
M  V30 34708 C 3097.07 -1.30088 -1.15555 0
M  V30 34709 O 3098.24 -1.63056 -1.18215 0
M  V30 34710 C 3095.31 -2.98906 -1.75658 0
M  V30 34711 C 3094.37 -4.11214 -1.23296 0
M  V30 34712 C 3093.6 -4.79799 -2.33728 0
M  V30 34713 O 3093.83 -4.47692 -3.53452 0
M  V30 34714 O 3092.76 -5.67383 -2.00898 0
M  V30 34715 H 3096.59 -3.03697 -0.0130708 0
M  V30 34716 H 3094.17 -1.49282 0.0592904 0
M  V30 34717 H 3096.05 -3.44114 -2.43235 0
M  V30 34718 H 3094.73 -2.24988 -2.32727 0
M  V30 34719 H 3093.63 -3.70424 -0.523156 0
M  V30 34720 H 3094.97 -4.87084 -0.707801 0
M  V30 34721 N 3096.62 -0.0200973 -1.57587 0
M  V30 34722 C 3097.57 0.964754 -2.09669 0
M  V30 34723 C 3098.54 1.32875 -0.996663 0
M  V30 34724 O 3099.72 1.42364 -1.27032 0
M  V30 34725 C 3096.86 2.24489 -2.62104 0
M  V30 34726 C 3095.97 1.93814 -3.86083 0
M  V30 34727 C 3095.11 3.16056 -4.26945 0
M  V30 34728 C 3094.15 2.8116 -5.43706 0
M  V30 34729 N 3093.29 3.95999 -5.79766 0
M  V30 34730 H 3098.13 0.513699 -2.93539 0
M  V30 34731 H 3095.66 0.241974 -1.45096 0
M  V30 34732 H 3097.62 2.99353 -2.90592 0
M  V30 34733 H 3096.25 2.67227 -1.81079 0
M  V30 34734 H 3095.3 1.09231 -3.6438 0
M  V30 34735 H 3096.61 1.64107 -4.71031 0
M  V30 34736 H 3095.77 3.99249 -4.56821 0
M  V30 34737 H 3094.51 3.48918 -3.40746 0
M  V30 34738 H 3093.51 1.96378 -5.13533 0
M  V30 34739 H 3094.74 2.49524 -6.31597 0
M  V30 34740 H 3092.68 4.2872 -4.96523 0
M  V30 34741 H 3092.6 3.69885 -6.59334 0
M  V30 34742 H 3093.87 4.79922 -6.14244 0
M  V30 34743 N 3098.1 1.55557 0.252939 0
M  V30 34744 C 3099.34 1.78867 0.989244 0
M  V30 34745 C 3099.7 0.588647 1.82754 0
M  V30 34746 O 3100.9 0.700393 2.59515 0
M  V30 34747 C 3099.17 3.06877 1.83197 0
M  V30 34748 S 3100.73 3.51385 2.6282 0
M  V30 34749 H 3097.55 0.628276 0.332852 0
M  V30 34750 H 3100.15 1.93794 0.257682 0
M  V30 34751 H 3098.86 3.92289 1.20572 0
M  V30 34752 H 3098.39 2.94671 2.60639 0
M  V30 34753 H 3100.4 3.12241 3.85643 0
M  V30 34754 N 3099.58 -0.518341 1.48832 0
M  V30 34755 C 3100.8 -1.30272 1.61381 0
M  V30 34756 C 3101.23 -1.86025 0.278603 0
M  V30 34757 O 3100.58 -1.64996 -0.751398 0
M  V30 34758 C 3100.63 -2.42117 2.6723 0
M  V30 34759 O 3099.74 -3.45485 2.25198 0
M  V30 34760 H 3099.08 -0.38534 0.540749 0
M  V30 34761 H 3101.61 -0.622464 1.94901 0
M  V30 34762 H 3101.62 -2.88135 2.88864 0
M  V30 34763 H 3100.29 -2.00901 3.64159 0
M  V30 34764 H 3098.87 -3.05505 2.13824 0
M  V30 34765 N 3101.05 -1.37615 -0.7681 0
M  V30 34766 C 3102.47 -1.18495 -1.06917 0
M  V30 34767 C 3102.67 -0.0236107 -2.01486 0
M  V30 34768 O 3101.73 0.635166 -2.44381 0
M  V30 34769 C 3103.04 -2.50518 -1.66317 0
M  V30 34770 C 3104.59 -2.57073 -1.78557 0
M  V30 34771 C 3105.06 -3.89235 -2.41371 0
M  V30 34772 N 3106.55 -3.90697 -2.48817 0
M  V30 34773 C 3107.29 -4.89711 -2.98279 0
M  V30 34774 N 3106.78 -5.99122 -3.47887 0
M  V30 34775 N 3108.58 -4.77112 -2.97187 0
M  V30 34776 H 3100.73 -2.11936 -0.140249 0
M  V30 34777 H 3102.99 -0.939743 -0.124847 0
M  V30 34778 H 3102.7 -3.3588 -1.04297 0
M  V30 34779 H 3102.57 -2.6787 -2.65566 0
M  V30 34780 H 3104.96 -1.72116 -2.39709 0
M  V30 34781 H 3105.04 -2.43601 -0.780531 0
M  V30 34782 H 3104.68 -4.74608 -1.80857 0
M  V30 34783 H 3104.61 -4.00012 -3.42488 0
M  V30 34784 H 3107.1 -3.11664 -2.13715 0
M  V30 34785 H 3107.42 -6.7062 -3.84042 0
M  V30 34786 H 3105.76 -6.02762 -3.45982 0
M  V30 34787 H 3108.95 -3.90757 -2.57734 0
M  V30 34788 H 3109.13 -5.54432 -3.35424 0
M  V30 34789 N 3102.53 0.994677 -1.22245 0
M  V30 34790 C 3103.78 1.72816 -1.04008 0
M  V30 34791 C 3104.09 1.90919 0.425379 0
M  V30 34792 O 3105.3 2.61575 0.727383 0
M  V30 34793 C 3103.76 3.10928 -1.8125 0
M  V30 34794 C 3103.36 3.00763 -3.32033 0
M  V30 34795 C 3105.11 3.88334 -1.71455 0
M  V30 34796 C 3103.01 4.34019 -4.01723 0
M  V30 34797 H 3101.94 0.64796 -0.38557 0
M  V30 34798 H 3104.6 1.11055 -1.46079 0
M  V30 34799 H 3102.98 3.73361 -1.31977 0
M  V30 34800 H 3104.15 2.47506 -3.88687 0
M  V30 34801 H 3102.47 2.3684 -3.42485 0
M  V30 34802 H 3105.06 4.86962 -2.20845 0
M  V30 34803 H 3105.41 4.10797 -0.67464 0
M  V30 34804 H 3105.94 3.32576 -2.18261 0
M  V30 34805 H 3102.68 4.16756 -5.05959 0
M  V30 34806 H 3102.2 4.87196 -3.49858 0
M  V30 34807 H 3103.88 5.02774 -4.07218 0
M  V30 34808 N 3104.01 1.03186 1.19123 0
M  V30 34809 C 3104.96 0.615239 2.22449 0
M  V30 34810 C 3105.93 -0.372473 1.6187 0
M  V30 34811 O 3107.11 -0.268458 1.88902 0
M  V30 34812 C 3104.25 -0.024742 3.45091 0
M  V30 34813 C 3103.36 1.00937 4.20043 0
M  V30 34814 C 3102.5 0.338837 5.30118 0
M  V30 34815 C 3101.54 1.35865 5.96831 0
M  V30 34816 N 3100.68 0.713716 6.98463 0
M  V30 34817 H 3105.52 1.50091 2.57443 0
M  V30 34818 H 3103.05 0.751027 1.26483 0
M  V30 34819 H 3105.01 -0.413058 4.1515 0
M  V30 34820 H 3103.64 -0.873973 3.10744 0
M  V30 34821 H 3102.69 1.51572 3.48898 0
M  V30 34822 H 3104 1.78433 4.65793 0
M  V30 34823 H 3103.16 -0.104163 6.06611 0
M  V30 34824 H 3101.9 -0.468296 4.85446 0
M  V30 34825 H 3100.9 1.81188 5.19087 0
M  V30 34826 H 3102.13 2.16733 6.43586 0
M  V30 34827 H 3100.07 -0.073271 6.55959 0
M  V30 34828 H 3099.99 1.42651 7.42419 0
M  V30 34829 H 3101.26 0.294818 7.78942 0
M  V30 34830 N 3105.49 -1.35184 0.810125 0
M  V30 34831 C 3106.4 -2.33522 0.224606 0
M  V30 34832 C 3107.41 -1.62028 -0.634258 0
M  V30 34833 O 3108.59 -1.93881 -0.545177 0
M  V30 34834 C 3105.66 -3.41215 -0.614259 0
M  V30 34835 C 3104.72 -4.28478 0.26551 0
M  V30 34836 C 3103.95 -5.31028 -0.533412 0
M  V30 34837 O 3104.17 -5.42314 -1.76781 0
M  V30 34838 O 3103.11 -6.0185 0.0775631 0
M  V30 34839 H 3106.93 -2.85403 1.0382 0
M  V30 34840 H 3104.52 -1.38017 0.571988 0
M  V30 34841 H 3106.4 -4.07007 -1.09194 0
M  V30 34842 H 3105.07 -2.91599 -1.4054 0
M  V30 34843 H 3103.98 -3.65655 0.790407 0
M  V30 34844 H 3105.31 -4.81501 1.02068 0
M  V30 34845 N 3106.97 -0.56394 -1.47165 0
M  V30 34846 C 3107.9 0.168107 -2.32894 0
M  V30 34847 C 3108.88 0.902188 -1.44203 0
M  V30 34848 O 3110.06 0.881335 -1.7305 0
M  V30 34849 C 3107.19 1.19433 -3.26118 0
M  V30 34850 C 3106.15 0.576288 -4.24102 0
M  V30 34851 C 3105.47 1.70763 -5.06699 0
M  V30 34852 C 3106.77 -0.474341 -5.20142 0
M  V30 34853 H 3108.47 -0.547625 -2.94349 0
M  V30 34854 H 3106.01 -0.264802 -1.41544 0
M  V30 34855 H 3107.97 1.71467 -3.84938 0
M  V30 34856 H 3106.69 1.9401 -2.62732 0
M  V30 34857 H 3105.35 0.077189 -3.66519 0
M  V30 34858 H 3105 2.4426 -4.39711 0
M  V30 34859 H 3104.7 1.29984 -5.73043 0
M  V30 34860 H 3106.22 2.2311 -5.68379 0
M  V30 34861 H 3107.63 -0.0398043 -5.73286 0
M  V30 34862 H 3106.03 -0.801391 -5.94725 0
M  V30 34863 H 3107.1 -1.36772 -4.65211 0
M  V30 34864 N 3108.44 1.54704 -0.300735 0
M  V30 34865 C 3109.37 2.2647 0.568635 0
M  V30 34866 C 3110.36 1.26413 1.13814 0
M  V30 34867 O 3111.54 1.55185 1.16753 0
M  V30 34868 C 3108.67 3.00527 1.74071 0
M  V30 34869 C 3107.62 4.07729 1.30158 0
M  V30 34870 C 3106.95 4.69499 2.5588 0
M  V30 34871 C 3108.25 5.20502 0.433015 0
M  V30 34872 H 3109.94 2.99385 -0.0299377 0
M  V30 34873 H 3107.49 1.43991 -0.0158388 0
M  V30 34874 H 3109.44 3.49453 2.355 0
M  V30 34875 H 3108.17 2.2519 2.36552 0
M  V30 34876 H 3106.83 3.59652 0.71035 0
M  V30 34877 H 3106.47 3.90802 3.16674 0
M  V30 34878 H 3106.17 5.41899 2.27198 0
M  V30 34879 H 3107.7 5.21189 3.18111 0
M  V30 34880 H 3109.11 5.65324 0.95297 0
M  V30 34881 H 3107.51 5.9962 0.23998 0
M  V30 34882 H 3108.58 4.81862 -0.54195 0
M  V30 34883 N 3109.92 0.0284543 1.57574 0
M  V30 34884 C 3110.87 -0.953621 2.10178 0
M  V30 34885 C 3111.84 -1.32345 1.0037 0
M  V30 34886 O 3113.02 -1.41688 1.27785 0
M  V30 34887 C 3110.16 -2.23096 2.63291 0
M  V30 34888 C 3109.28 -1.91764 3.87105 0
M  V30 34889 C 3108.41 -3.13788 4.28615 0
M  V30 34890 C 3107.45 -2.78272 5.45189 0
M  V30 34891 N 3106.59 -3.92919 5.81858 0
M  V30 34892 H 3111.43 -0.498125 2.93807 0
M  V30 34893 H 3108.97 -0.234276 1.45222 0
M  V30 34894 H 3110.92 -2.97808 2.92175 0
M  V30 34895 H 3109.55 -2.66263 1.82494 0
M  V30 34896 H 3108.61 -1.07297 3.64954 0
M  V30 34897 H 3109.92 -1.61606 4.71895 0
M  V30 34898 H 3109.07 -3.9682 4.58932 0
M  V30 34899 H 3107.81 -3.47106 3.42591 0
M  V30 34900 H 3106.82 -1.93652 5.14567 0
M  V30 34901 H 3108.04 -2.46171 6.32911 0
M  V30 34902 H 3105.99 -4.26081 4.9879 0
M  V30 34903 H 3105.9 -3.66383 6.61286 0
M  V30 34904 H 3107.17 -4.76658 6.1678 0
M  V30 34905 N 3111.4 -1.55689 -0.244686 0
M  V30 34906 C 3112.82 -1.48162 -0.593305 0
M  V30 34907 C 3113.02 -0.71908 -1.88233 0
M  V30 34908 O 3112.07 -0.249337 -2.51266 0
M  V30 34909 C 3113.39 -2.92582 -0.693981 0
M  V30 34910 C 3114.93 -3.02966 -0.786159 0
M  V30 34911 C 3115.41 -4.48698 -0.918378 0
M  V30 34912 N 3116.9 -4.52645 -0.983192 0
M  V30 34913 C 3117.63 -5.62656 -1.1048 0
M  V30 34914 N 3117.13 -6.82472 -1.19181 0
M  V30 34915 N 3118.92 -5.50457 -1.13813 0
M  V30 34916 H 3111.07 -2.03706 0.601482 0
M  V30 34917 H 3113.34 -0.92492 0.20791 0
M  V30 34918 H 3113.04 -3.51223 0.183195 0
M  V30 34919 H 3112.92 -3.43193 -1.56519 0
M  V30 34920 H 3115.3 -2.44405 -1.65379 0
M  V30 34921 H 3115.39 -2.55562 0.110246 0
M  V30 34922 H 3115.03 -5.0787 -0.0552988 0
M  V30 34923 H 3114.96 -4.93785 -1.82986 0
M  V30 34924 H 3117.45 -3.66349 -0.927204 0
M  V30 34925 H 3117.76 -7.62063 -1.28373 0
M  V30 34926 H 3116.11 -6.85228 -1.16135 0
M  V30 34927 H 3119.3 -4.55785 -1.06665 0
M  V30 34928 H 3119.47 -6.3623 -1.22946 0
M  V30 34929 N 3112.88 0.510441 -1.49105 0
M  V30 34930 C 3114.11 1.28754 -1.61574 0
M  V30 34931 C 3114.52 1.87076 -0.282671 0
M  V30 34932 O 3113.86 1.68104 0.740719 0
M  V30 34933 C 3113.92 2.46317 -2.61855 0
M  V30 34934 C 3113.59 2.08935 -4.06442 0
M  V30 34935 C 3114.58 1.6346 -4.93535 0
M  V30 34936 C 3112.27 2.18859 -4.52113 0
M  V30 34937 C 3114.26 1.284 -6.24333 0
M  V30 34938 C 3111.95 1.83411 -5.82927 0
M  V30 34939 C 3112.95 1.38255 -6.68861 0
M  V30 34940 O 3112.63 1.03281 -7.97238 0
M  V30 34941 H 3112.37 0.397076 -0.547089 0
M  V30 34942 H 3114.92 0.62039 -1.95807 0
M  V30 34943 H 3113.15 3.16077 -2.22783 0
M  V30 34944 H 3114.84 3.08357 -2.63952 0
M  V30 34945 H 3115.61 1.55247 -4.59482 0
M  V30 34946 H 3111.48 2.5296 -3.85399 0
M  V30 34947 H 3115.03 0.930825 -6.91362 0
M  V30 34948 H 3110.93 1.91271 -6.16511 0
M  V30 34949 H 3111.69 1.16511 -8.10165 0
M  V30 34950 N 3114.36 1.38021 0.760791 0
M  V30 34951 C 3115.58 1.37227 1.55511 0
M  V30 34952 C 3116.01 -0.0375779 1.88062 0
M  V30 34953 O 3115.36 -1.01767 1.50044 0
M  V30 34954 C 3115.41 2.22801 2.83535 0
M  V30 34955 O 3114.52 1.64016 3.78381 0
M  V30 34956 H 3113.86 0.468401 0.470634 0
M  V30 34957 H 3116.39 1.81689 0.94076 0
M  V30 34958 H 3116.4 2.36405 3.32531 0
M  V30 34959 H 3115.07 3.25273 2.59172 0
M  V30 34960 H 3113.65 1.59514 3.3706 0
M  V30 34961 N 3115.83 -0.98818 1.22771 0
M  V30 34962 C 3116.74 -2.11339 1.01848 0
M  V30 34963 C 3117.76 -1.73965 -0.0346631 0
M  V30 34964 O 3118.94 -2.00771 0.159096 0
M  V30 34965 C 3116 -3.414 0.603897 0
M  V30 34966 C 3115.06 -3.92846 1.7312 0
M  V30 34967 C 3114.3 -5.167 1.3363 0
M  V30 34968 O 3114.52 -5.69987 0.217141 0
M  V30 34969 O 3113.45 -5.62017 2.15453 0
M  V30 34970 H 3117.28 -2.31876 1.96131 0
M  V30 34971 H 3114.86 -1.09713 1.01407 0
M  V30 34972 H 3116.75 -4.19653 0.38327 0
M  V30 34973 H 3115.42 -3.22212 -0.310026 0
M  V30 34974 H 3114.33 -3.15745 2.00639 0
M  V30 34975 H 3115.66 -4.16475 2.62316 0
M  V30 34976 N 3117.31 -1.03816 -1.18575 0
M  V30 34977 C 3118.25 -0.571502 -2.20928 0
M  V30 34978 C 3119.22 0.392608 -1.57789 0
M  V30 34979 O 3120.41 0.307507 -1.85975 0
M  V30 34980 C 3117.53 0.165444 -3.38296 0
M  V30 34981 C 3116.58 -0.751531 -4.19826 0
M  V30 34982 S 3117.41 -2.23299 -4.86721 0
M  V30 34983 C 3118.57 -1.50682 -6.07491 0
M  V30 34984 H 3118.8 -1.43871 -2.6017 0
M  V30 34985 H 3116.34 -0.848903 -1.28969 0
M  V30 34986 H 3118.29 0.584473 -4.06318 0
M  V30 34987 H 3116.95 1.0085 -2.97469 0
M  V30 34988 H 3116.15 -0.182074 -5.03671 0
M  V30 34989 H 3115.75 -1.1093 -3.5717 0
M  V30 34990 H 3118.04 -0.798495 -6.72778 0
M  V30 34991 H 3118.98 -2.32222 -6.68938 0
M  V30 34992 H 3119.39 -1.00026 -5.55567 0
M  V30 34993 N 3118.79 1.34753 -0.817283 0
M  V30 34994 C 3120.07 1.92873 -0.325502 0
M  V30 34995 C 3120.45 1.74608 1.1864 0
M  V30 34996 O 3119.8 1.12144 1.99088 0
M  V30 34997 C 3120.01 3.40876 -0.74864 0
M  V30 34998 C 3121.35 4.18027 -0.744238 0
M  V30 34999 O 3122.38 3.49436 -0.69086 0
M  V30 35000 O 3121.24 5.40429 -0.812302 0
M  V30 35001 H 3118.33 0.822342 -0.0876542 0
M  V30 35002 H 3120.88 1.43762 -0.901696 0
M  V30 35003 H 3119.65 3.47946 -1.79023 0
M  V30 35004 H 3119.27 3.97325 -0.147833 0
M  V30 35005 N 3120.27 0.571737 1.46864 0
M  V30 35006 C 3121.55 -0.0132101 1.95596 0
M  V30 35007 C 3121.93 -1.47068 1.5144 0
M  V30 35008 O 3121.27 -2.15492 0.759955 0
M  V30 35009 C 3121.48 0.147396 3.48689 0
M  V30 35010 C 3122.83 0.00953793 4.24599 0
M  V30 35011 O 3123.86 0.0756737 3.5612 0
M  V30 35012 O 3122.72 -0.135265 5.46333 0
M  V30 35013 H 3119.81 -0.0559894 0.825103 0
M  V30 35014 H 3122.36 0.639284 1.57198 0
M  V30 35015 H 3121.13 1.16103 3.73679 0
M  V30 35016 H 3120.75 -0.542039 3.93888 0
M  V30 35017 N 3121.75 -1.54542 0.308935 0
M  V30 35018 C 3122.7 -2.20529 -0.578863 0
M  V30 35019 C 3123.68 -1.1809 -1.09286 0
M  V30 35020 O 3124.87 -1.43779 -1.03231 0
M  V30 35021 C 3122 -2.95558 -1.74644 0
M  V30 35022 C 3121.09 -4.05321 -1.24802 0
M  V30 35023 N 3121.48 -5.03628 -0.468192 0
M  V30 35024 C 3119.78 -4.19006 -1.52806 0
M  V30 35025 C 3120.48 -5.8135 -0.201794 0
M  V30 35026 N 3119.45 -5.37919 -0.783833 0
M  V30 35027 H 3123.26 -2.9389 0.0244012 0
M  V30 35028 H 3120.77 -1.61999 0.114077 0
M  V30 35029 H 3122.77 -3.41305 -2.39408 0
M  V30 35030 H 3121.43 -2.23716 -2.35332 0
M  V30 35031 H 3122.44 -5.17778 -0.112362 0
M  V30 35032 H 3119.12 -3.58373 -2.14185 0
M  V30 35033 H 3120.51 -6.70554 0.425047 0
M  V30 35034 N 3123.23 -0.0368104 -1.57557 0
M  V30 35035 C 3124.46 0.64919 -1.96135 0
M  V30 35036 C 3124.86 1.65752 -0.912308 0
M  V30 35037 O 3124.21 1.83349 0.113536 0
M  V30 35038 C 3124.27 1.40539 -3.30891 0
M  V30 35039 C 3123.93 0.55453 -4.53623 0
M  V30 35040 C 3124.93 -0.173401 -5.19611 0
M  V30 35041 C 3122.61 0.489672 -4.99907 0
M  V30 35042 C 3124.61 -0.954781 -6.30208 0
M  V30 35043 C 3122.3 -0.295407 -6.10386 0
M  V30 35044 C 3123.29 -1.01633 -6.75396 0
M  V30 35045 O 3122.98 -1.78853 -7.83752 0
M  V30 35046 H 3122.71 0.183332 -0.650665 0
M  V30 35047 H 3125.27 -0.0951873 -2.05179 0
M  V30 35048 H 3123.5 2.19508 -3.1836 0
M  V30 35049 H 3125.19 1.98024 -3.54318 0
M  V30 35050 H 3125.95 -0.132675 -4.84818 0
M  V30 35051 H 3121.83 1.04038 -4.49107 0
M  V30 35052 H 3125.38 -1.51801 -6.80884 0
M  V30 35053 H 3121.27 -0.337823 -6.44615 0
M  V30 35054 H 3122.04 -1.70912 -8.00457 0
M  V30 35055 N 3124.7 1.55817 0.236426 0
M  V30 35056 C 3125.61 1.94338 1.31415 0
M  V30 35057 C 3126.63 0.845191 1.52094 0
M  V30 35058 O 3127.81 1.14749 1.65513 0
M  V30 35059 C 3124.87 2.23936 2.64676 0
M  V30 35060 C 3123.93 3.47244 2.52429 0
M  V30 35061 C 3123.16 3.75421 3.79335 0
M  V30 35062 O 3123.39 3.05503 4.81689 0
M  V30 35063 O 3122.32 4.68934 3.77339 0
M  V30 35064 H 3126.15 2.86154 1.01734 0
M  V30 35065 H 3123.73 1.42833 0.438059 0
M  V30 35066 H 3125.61 2.44234 3.43406 0
M  V30 35067 H 3124.29 1.35297 2.94068 0
M  V30 35068 H 3123.2 3.32241 1.7195 0
M  V30 35069 H 3124.53 4.36218 2.27979 0
M  V30 35070 N 3126.18 -0.502526 1.49373 0
M  V30 35071 C 3127.42 -1.26694 1.604 0
M  V30 35072 C 3127.79 -1.89893 0.283633 0
M  V30 35073 O 3128.99 -2.6745 0.269069 0
M  V30 35074 C 3127.26 -2.30661 2.73002 0
M  V30 35075 S 3128.82 -3.16461 3.0397 0
M  V30 35076 H 3125.63 -0.430587 0.565788 0
M  V30 35077 H 3128.24 -0.569385 1.87025 0
M  V30 35078 H 3126.94 -1.82758 3.67461 0
M  V30 35079 H 3126.47 -3.05087 2.48366 0
M  V30 35080 H 3128.49 -4.31284 2.45375 0
M  V30 35081 N 3127.66 -1.38422 -0.75346 0
M  V30 35082 C 3128.59 -1.3838 -1.88078 0
M  V30 35083 C 3129.57 -0.249693 -1.68257 0
M  V30 35084 O 3130.76 -0.452794 -1.88848 0
M  V30 35085 C 3127.89 -1.20824 -3.25605 0
M  V30 35086 C 3126.84 -2.3144 -3.60027 0
M  V30 35087 C 3126.17 -1.98989 -4.96294 0
M  V30 35088 C 3127.47 -3.737 -3.64891 0
M  V30 35089 H 3129.16 -2.32716 -1.88371 0
M  V30 35090 H 3126.71 -1.12018 -0.904871 0
M  V30 35091 H 3128.66 -1.19419 -4.04125 0
M  V30 35092 H 3127.38 -0.22949 -3.25793 0
M  V30 35093 H 3126.04 -2.3203 -2.83827 0
M  V30 35094 H 3125.69 -0.995975 -4.93041 0
M  V30 35095 H 3125.39 -2.73073 -5.20293 0
M  V30 35096 H 3126.91 -1.99203 -5.77192 0
M  V30 35097 H 3128.33 -3.7514 -4.33524 0
M  V30 35098 H 3126.72 -4.4699 -4.004 0
M  V30 35099 H 3127.79 -4.06006 -2.65117 0
M  V30 35100 N 3129.14 0.981655 -1.23294 0
M  V30 35101 C 3130.09 2.09507 -1.01043 0
M  V30 35102 C 3131.08 1.69326 0.0501679 0
M  V30 35103 O 3132.29 1.79704 -0.103228 0
M  V30 35104 H 3128.66 0.685293 -0.309641 0
M  V30 35105 H 3130.63 2.25441 -1.95497 0
M  V30 35106 C 3129.38 3.42183 -0.616945 0
M  V30 35107 H 3128.7 3.73551 -1.42477 0
M  V30 35108 H 3130.14 4.21033 -0.500762 0
M  V30 35109 C 3128.6 3.30076 0.674663 0
M  V30 35110 O 3129.13 3.62817 1.72414 0
M  V30 35111 N 3127.34 2.83235 0.650102 0
M  V30 35112 H 3126.89 2.56789 -0.20427 0
M  V30 35113 H 3126.84 2.75516 1.51454 0
M  V30 35114 N 3130.62 1.04444 1.18022 0
M  V30 35115 C 3132.03 0.764374 1.40105 0
M  V30 35116 C 3132.23 -0.644482 1.90915 0
M  V30 35117 O 3131.29 -1.40809 2.09593 0
M  V30 35118 C 3132.6 1.81365 2.39848 0
M  V30 35119 C 3134.15 1.835 2.53568 0
M  V30 35120 C 3134.62 2.8743 3.56578 0
M  V30 35121 N 3136.11 2.86345 3.64089 0
M  V30 35122 C 3136.85 3.63412 4.4353 0
M  V30 35123 N 3136.35 4.50242 5.26549 0
M  V30 35124 N 3138.14 3.51885 4.3833 0
M  V30 35125 H 3130.29 1.95354 0.833692 0
M  V30 35126 H 3132.55 0.845482 0.428795 0
M  V30 35127 H 3132.26 2.82441 2.09571 0
M  V30 35128 H 3132.13 1.64896 3.39248 0
M  V30 35129 H 3134.52 0.830933 2.8316 0
M  V30 35130 H 3134.6 2.04046 1.54268 0
M  V30 35131 H 3134.24 3.88018 3.27726 0
M  V30 35132 H 3134.17 2.64138 4.55564 0
M  V30 35133 H 3136.67 2.23381 3.0481 0
M  V30 35134 H 3136.98 5.05748 5.84327 0
M  V30 35135 H 3135.32 4.54308 5.25956 0
M  V30 35136 H 3138.51 2.83451 3.72523 0
M  V30 35137 H 3138.69 4.12195 5 0
M  V30 35138 N 3132.09 -1.34317 0.824418 0
M  V30 35139 C 3133.02 -2.32024 0.262118 0
M  V30 35140 C 3134 -1.5831 -0.622249 0
M  V30 35141 O 3135.19 -1.86284 -0.548815 0
M  V30 35142 C 3132.32 -3.42497 -0.575609 0
M  V30 35143 C 3131.27 -4.27476 0.211745 0
M  V30 35144 C 3130.6 -5.29431 -0.74882 0
M  V30 35145 C 3131.9 -5.02605 1.42077 0
M  V30 35146 H 3133.59 -2.79302 1.07847 0
M  V30 35147 H 3131.14 -1.34282 0.520046 0
M  V30 35148 H 3133.09 -4.09866 -0.979179 0
M  V30 35149 H 3131.82 -2.93872 -1.42503 0
M  V30 35150 H 3130.48 -3.61711 0.5967 0
M  V30 35151 H 3130.12 -4.77067 -1.59423 0
M  V30 35152 H 3129.82 -5.87164 -0.22621 0
M  V30 35153 H 3131.35 -5.99669 -1.15021 0
M  V30 35154 H 3132.76 -5.62821 1.09113 0
M  V30 35155 H 3131.16 -5.6992 1.87913 0
M  V30 35156 H 3132.23 -4.32213 2.19818 0
M  V30 35157 N 3133.57 -0.579517 -1.46558 0
M  V30 35158 C 3134.8 -0.067496 -2.0729 0
M  V30 35159 C 3135.22 1.22674 -1.42593 0
M  V30 35160 O 3134.58 1.7402 -0.5086 0
M  V30 35161 C 3134.63 0.0881594 -3.60492 0
M  V30 35162 O 3133.73 1.14544 -3.96174 0
M  V30 35163 H 3133.07 -0.0613652 -0.661158 0
M  V30 35164 H 3135.6 -0.801552 -1.88245 0
M  V30 35165 H 3135.61 0.295339 -4.0693 0
M  V30 35166 H 3134.29 -0.857015 -4.06974 0
M  V30 35167 H 3132.86 0.916969 -3.6145 0
M  V30 35168 N 3135.05 1.54376 -0.317127 0
M  V30 35169 C 3135.98 2.27061 0.544583 0
M  V30 35170 C 3136.96 1.27613 1.12467 0
M  V30 35171 O 3138.15 1.56415 1.151 0
M  V30 35172 C 3135.28 3.02356 1.70874 0
M  V30 35173 C 3134.23 4.09087 1.25826 0
M  V30 35174 C 3133.56 4.72187 2.50886 0
M  V30 35175 C 3134.86 5.20932 0.377784 0
M  V30 35176 H 3136.55 2.99336 -0.0616898 0
M  V30 35177 H 3134.1 1.43966 -0.0311101 0
M  V30 35178 H 3136.05 3.51931 2.3178 0
M  V30 35179 H 3134.77 2.27686 2.34151 0
M  V30 35180 H 3133.43 3.60385 0.672164 0
M  V30 35181 H 3133.08 3.94139 3.12511 0
M  V30 35182 H 3132.78 5.44279 2.21438 0
M  V30 35183 H 3134.3 5.24533 3.12566 0
M  V30 35184 H 3135.72 5.66303 0.892957 0
M  V30 35185 H 3134.12 5.99841 0.176368 0
M  V30 35186 H 3135.19 4.8126 -0.593028 0
M  V30 35187 N 3136.53 0.0451655 1.57535 0
M  V30 35188 C 3137.81 -0.669491 1.83786 0
M  V30 35189 C 3138.19 -1.89394 0.932364 0
M  V30 35190 O 3137.53 -2.28499 -0.00809212 0
M  V30 35191 C 3137.74 -1.03249 3.33378 0
M  V30 35192 C 3139.09 -1.41734 4.00246 0
M  V30 35193 O 3140.12 -1.12501 3.37967 0
M  V30 35194 O 3138.97 -1.96266 5.10041 0
M  V30 35195 H 3136.07 -0.329906 0.758348 0
M  V30 35196 H 3138.61 0.0740713 1.69538 0
M  V30 35197 H 3137.39 -0.161709 3.90966 0
M  V30 35198 H 3137.01 -1.8337 3.52791 0
M  V30 35199 N 3138.01 -1.5594 -0.228159 0
M  V30 35200 C 3138.94 -1.94893 -1.28604 0
M  V30 35201 C 3139.92 -0.816271 -1.49235 0
M  V30 35202 O 3141.1 -1.07806 -1.61529 0
M  V30 35203 C 3138.23 -2.2599 -2.63715 0
M  V30 35204 C 3137.19 -3.41685 -2.57751 0
M  V30 35205 C 3136.51 -3.5837 -3.96831 0
M  V30 35206 C 3137.81 -4.76846 -2.13107 0
M  V30 35207 H 3139.51 -2.83508 -0.962481 0
M  V30 35208 H 3137.05 -1.36403 -0.461553 0
M  V30 35209 H 3139.01 -2.51832 -3.37874 0
M  V30 35210 H 3137.73 -1.34222 -2.97745 0
M  V30 35211 H 3136.39 -3.15881 -1.8605 0
M  V30 35212 H 3136.04 -2.63989 -4.28157 0
M  V30 35213 H 3135.74 -4.36183 -3.93724 0
M  V30 35214 H 3137.26 -3.86554 -4.72661 0
M  V30 35215 H 3138.67 -5.01937 -2.77006 0
M  V30 35216 H 3137.07 -5.57895 -2.21074 0
M  V30 35217 H 3138.14 -4.72647 -1.08317 0
M  V30 35218 N 3139.48 0.494597 -1.49638 0
M  V30 35219 C 3140.39 1.62169 -1.69524 0
M  V30 35220 C 3141.41 1.64122 -0.577923 0
M  V30 35221 O 3142.59 1.82425 -0.853414 0
M  V30 35222 C 3139.65 2.98507 -1.76336 0
M  V30 35223 C 3138.71 3.0713 -2.9995 0
M  V30 35224 C 3137.95 4.36965 -3.06426 0
M  V30 35225 O 3138.17 5.26132 -2.20322 0
M  V30 35226 O 3137.1 4.50693 -3.98948 0
M  V30 35227 H 3140.93 1.48319 -2.65019 0
M  V30 35228 H 3138.51 0.671579 -1.33455 0
M  V30 35229 H 3140.4 3.79527 -1.83132 0
M  V30 35230 H 3139.07 3.12605 -0.84021 0
M  V30 35231 H 3137.98 2.25274 -2.98667 0
M  V30 35232 H 3139.31 2.97961 -3.91765 0
M  V30 35233 N 3140.96 1.3882 0.746109 0
M  V30 35234 C 3141.91 1.3665 1.85998 0
M  V30 35235 C 3142.88 0.227878 1.64529 0
M  V30 35236 O 3144.06 0.421273 1.86091 0
M  V30 35237 C 3141.2 1.2048 3.23386 0
M  V30 35238 C 3140.32 2.43793 3.56636 0
M  V30 35239 C 3139.45 2.20296 4.83367 0
M  V30 35240 C 3138.49 3.39341 5.09425 0
M  V30 35241 N 3137.63 3.15231 6.27354 0
M  V30 35242 H 3142.47 2.31872 1.87188 0
M  V30 35243 H 3140.01 1.15193 0.914817 0
M  V30 35244 H 3141.96 1.09119 4.02677 0
M  V30 35245 H 3140.59 0.288931 3.21504 0
M  V30 35246 H 3139.65 2.65799 2.72131 0
M  V30 35247 H 3140.96 3.32496 3.71817 0
M  V30 35248 H 3140.11 2.06113 5.70616 0
M  V30 35249 H 3138.85 1.28969 4.70338 0
M  V30 35250 H 3137.86 3.54034 4.20642 0
M  V30 35251 H 3139.08 4.31553 5.24346 0
M  V30 35252 H 3137.03 2.26559 6.15635 0
M  V30 35253 H 3136.94 3.97487 6.43071 0
M  V30 35254 H 3138.21 3.0472 7.17472 0
M  V30 35255 N 3142.44 -0.975103 1.23812 0
M  V30 35256 C 3143.35 -2.10247 1.04084 0
M  V30 35257 C 3144.37 -1.73992 -0.0162098 0
M  V30 35258 O 3145.54 -2.00591 0.180381 0
M  V30 35259 C 3142.61 -3.4074 0.640073 0
M  V30 35260 C 3141.67 -3.90988 1.77277 0
M  V30 35261 C 3140.9 -5.15253 1.39103 0
M  V30 35262 O 3141.12 -5.69724 0.277583 0
M  V30 35263 O 3140.06 -5.59701 2.21402 0
M  V30 35264 H 3143.88 -2.29782 1.98579 0
M  V30 35265 H 3141.47 -1.08631 1.02565 0
M  V30 35266 H 3143.35 -4.19223 0.427758 0
M  V30 35267 H 3142.03 -3.22523 -0.275833 0
M  V30 35268 H 3140.93 -3.13599 2.03977 0
M  V30 35269 H 3142.27 -4.13669 2.66718 0
M  V30 35270 N 3143.92 -1.05068 -1.17467 0
M  V30 35271 C 3145.17 -0.755147 -1.87031 0
M  V30 35272 C 3145.48 0.72054 -1.81845 0
M  V30 35273 O 3146.69 1.12998 -2.46868 0
M  V30 35274 C 3145.14 -1.30058 -3.35578 0
M  V30 35275 C 3144.75 -2.80562 -3.49269 0
M  V30 35276 C 3146.49 -1.08203 -4.10478 0
M  V30 35277 C 3144.4 -3.28413 -4.91832 0
M  V30 35278 H 3143.33 -0.278792 -0.700565 0
M  V30 35279 H 3145.98 -1.26781 -1.3266 0
M  V30 35280 H 3144.36 -0.715736 -3.89478 0
M  V30 35281 H 3145.54 -3.44891 -3.05592 0
M  V30 35282 H 3143.85 -3.00944 -2.87788 0
M  V30 35283 H 3146.45 -1.41456 -5.15649 0
M  V30 35284 H 3146.79 -0.0197334 -4.16295 0
M  V30 35285 H 3147.33 -1.63202 -3.62781 0
M  V30 35286 H 3144.07 -4.34067 -4.91189 0
M  V30 35287 H 3143.59 -2.68825 -5.36184 0
M  V30 35288 H 3145.26 -3.23019 -5.60596 0
M  V30 35289 N 3145.4 1.33878 -0.831529 0
M  V30 35290 C 3146.31 2.33135 -0.261729 0
M  V30 35291 C 3147.32 1.63017 0.608401 0
M  V30 35292 O 3148.5 1.94724 0.514263 0
M  V30 35293 C 3145.56 3.42149 0.559897 0
M  V30 35294 C 3144.62 4.28002 -0.333644 0
M  V30 35295 C 3143.86 5.31809 0.448863 0
M  V30 35296 O 3144.08 5.45058 1.68131 0
M  V30 35297 O 3143.01 6.0165 -0.173302 0
M  V30 35298 H 3146.84 2.83715 -1.08348 0
M  V30 35299 H 3144.43 1.37089 -0.593873 0
M  V30 35300 H 3146.31 4.08693 1.02705 0
M  V30 35301 H 3144.98 2.93798 1.35883 0
M  V30 35302 H 3143.89 3.64351 -0.84848 0
M  V30 35303 H 3145.22 4.79816 -1.09715 0
M  V30 35304 N 3146.87 0.587281 1.46249 0
M  V30 35305 C 3148.12 0.0746102 2.02363 0
M  V30 35306 C 3148.45 -1.2871 1.45822 0
M  V30 35307 O 3147.7 -1.85787 0.614955 0
M  V30 35308 C 3148 -0.0362652 3.57382 0
M  V30 35309 C 3147.67 1.25845 4.32983 0
M  V30 35310 C 3146.33 1.61314 4.53355 0
M  V30 35311 C 3148.68 2.11502 4.76357 0
M  V30 35312 C 3146.01 2.82232 5.14356 0
M  V30 35313 C 3148.36 3.31651 5.38693 0
M  V30 35314 C 3147.03 3.67397 5.57293 0
M  V30 35315 H 3146.3 0.0273018 0.740497 0
M  V30 35316 H 3148.94 0.764834 1.75563 0
M  V30 35317 H 3147.25 -0.809644 3.83343 0
M  V30 35318 H 3148.95 -0.448768 3.98481 0
M  V30 35319 H 3145.54 0.972324 4.17425 0
M  V30 35320 H 3149.72 1.85402 4.60369 0
M  V30 35321 H 3144.98 3.1006 5.26947 0
M  V30 35322 H 3149.15 3.9829 5.7126 0
M  V30 35323 H 3146.78 4.61183 6.04329 0
M  V30 35324 N 3148.35 -1.54206 0.325309 0
M  V30 35325 C 3149.28 -2.21898 -0.573911 0
M  V30 35326 C 3150.3 -1.21954 -1.07848 0
M  V30 35327 O 3151.49 -1.48413 -0.991755 0
M  V30 35328 C 3148.59 -2.87118 -1.80045 0
M  V30 35329 C 3147.76 -4.13216 -1.43428 0
M  V30 35330 C 3146.82 -4.62013 -2.51854 0
M  V30 35331 O 3145.84 -5.26655 -2.15925 0
M  V30 35332 N 3147.05 -4.36388 -3.82812 0
M  V30 35333 H 3149.81 -2.99699 0.00572186 0
M  V30 35334 H 3147.37 -1.61217 0.148592 0
M  V30 35335 H 3149.36 -3.16686 -2.51976 0
M  V30 35336 H 3147.93 -2.13013 -2.28789 0
M  V30 35337 H 3147.15 -3.90393 -0.54653 0
M  V30 35338 H 3148.44 -4.95275 -1.16535 0
M  V30 35339 H 3147.84 -3.84652 -4.148 0
M  V30 35340 H 3146.4 -4.70607 -4.50968 0
M  V30 35341 N 3149.83 -0.0535194 -1.57509 0
M  V30 35342 C 3150.78 0.920063 -2.11668 0
M  V30 35343 C 3151.75 1.30731 -1.02462 0
M  V30 35344 O 3152.93 1.39637 -1.30023 0
M  V30 35345 C 3150.07 2.18879 -2.66807 0
M  V30 35346 C 3149.19 1.85581 -3.90107 0
M  V30 35347 C 3148.32 3.06929 -4.33553 0
M  V30 35348 C 3147.36 2.69564 -5.49547 0
M  V30 35349 N 3146.5 3.83613 -5.88036 0
M  V30 35350 H 3151.34 0.451319 -2.94563 0
M  V30 35351 H 3148.87 0.211143 -1.45577 0
M  V30 35352 H 3150.83 2.93122 -2.96876 0
M  V30 35353 H 3149.46 2.63326 -1.86706 0
M  V30 35354 H 3148.51 1.01477 -3.66615 0
M  V30 35355 H 3149.83 1.54078 -4.74406 0
M  V30 35356 H 3148.98 3.89469 -4.65187 0
M  V30 35357 H 3147.72 3.41612 -3.4807 0
M  V30 35358 H 3146.72 1.85441 -5.17583 0
M  V30 35359 H 3147.95 2.36071 -6.36748 0
M  V30 35360 H 3145.9 4.18092 -5.05505 0
M  V30 35361 H 3145.81 3.55816 -6.67031 0
M  V30 35362 H 3147.08 4.66785 -6.24285 0
M  V30 35363 N 3151.31 1.56059 0.219886 0
M  V30 35364 C 3152.22 1.95721 1.29346 0
M  V30 35365 C 3153.24 0.861275 1.51189 0
M  V30 35366 O 3154.41 1.16498 1.64287 0
M  V30 35367 C 3151.48 2.26731 2.62286 0
M  V30 35368 C 3150.54 3.49902 2.48731 0
M  V30 35369 C 3149.77 3.79423 3.75332 0
M  V30 35370 O 3149.99 3.10595 4.78421 0
M  V30 35371 O 3148.93 4.7291 3.72344 0
M  V30 35372 H 3152.75 2.87217 0.986929 0
M  V30 35373 H 3150.34 1.4329 0.422885 0
M  V30 35374 H 3152.22 2.47863 3.40796 0
M  V30 35375 H 3150.9 1.38409 2.92617 0
M  V30 35376 H 3149.8 3.34046 1.68416 0
M  V30 35377 H 3151.14 4.38612 2.2334 0
M  V30 35378 N 3152.79 -0.486655 1.49898 0
M  V30 35379 C 3153.72 -1.59491 1.70543 0
M  V30 35380 C 3154.7 -1.60818 0.554213 0
M  V30 35381 O 3155.88 -1.77332 0.791648 0
M  V30 35382 C 3153.01 -2.97905 1.78522 0
M  V30 35383 C 3151.97 -3.11444 2.93576 0
M  V30 35384 C 3151.29 -4.51351 2.86682 0
M  V30 35385 C 3152.59 -2.90119 4.34313 0
M  V30 35386 H 3154.29 -1.42467 2.63331 0
M  V30 35387 H 3151.83 -0.683947 1.26721 0
M  V30 35388 H 3153.79 -3.75348 1.9155 0
M  V30 35389 H 3152.51 -3.16049 0.823437 0
M  V30 35390 H 3151.17 -2.36429 2.80173 0
M  V30 35391 H 3150.82 -4.66392 1.88381 0
M  V30 35392 H 3150.52 -4.61348 3.63912 0
M  V30 35393 H 3152.04 -5.30836 3.01737 0
M  V30 35394 H 3153.46 -3.57323 4.48323 0
M  V30 35395 H 3151.85 -3.11576 5.12875 0
M  V30 35396 H 3152.92 -1.86111 4.47762 0
M  V30 35397 N 3154.27 -1.39214 -0.738737 0
M  V30 35398 C 3155.49 -1.39683 -1.53308 0
M  V30 35399 C 3155.92 0.00765409 -1.88098 0
M  V30 35400 O 3155.27 0.993672 -1.51644 0
M  V30 35401 C 3155.32 -2.27284 -2.79954 0
M  V30 35402 O 3154.43 -1.70015 -3.75724 0
M  V30 35403 H 3153.77 -0.47583 -0.463122 0
M  V30 35404 H 3156.3 -1.83163 -0.911736 0
M  V30 35405 H 3156.31 -2.41665 -3.28728 0
M  V30 35406 H 3154.98 -3.29355 -2.53964 0
M  V30 35407 H 3153.56 -1.64857 -3.3448 0
M  V30 35408 N 3155.74 0.968523 -1.24328 0
M  V30 35409 C 3156.68 2.06173 -0.978157 0
M  V30 35410 C 3157.65 1.62363 0.0877822 0
M  V30 35411 O 3158.84 1.88436 -0.0489803 0
M  V30 35412 C 3155.97 3.35339 -0.475943 0
M  V30 35413 C 3155.01 3.981 -1.5303 0
M  V30 35414 S 3155.84 4.35836 -3.11139 0
M  V30 35415 C 3157 5.6814 -2.62618 0
M  V30 35416 H 3157.23 2.28345 -1.90384 0
M  V30 35417 H 3154.77 1.10632 -1.07703 0
M  V30 35418 H 3156.72 4.10047 -0.192811 0
M  V30 35419 H 3155.39 3.11156 0.429012 0
M  V30 35420 H 3154.58 4.91185 -1.12931 0
M  V30 35421 H 3154.18 3.29819 -1.7634 0
M  V30 35422 H 3156.47 6.45621 -2.05378 0
M  V30 35423 H 3157.42 6.13095 -3.54288 0
M  V30 35424 H 3157.82 5.26709 -2.03072 0
M  V30 35425 N 3157.22 1.0569 1.16908 0
M  V30 35426 C 3158.64 0.779191 1.39287 0
M  V30 35427 C 3158.84 -0.624197 1.91588 0
M  V30 35428 O 3157.89 -1.38578 2.11074 0
M  V30 35429 C 3159.21 1.83899 2.37911 0
M  V30 35430 C 3160.75 1.86179 2.51608 0
M  V30 35431 C 3161.23 2.91196 3.53509 0
M  V30 35432 N 3162.72 2.90191 3.61031 0
M  V30 35433 C 3163.46 3.68096 4.39651 0
M  V30 35434 N 3162.95 4.55802 5.21744 0
M  V30 35435 N 3164.74 3.56514 4.34573 0
M  V30 35436 H 3156.9 1.96228 0.812925 0
M  V30 35437 H 3159.16 0.849982 0.419803 0
M  V30 35438 H 3158.86 2.84648 2.06563 0
M  V30 35439 H 3158.74 1.68485 3.3748 0
M  V30 35440 H 3161.13 0.860919 2.82263 0
M  V30 35441 H 3161.21 2.05671 1.52096 0
M  V30 35442 H 3160.85 3.91472 3.23592 0
M  V30 35443 H 3160.78 2.68955 4.52737 0
M  V30 35444 H 3163.27 2.26602 3.02424 0
M  V30 35445 H 3163.58 5.11918 5.7893 0
M  V30 35446 H 3161.93 4.5986 5.21108 0
M  V30 35447 H 3165.12 2.87386 3.69496 0
M  V30 35448 H 3165.29 4.17475 4.956 0
M  V30 35449 N 3158.7 -1.33435 0.838617 0
M  V30 35450 C 3159.95 -1.98083 0.434847 0
M  V30 35451 C 3160.28 -1.66277 -1.00328 0
M  V30 35452 O 3159.55 -0.942531 -1.70137 0
M  V30 35453 C 3159.84 -3.54081 0.655664 0
M  V30 35454 C 3159.69 -3.95575 2.14104 0
M  V30 35455 C 3161.01 -4.39983 0.101653 0
M  V30 35456 H 3158.13 -0.719541 0.159468 0
M  V30 35457 H 3160.77 -1.58079 1.05408 0
M  V30 35458 H 3158.92 -3.88287 0.128569 0
M  V30 35459 H 3160.59 -3.71626 2.73298 0
M  V30 35460 H 3158.83 -3.45315 2.62564 0
M  V30 35461 H 3159.51 -5.04228 2.2463 0
M  V30 35462 H 3161.98 -4.1242 0.552195 0
M  V30 35463 H 3160.86 -5.48155 0.285847 0
M  V30 35464 H 3161.12 -4.30768 -0.99454 0
M  V30 35465 N 3160.18 -0.595029 -1.45935 0
M  V30 35466 C 3161.12 0.131125 -2.30427 0
M  V30 35467 C 3162.09 0.872207 -1.41357 0
M  V30 35468 O 3163.28 0.860437 -1.70297 0
M  V30 35469 C 3160.42 1.13081 -3.26047 0
M  V30 35470 C 3159.53 0.391906 -4.30219 0
M  V30 35471 C 3158.67 1.38021 -5.12956 0
M  V30 35472 C 3157.71 0.628398 -6.08866 0
M  V30 35473 N 3156.84 1.56536 -6.84427 0
M  V30 35474 H 3161.68 -0.595411 -2.91991 0
M  V30 35475 H 3159.22 -0.30543 -1.43894 0
M  V30 35476 H 3161.18 1.72341 -3.7994 0
M  V30 35477 H 3159.81 1.82491 -2.66264 0
M  V30 35478 H 3158.86 -0.315962 -3.79086 0
M  V30 35479 H 3160.17 -0.195261 -4.98418 0
M  V30 35480 H 3159.33 2.04524 -5.71187 0
M  V30 35481 H 3158.07 2.0013 -4.44746 0
M  V30 35482 H 3157.07 -0.0503397 -5.49777 0
M  V30 35483 H 3158.3 0.0125217 -6.79099 0
M  V30 35484 H 3156.24 2.17434 -6.18917 0
M  V30 35485 H 3156.16 1.03131 -7.48933 0
M  V30 35486 H 3157.43 2.22036 -7.47208 0
M  V30 35487 N 3161.66 1.54031 -0.333483 0
M  V30 35488 C 3162.62 2.23331 0.515353 0
M  V30 35489 C 3163.62 1.23009 1.03564 0
M  V30 35490 O 3164.81 1.47519 0.926488 0
M  V30 35491 C 3161.94 2.94511 1.71685 0
M  V30 35492 H 3163.13 2.99763 -0.0905934 0
M  V30 35493 H 3160.69 1.5607 -0.0846926 0
M  V30 35494 H 3161.42 2.22241 2.36177 0
M  V30 35495 H 3161.21 3.68087 1.35108 0
M  V30 35496 H 3162.7 3.47282 2.31915 0
M  V30 35497 N 3163.13 0.0618717 1.57479 0
M  V30 35498 C 3164.08 -0.926592 2.13347 0
M  V30 35499 C 3165.08 -1.31501 1.06789 0
M  V30 35500 O 3166.28 -1.29341 1.25183 0
M  V30 35501 H 3162.66 -0.316717 0.682051 0
M  V30 35502 H 3164.63 -0.430372 2.9528 0
M  V30 35503 C 3163.38 -2.18829 2.70202 0
M  V30 35504 H 3162.7 -1.89823 3.51863 0
M  V30 35505 H 3164.14 -2.86127 3.12902 0
M  V30 35506 C 3162.6 -2.94017 1.64486 0
M  V30 35507 O 3163.13 -3.87353 1.06397 0
M  V30 35508 N 3161.33 -2.56942 1.35754 0
M  V30 35509 H 3160.88 -1.81116 1.8318 0
M  V30 35510 H 3160.84 -3.07554 0.652523 0
M  V30 35511 N 3164.61 -1.56173 -0.211607 0
M  V30 35512 C 3165.54 -1.96246 -1.26529 0
M  V30 35513 C 3166.52 -0.832054 -1.48361 0
M  V30 35514 O 3167.71 -1.09513 -1.60376 0
M  V30 35515 C 3164.84 -2.28775 -2.61303 0
M  V30 35516 C 3163.79 -3.44399 -2.54112 0
M  V30 35517 C 3163.12 -3.62559 -3.93007 0
M  V30 35518 C 3164.42 -4.7908 -2.08038 0
M  V30 35519 H 3166.11 -2.84513 -0.932357 0
M  V30 35520 H 3163.66 -1.36885 -0.44706 0
M  V30 35521 H 3165.61 -2.55402 -3.35184 0
M  V30 35522 H 3164.34 -1.37372 -2.96305 0
M  V30 35523 H 3162.99 -3.17837 -1.82689 0
M  V30 35524 H 3162.64 -2.68516 -4.25333 0
M  V30 35525 H 3162.34 -4.40334 -3.89075 0
M  V30 35526 H 3163.87 -3.91545 -4.68535 0
M  V30 35527 H 3165.28 -5.04846 -2.71667 0
M  V30 35528 H 3163.68 -5.60208 -2.15144 0
M  V30 35529 H 3164.75 -4.73769 -1.03298 0
M  V30 35530 N 3166.09 0.478699 -1.50154 0
M  V30 35531 C 3167.32 1.25948 -1.64779 0
M  V30 35532 C 3167.74 1.85221 -0.327827 0
M  V30 35533 O 3167.1 1.6693 0.707388 0
M  V30 35534 C 3167.15 2.34947 -2.73555 0
M  V30 35535 O 3166.25 3.39393 -2.34279 0
M  V30 35536 H 3165.59 0.370867 -0.550775 0
M  V30 35537 H 3168.12 0.570571 -1.96483 0
M  V30 35538 H 3168.13 2.80375 -2.96402 0
M  V30 35539 H 3166.81 1.91175 -3.69358 0
M  V30 35540 H 3165.38 2.99729 -2.21849 0
M  V30 35541 N 3167.57 1.39603 0.731343 0
M  V30 35542 C 3168.5 1.41355 1.85852 0
M  V30 35543 C 3169.48 0.27643 1.67839 0
M  V30 35544 O 3170.66 0.48278 1.88103 0
M  V30 35545 C 3167.79 1.25989 3.23642 0
M  V30 35546 C 3166.75 2.37138 3.563 0
M  V30 35547 C 3166.07 2.06859 4.93065 0
M  V30 35548 C 3167.37 3.79458 3.589 0
M  V30 35549 H 3169.07 2.35684 1.84644 0
M  V30 35550 H 3166.61 1.13444 0.886935 0
M  V30 35551 H 3168.57 1.25834 4.02174 0
M  V30 35552 H 3167.29 0.281292 3.25386 0
M  V30 35553 H 3165.95 2.36516 2.80099 0
M  V30 35554 H 3165.6 1.07429 4.91394 0
M  V30 35555 H 3165.3 2.81315 5.15883 0
M  V30 35556 H 3166.82 2.0836 5.7395 0
M  V30 35557 H 3168.24 3.81989 4.27501 0
M  V30 35558 H 3166.63 4.53304 3.93238 0
M  V30 35559 H 3167.7 4.10173 2.58624 0
M  V30 35560 N 3169.05 -0.961916 1.2484 0
M  V30 35561 C 3170.46 -1.52028 1.08371 0
M  V30 35562 C 3170.81 -1.93179 -0.342971 0
M  V30 35563 O 3169.93 -1.77902 -1.23206 0
M  V30 35564 C 3170.53 -2.76274 1.96107 0
M  V30 35565 C 3169.09 -3.28448 1.83845 0
M  V30 35566 C 3168.23 -2.01323 1.90694 0
M  V30 35567 H 3171.19 -0.779588 1.38232 0
M  V30 35568 H 3171.21 -3.49825 1.49676 0
M  V30 35569 H 3170.72 -2.46293 2.99936 0
M  V30 35570 H 3168.82 -3.63267 0.828717 0
M  V30 35571 H 3168.93 -3.96956 2.68258 0
M  V30 35572 H 3167.3 -2.16296 1.34492 0
M  V30 35573 H 3168.08 -1.73699 2.96114 0
M  V30 35574 N 3170.52 -1.06308 -1.16346 0
M  V30 35575 C 3171.75 -0.799487 -1.90504 0
M  V30 35576 C 3172.16 0.649924 -1.77687 0
M  V30 35577 O 3171.51 1.45667 -1.11923 0
M  V30 35578 C 3171.57 -1.11498 -3.41773 0
M  V30 35579 C 3171.23 -2.56284 -3.78375 0
M  V30 35580 C 3172.23 -3.54516 -3.80282 0
M  V30 35581 C 3169.91 -2.91587 -4.09002 0
M  V30 35582 C 3171.91 -4.86091 -4.12304 0
M  V30 35583 C 3169.59 -4.23362 -4.4069 0
M  V30 35584 C 3170.59 -5.20424 -4.42321 0
M  V30 35585 O 3170.28 -6.49834 -4.73256 0
M  V30 35586 H 3170.01 -0.28937 -0.610935 0
M  V30 35587 H 3172.57 -1.42002 -1.48407 0
M  V30 35588 H 3170.8 -0.437374 -3.84219 0
M  V30 35589 H 3172.49 -0.835603 -3.97206 0
M  V30 35590 H 3173.25 -3.28583 -3.56732 0
M  V30 35591 H 3169.13 -2.16693 -4.06897 0
M  V30 35592 H 3172.67 -5.61846 -4.13491 0
M  V30 35593 H 3168.57 -4.49052 -4.63705 0
M  V30 35594 H 3169.34 -6.54825 -4.91066 0
M  V30 35595 N 3172 1.32989 -0.845682 0
M  V30 35596 C 3172.93 2.31578 -0.298998 0
M  V30 35597 C 3173.91 1.5928 0.596984 0
M  V30 35598 O 3175.1 1.87133 0.51911 0
M  V30 35599 C 3172.23 3.43369 0.521048 0
M  V30 35600 C 3171.18 4.27085 -0.279726 0
M  V30 35601 C 3170.51 5.30555 0.664497 0
M  V30 35602 C 3171.81 5.00281 -1.50055 0
M  V30 35603 H 3173.5 2.77551 -1.12277 0
M  V30 35604 H 3171.05 1.33437 -0.541343 0
M  V30 35605 H 3173 4.11372 0.913849 0
M  V30 35606 H 3171.73 2.96102 1.37809 0
M  V30 35607 H 3170.38 3.60716 -0.654169 0
M  V30 35608 H 3170.03 4.79543 1.51813 0
M  V30 35609 H 3169.73 5.8745 0.132768 0
M  V30 35610 H 3171.26 6.01423 1.05467 0
M  V30 35611 H 3172.67 5.61014 -1.18054 0
M  V30 35612 H 3171.07 5.66858 -1.96956 0
M  V30 35613 H 3172.14 4.28661 -2.26666 0
M  V30 35614 N 3173.48 0.60276 1.45618 0
M  V30 35615 C 3174.41 -0.156972 2.28662 0
M  V30 35616 C 3175.43 -0.836372 1.39673 0
M  V30 35617 O 3176.61 -0.70257 1.64092 0
M  V30 35618 C 3173.71 -1.243 3.15282 0
M  V30 35619 C 3172.89 -0.651655 4.32518 0
M  V30 35620 C 3171.95 -1.62796 5.00384 0
M  V30 35621 O 3170.97 -1.15614 5.57335 0
M  V30 35622 N 3172.17 -2.96233 4.99226 0
M  V30 35623 H 3174.94 0.555586 2.94505 0
M  V30 35624 H 3172.5 0.441908 1.55752 0
M  V30 35625 H 3174.49 -1.89584 3.57547 0
M  V30 35626 H 3173.06 -1.85815 2.51379 0
M  V30 35627 H 3172.28 0.179139 3.93793 0
M  V30 35628 H 3173.57 -0.236713 5.08249 0
M  V30 35629 H 3172.97 -3.37171 4.54238 0
M  V30 35630 H 3171.53 -3.56951 5.4537 0
M  V30 35631 N 3174.96 -1.53852 0.341647 0
M  V30 35632 C 3176.19 -2.05299 -0.256893 0
M  V30 35633 C 3176.6 -1.21673 -1.44364 0
M  V30 35634 O 3175.96 -0.251615 -1.80757 0
M  V30 35635 C 3176.01 -3.55165 -0.673792 0
M  V30 35636 O 3175.73 -4.35617 0.465764 0
M  V30 35637 C 3177.23 -4.22776 -1.33325 0
M  V30 35638 H 3174.45 -0.66914 -0.0499327 0
M  V30 35639 H 3177 -1.98466 0.493082 0
M  V30 35640 H 3175.15 -3.62226 -1.37371 0
M  V30 35641 H 3175.56 -5.24329 0.133815 0
M  V30 35642 H 3177.04 -5.29032 -1.57573 0
M  V30 35643 H 3177.52 -3.75005 -2.28622 0
M  V30 35644 H 3178.12 -4.19903 -0.675415 0
M  V30 35645 N 3176.44 -0.0702223 -1.57443 0
M  V30 35646 C 3177.38 0.897561 -2.12632 0
M  V30 35647 C 3178.35 1.29637 -1.03843 0
M  V30 35648 O 3179.54 1.3825 -1.31497 0
M  V30 35649 C 3176.68 2.16037 -2.69114 0
M  V30 35650 C 3175.79 1.81433 -3.92054 0
M  V30 35651 C 3174.93 3.02313 -4.36784 0
M  V30 35652 C 3173.97 2.6372 -5.52375 0
M  V30 35653 N 3173.1 3.77354 -5.92071 0
M  V30 35654 H 3177.94 0.420052 -2.95025 0
M  V30 35655 H 3175.48 0.195691 -1.45793 0
M  V30 35656 H 3177.44 2.89956 -2.99969 0
M  V30 35657 H 3176.07 2.61331 -1.89489 0
M  V30 35658 H 3175.12 0.975831 -3.67671 0
M  V30 35659 H 3176.43 1.49038 -4.76014 0
M  V30 35660 H 3175.59 3.84513 -4.69291 0
M  V30 35661 H 3174.32 3.37901 -3.51674 0
M  V30 35662 H 3173.33 1.79941 -5.1952 0
M  V30 35663 H 3174.55 2.29304 -6.39216 0
M  V30 35664 H 3172.5 4.12706 -5.09911 0
M  V30 35665 H 3172.42 3.48721 -6.70768 0
M  V30 35666 H 3173.69 4.60137 -6.29201 0
M  V30 35667 N 3177.91 1.56283 0.203321 0
M  V30 35668 C 3178.86 1.90291 1.25592 0
M  V30 35669 C 3179.85 0.767757 1.41401 0
M  V30 35670 O 3181.04 1.03048 1.4391 0
M  V30 35671 C 3178.17 2.23885 2.60251 0
M  V30 35672 C 3177.26 3.43837 2.48268 0
M  V30 35673 N 3177.65 4.6197 2.05955 0
M  V30 35674 C 3175.94 3.47813 2.79182 0
M  V30 35675 C 3176.65 5.4413 2.05664 0
M  V30 35676 N 3175.62 4.84318 2.46854 0
M  V30 35677 H 3179.42 2.7913 0.919967 0
M  V30 35678 H 3176.94 1.57092 0.411802 0
M  V30 35679 H 3178.93 2.46431 3.3627 0
M  V30 35680 H 3177.59 1.36368 2.94676 0
M  V30 35681 H 3178.61 4.8679 1.76794 0
M  V30 35682 H 3175.28 2.70689 3.17858 0
M  V30 35683 H 3176.67 6.48731 1.74921 0
M  V30 35684 N 3179.39 -0.470729 1.50406 0
M  V30 35685 C 3180.64 -1.21956 1.60654 0
M  V30 35686 C 3180.96 -1.93087 0.312555 0
M  V30 35687 O 3182.16 -2.69904 0.293949 0
M  V30 35688 C 3180.62 -2.21602 2.83585 0
M  V30 35689 C 3180.23 -1.56273 4.1986 0
M  V30 35690 C 3181.97 -2.97125 3.03178 0
M  V30 35691 C 3179.88 -2.54207 5.33978 0
M  V30 35692 H 3178.81 -0.458897 0.598272 0
M  V30 35693 H 3181.46 -0.49001 1.76837 0
M  V30 35694 H 3179.84 -2.97851 2.60962 0
M  V30 35695 H 3181.01 -0.85811 4.5274 0
M  V30 35696 H 3179.33 -0.930295 4.05875 0
M  V30 35697 H 3181.93 -3.70421 3.85606 0
M  V30 35698 H 3182.27 -3.56532 2.1492 0
M  V30 35699 H 3182.8 -2.27989 3.25984 0
M  V30 35700 H 3179.54 -1.99538 6.24391 0
M  V30 35701 H 3179.06 -3.2282 5.05517 0
M  V30 35702 H 3180.74 -3.16029 5.64566 0
M  V30 35703 N 3180.87 -1.39989 -0.72393 0
M  V30 35704 C 3181.78 -1.4189 -1.86827 0
M  V30 35705 C 3182.8 -0.312431 -1.71172 0
M  V30 35706 O 3183.97 -0.555685 -1.93582 0
M  V30 35707 C 3181.04 -1.2716 -3.22539 0
M  V30 35708 C 3180.1 -2.47877 -3.50508 0
M  V30 35709 C 3179.33 -2.3384 -4.79744 0
M  V30 35710 O 3179.56 -1.34775 -5.54249 0
M  V30 35711 O 3178.49 -3.23048 -5.07862 0
M  V30 35712 H 3182.32 -2.38375 -1.88179 0
M  V30 35713 H 3179.9 -1.21223 -0.873237 0
M  V30 35714 H 3181.78 -1.21121 -4.03618 0
M  V30 35715 H 3180.46 -0.337771 -3.21933 0
M  V30 35716 H 3179.36 -2.59493 -2.69471 0
M  V30 35717 H 3180.7 -3.39991 -3.55903 0
M  V30 35718 N 3182.35 0.955282 -1.25348 0
M  V30 35719 C 3183.3 2.05186 -1.05676 0
M  V30 35720 C 3184.27 1.66065 0.0338925 0
M  V30 35721 O 3185.45 1.90402 -0.123159 0
M  V30 35722 C 3182.59 3.38317 -0.680851 0
M  V30 35723 C 3181.7 3.90559 -1.84629 0
M  V30 35724 C 3180.84 5.12013 -1.4148 0
M  V30 35725 C 3179.88 5.56482 -2.54941 0
M  V30 35726 N 3179.02 6.69147 -2.12572 0
M  V30 35727 H 3183.86 2.21346 -1.99524 0
M  V30 35728 H 3181.39 1.08471 -0.993607 0
M  V30 35729 H 3183.35 4.14832 -0.443867 0
M  V30 35730 H 3181.98 3.22045 0.220643 0
M  V30 35731 H 3181.03 3.1057 -2.19659 0
M  V30 35732 H 3182.34 4.19511 -2.69837 0
M  V30 35733 H 3181.5 5.95943 -1.13743 0
M  V30 35734 H 3180.24 4.84774 -0.533419 0
M  V30 35735 H 3179.24 4.71117 -2.83423 0
M  V30 35736 H 3180.47 5.85728 -3.43655 0
M  V30 35737 H 3178.41 6.43619 -1.26849 0
M  V30 35738 H 3178.33 6.97613 -2.91329 0
M  V30 35739 H 3179.6 7.56487 -1.88009 0
M  V30 35740 N 3183.83 1.06924 1.1578 0
M  V30 35741 C 3184.76 0.707084 2.22537 0
M  V30 35742 C 3185.74 -0.303441 1.67372 0
M  V30 35743 O 3186.92 -0.177155 1.9339 0
M  V30 35744 C 3184.05 0.0994879 3.47157 0
M  V30 35745 C 3183.01 1.03669 4.15255 0
M  V30 35746 C 3182.33 0.292068 5.33902 0
M  V30 35747 C 3183.63 2.36845 4.65512 0
M  V30 35748 H 3185.33 1.59962 2.53086 0
M  V30 35749 H 3182.87 0.770573 1.21648 0
M  V30 35750 H 3184.83 -0.165778 4.21074 0
M  V30 35751 H 3183.55 -0.828099 3.15927 0
M  V30 35752 H 3182.21 1.2868 3.43274 0
M  V30 35753 H 3181.86 -0.63884 4.98927 0
M  V30 35754 H 3181.56 0.916716 5.80405 0
M  V30 35755 H 3183.08 0.0344988 6.1059 0
M  V30 35756 H 3184.5 2.16184 5.30978 0
M  V30 35757 H 3182.89 2.94865 5.22661 0
M  V30 35758 H 3183.96 2.9946 3.81381 0
M  V30 35759 N 3185.31 -1.32538 0.852723 0
M  V30 35760 C 3186.55 -1.97318 0.455158 0
M  V30 35761 C 3186.88 -1.67491 -0.988784 0
M  V30 35762 O 3186.14 -0.954513 -1.70844 0
M  V30 35763 C 3186.43 -3.51645 0.638819 0
M  V30 35764 C 3186.1 -4.01454 2.05294 0
M  V30 35765 C 3184.76 -4.14767 2.43971 0
M  V30 35766 C 3187.11 -4.27884 2.97598 0
M  V30 35767 C 3184.44 -4.51852 3.74228 0
M  V30 35768 C 3186.79 -4.66427 4.27351 0
M  V30 35769 C 3185.46 -4.77946 4.65965 0
M  V30 35770 H 3184.73 -0.722039 0.166554 0
M  V30 35771 H 3187.38 -1.57975 1.08241 0
M  V30 35772 H 3185.68 -3.91734 -0.0716705 0
M  V30 35773 H 3187.38 -3.9979 0.311289 0
M  V30 35774 H 3183.97 -3.91576 1.7426 0
M  V30 35775 H 3188.15 -4.17109 2.68949 0
M  V30 35776 H 3183.41 -4.58965 4.03932 0
M  V30 35777 H 3187.58 -4.85832 4.98939 0
M  V30 35778 H 3185.21 -5.06439 5.66943 0
M  V30 35779 N 3186.78 -0.610474 -1.45296 0
M  V30 35780 C 3188.01 -0.113247 -2.0659 0
M  V30 35781 C 3188.43 1.20358 -1.45462 0
M  V30 35782 O 3187.78 1.73375 -0.569854 0
M  V30 35783 C 3187.83 0.0297776 -3.61488 0
M  V30 35784 O 3187.56 -1.23496 -4.20334 0
M  V30 35785 C 3189.06 0.558125 -4.39773 0
M  V30 35786 H 3186.28 -0.0701672 -0.667321 0
M  V30 35787 H 3188.82 -0.839026 -1.86496 0
M  V30 35788 H 3186.98 0.705896 -3.80915 0
M  V30 35789 H 3187.39 -1.06649 -5.13543 0
M  V30 35790 H 3188.86 0.607278 -5.48649 0
M  V30 35791 H 3189.34 1.58099 -4.09757 0
M  V30 35792 H 3189.95 -0.0840452 -4.25217 0
M  V30 35793 N 3188.26 1.53669 -0.349801 0
M  V30 35794 C 3189.22 2.23865 0.491636 0
M  V30 35795 C 3190.22 1.241 1.02254 0
M  V30 35796 O 3191.41 1.48493 0.91079 0
M  V30 35797 C 3188.55 2.96316 1.68552 0
M  V30 35798 H 3189.74 2.9965 -0.122382 0
M  V30 35799 H 3187.29 1.55972 -0.101241 0
M  V30 35800 H 3188.03 2.24734 2.33806 0
M  V30 35801 H 3187.81 3.69499 1.31197 0
M  V30 35802 H 3189.3 3.49723 2.28219 0
M  V30 35803 N 3189.74 0.0785709 1.57404 0
M  V30 35804 C 3190.69 -0.903911 2.14318 0
M  V30 35805 C 3191.68 -1.30361 1.08178 0
M  V30 35806 O 3192.89 -1.28006 1.26548 0
M  V30 35807 H 3189.26 -0.309465 0.685372 0
M  V30 35808 H 3191.23 -0.399029 2.9572 0
M  V30 35809 C 3189.98 -2.15951 2.72508 0
M  V30 35810 H 3189.31 -1.8608 3.53856 0
M  V30 35811 H 3190.75 -2.82792 3.15919 0
M  V30 35812 C 3189.2 -2.92256 1.67595 0
M  V30 35813 O 3189.73 -3.86203 1.10499 0
M  V30 35814 N 3187.94 -2.55488 1.38471 0
M  V30 35815 H 3187.49 -1.79162 1.85091 0
M  V30 35816 H 3187.45 -3.06845 0.685106 0
M  V30 35817 N 3191.22 -1.56389 -0.19503 0
M  V30 35818 C 3192.15 -1.91078 -1.26577 0
M  V30 35819 C 3193.16 -0.801461 -1.41705 0
M  V30 35820 O 3194.35 -1.07987 -1.4213 0
M  V30 35821 C 3191.45 -2.12763 -2.6379 0
M  V30 35822 C 3190.62 -3.43909 -2.70269 0
M  V30 35823 C 3189.68 -3.54705 -3.88679 0
M  V30 35824 O 3188.71 -4.27527 -3.75779 0
M  V30 35825 N 3189.91 -2.87798 -5.04136 0
M  V30 35826 H 3192.68 -2.83522 -0.971351 0
M  V30 35827 H 3190.24 -1.57257 -0.384948 0
M  V30 35828 H 3192.23 -2.17273 -3.4143 0
M  V30 35829 H 3190.8 -1.26817 -2.8572 0
M  V30 35830 H 3190.02 -3.51265 -1.78903 0
M  V30 35831 H 3191.31 -4.30252 -2.71589 0
M  V30 35832 H 3190.71 -2.28461 -5.17515 0
M  V30 35833 H 3189.26 -2.97936 -5.79722 0
M  V30 35834 N 3192.7 0.462746 -1.50653 0
M  V30 35835 C 3194.11 0.797189 -1.38264 0
M  V30 35836 C 3194.31 1.9652 -0.445206 0
M  V30 35837 O 3193.37 2.52264 0.109086 0
M  V30 35838 C 3194.68 1.10142 -2.79802 0
M  V30 35839 C 3196.23 1.20737 -2.88776 0
M  V30 35840 C 3196.7 1.54468 -4.31165 0
M  V30 35841 N 3198.19 1.61443 -4.34155 0
M  V30 35842 C 3198.93 1.89064 -5.41334 0
M  V30 35843 N 3198.43 2.14649 -6.58709 0
M  V30 35844 N 3200.22 1.90636 -5.28786 0
M  V30 35845 H 3192.37 -0.306877 -2.10171 0
M  V30 35846 H 3194.63 -0.0748028 -0.945044 0
M  V30 35847 H 3194.34 0.316145 -3.50276 0
M  V30 35848 H 3194.21 2.03553 -3.17563 0
M  V30 35849 H 3196.6 1.9833 -2.18516 0
M  V30 35850 H 3196.68 0.252859 -2.54547 0
M  V30 35851 H 3196.32 0.774119 -5.01966 0
M  V30 35852 H 3196.25 2.51084 -4.62887 0
M  V30 35853 H 3198.75 1.43677 -3.49521 0
M  V30 35854 H 3199.06 2.35022 -7.36196 0
M  V30 35855 H 3197.4 2.12024 -6.61869 0
M  V30 35856 H 3200.59 1.7015 -4.36081 0
M  V30 35857 H 3200.77 2.11825 -6.124 0
M  V30 35858 N 3194.17 1.40371 0.716495 0
M  V30 35859 C 3195.41 1.40049 1.48881 0
M  V30 35860 C 3195.78 0.00161402 1.92 0
M  V30 35861 O 3196.98 -0.126717 2.68501 0
M  V30 35862 C 3195.25 2.36158 2.68261 0
M  V30 35863 S 3196.81 2.54186 3.5768 0
M  V30 35864 H 3193.63 0.4964 0.509026 0
M  V30 35865 H 3196.23 1.76632 0.837936 0
M  V30 35866 H 3194.93 3.36629 2.34753 0
M  V30 35867 H 3194.46 2.00856 3.38261 0
M  V30 35868 H 3196.48 1.7936 4.62649 0
M  V30 35869 N 3195.65 -0.948621 1.25853 0
M  V30 35870 C 3196.88 -1.7338 1.13816 0
M  V30 35871 C 3197.3 -1.85634 -0.303582 0
M  V30 35872 O 3196.66 -1.34116 -1.21994 0
M  V30 35873 C 3196.71 -3.12235 1.80393 0
M  V30 35874 O 3195.81 -3.97799 1.08766 0
M  V30 35875 H 3195.15 -0.532236 0.397015 0
M  V30 35876 H 3197.68 -1.18863 1.66531 0
M  V30 35877 H 3197.69 -3.62664 1.86919 0
M  V30 35878 H 3196.37 -3.02632 2.85283 0
M  V30 35879 H 3194.95 -3.56256 1.10163 0
M  V30 35880 N 3197.13 -1.07536 -1.15212 0
M  V30 35881 C 3198.06 -0.641499 -2.18998 0
M  V30 35882 C 3199.04 0.34221 -1.58958 0
M  V30 35883 O 3200.23 0.248185 -1.86859 0
M  V30 35884 C 3197.35 0.0577344 -3.38651 0
M  V30 35885 C 3196.4 -0.884715 -4.17223 0
M  V30 35886 S 3197.23 -2.38671 -4.79371 0
M  V30 35887 C 3198.39 -1.69933 -6.0239 0
M  V30 35888 H 3198.62 -1.52075 -2.55461 0
M  V30 35889 H 3196.15 -0.889503 -1.26203 0
M  V30 35890 H 3198.11 0.45491 -4.07972 0
M  V30 35891 H 3196.77 0.913354 -3.00527 0
M  V30 35892 H 3195.97 -0.342221 -5.02837 0
M  V30 35893 H 3195.57 -1.22236 -3.5346 0
M  V30 35894 H 3197.86 -1.01213 -6.69897 0
M  V30 35895 H 3198.8 -2.53386 -6.61212 0
M  V30 35896 H 3199.21 -1.1765 -5.52104 0
M  V30 35897 N 3198.61 1.32084 -0.85974 0
M  V30 35898 C 3199.52 2.32528 -0.311121 0
M  V30 35899 C 3200.53 1.64271 0.573686 0
M  V30 35900 O 3201.71 1.95771 0.472843 0
M  V30 35901 C 3198.78 3.4326 0.487196 0
M  V30 35902 C 3197.84 4.27198 -0.424354 0
M  V30 35903 C 3197.07 5.32642 0.335957 0
M  V30 35904 O 3197.29 5.48502 1.56531 0
M  V30 35905 O 3196.23 6.01147 -0.300882 0
M  V30 35906 H 3200.05 2.81353 -1.14341 0
M  V30 35907 H 3197.64 1.35799 -0.622818 0
M  V30 35908 H 3199.52 4.10779 0.940131 0
M  V30 35909 H 3198.19 2.96615 1.2962 0
M  V30 35910 H 3197.1 3.62469 -0.925573 0
M  V30 35911 H 3198.43 4.77381 -1.19868 0
M  V30 35912 N 3200.09 0.618171 1.4497 0
M  V30 35913 C 3201.33 0.117517 2.02159 0
M  V30 35914 C 3201.66 -1.25588 1.48519 0
M  V30 35915 O 3200.92 -1.84441 0.654225 0
M  V30 35916 C 3201.22 0.0395489 3.57378 0
M  V30 35917 C 3200.88 1.35 4.30216 0
M  V30 35918 C 3199.54 1.70894 4.49832 0
M  V30 35919 C 3201.9 2.21559 4.71764 0
M  V30 35920 C 3199.22 2.93079 5.08253 0
M  V30 35921 C 3201.58 3.43003 5.31537 0
M  V30 35922 C 3200.24 3.79136 5.49375 0
M  V30 35923 H 3199.51 0.0430027 0.739751 0
M  V30 35924 H 3202.16 0.801902 1.73902 0
M  V30 35925 H 3200.46 -0.72815 3.84974 0
M  V30 35926 H 3202.16 -0.364143 3.99343 0
M  V30 35927 H 3198.75 1.06065 4.15269 0
M  V30 35928 H 3202.93 1.95125 4.56333 0
M  V30 35929 H 3198.19 3.21168 5.20251 0
M  V30 35930 H 3202.36 4.10318 5.62683 0
M  V30 35931 H 3199.99 4.73898 5.94411 0
M  V30 35932 N 3201.56 -1.53481 0.357946 0
M  V30 35933 C 3202.51 -2.22259 -0.508411 0
M  V30 35934 C 3203.5 -1.21507 -1.05474 0
M  V30 35935 O 3204.69 -1.4699 -0.98605 0
M  V30 35936 C 3201.82 -3.00965 -1.65152 0
M  V30 35937 C 3200.91 -4.09086 -1.11844 0
M  V30 35938 N 3201.3 -5.04863 -0.307729 0
M  V30 35939 C 3199.59 -4.23656 -1.39398 0
M  V30 35940 C 3200.3 -5.81698 -0.0167397 0
M  V30 35941 N 3199.27 -5.40141 -0.612301 0
M  V30 35942 H 3203.07 -2.93663 0.117888 0
M  V30 35943 H 3200.59 -1.61554 0.165558 0
M  V30 35944 H 3202.58 -3.48749 -2.28429 0
M  V30 35945 H 3201.24 -2.3109 -2.28096 0
M  V30 35946 H 3202.26 -5.17873 0.0524223 0
M  V30 35947 H 3198.93 -3.65005 -2.02675 0
M  V30 35948 H 3200.32 -6.68863 0.638163 0
M  V30 35949 N 3203.04 -0.0869173 -1.5736 0
M  V30 35950 C 3204.46 0.269734 -1.57304 0
M  V30 35951 C 3204.66 1.6899 -1.09748 0
M  V30 35952 O 3203.71 2.40466 -0.770213 0
M  V30 35953 C 3205.03 0.0656118 -3.00628 0
M  V30 35954 C 3206.58 0.13399 -3.12713 0
M  V30 35955 C 3207.05 -0.0420374 -4.57981 0
M  V30 35956 N 3208.54 0.0130687 -4.63198 0
M  V30 35957 C 3209.28 -0.0984972 -5.73315 0
M  V30 35958 N 3208.77 -0.264437 -6.92295 0
M  V30 35959 N 3210.57 -0.0403505 -5.62086 0
M  V30 35960 H 3202.72 -1.0149 -1.86584 0
M  V30 35961 H 3204.98 -0.39707 -0.860837 0
M  V30 35962 H 3204.69 -0.914951 -3.3959 0
M  V30 35963 H 3204.56 0.811457 -3.68368 0
M  V30 35964 H 3206.95 1.10505 -2.73629 0
M  V30 35965 H 3207.03 -0.64321 -2.47581 0
M  V30 35966 H 3206.67 -1.00993 -4.97758 0
M  V30 35967 H 3206.6 0.754755 -5.21163 0
M  V30 35968 H 3209.09 0.139117 -3.77644 0
M  V30 35969 H 3209.41 -0.341301 -7.72046 0
M  V30 35970 H 3207.75 -0.299998 -6.94352 0
M  V30 35971 H 3210.94 0.0880978 -4.68017 0
M  V30 35972 H 3211.11 -0.130748 -6.47868 0
M  V30 35973 N 3204.52 1.5649 0.186734 0
M  V30 35974 C 3205.77 1.80305 0.904045 0
M  V30 35975 C 3206.08 0.66157 1.84072 0
M  V30 35976 O 3207.29 0.784243 2.59927 0
M  V30 35977 C 3205.74 3.19434 1.658 0
M  V30 35978 C 3205.35 4.41408 0.765729 0
M  V30 35979 C 3207.1 3.52554 2.36445 0
M  V30 35980 C 3205 5.71559 1.51903 0
M  V30 35981 H 3203.93 0.672323 0.341318 0
M  V30 35982 H 3206.58 1.82826 0.157186 0
M  V30 35983 H 3204.97 3.11187 2.44905 0
M  V30 35984 H 3206.14 4.60798 0.0127415 0
M  V30 35985 H 3204.46 4.16054 0.169699 0
M  V30 35986 H 3207.05 4.47032 2.9337 0
M  V30 35987 H 3207.4 2.76696 3.11039 0
M  V30 35988 H 3207.93 3.62286 1.64298 0
M  V30 35989 H 3204.67 6.50405 0.815715 0
M  V30 35990 H 3204.19 5.56171 2.24574 0
M  V30 35991 H 3205.87 6.12972 2.07062 0
M  V30 35992 N 3206 -0.45475 1.50897 0
M  V30 35993 C 3206.93 -1.56998 1.6561 0
M  V30 35994 C 3207.91 -1.54595 0.503897 0
M  V30 35995 O 3209.09 -1.73978 0.725516 0
M  V30 35996 C 3206.22 -2.95584 1.65372 0
M  V30 35997 C 3205.27 -3.1608 2.86349 0
M  V30 35998 S 3206.1 -2.94232 4.47424 0
M  V30 35999 C 3207.26 -4.3513 4.49903 0
M  V30 36000 H 3207.49 -1.4428 2.59943 0
M  V30 36001 H 3205.02 -0.64324 1.40363 0
M  V30 36002 H 3206.98 -3.75475 1.65918 0
M  V30 36003 H 3205.64 -3.05678 0.72246 0
M  V30 36004 H 3204.83 -4.17362 2.82533 0
M  V30 36005 H 3204.44 -2.43987 2.83454 0
M  V30 36006 H 3206.73 -5.28044 4.24471 0
M  V30 36007 H 3207.67 -4.43986 5.51618 0
M  V30 36008 H 3208.08 -4.17972 3.7942 0
M  V30 36009 N 3207.48 -1.40749 -0.709041 0
M  V30 36010 C 3208.42 -1.41534 -1.8231 0
M  V30 36011 C 3209.39 -0.27142 -1.63867 0
M  V30 36012 O 3210.58 -0.470464 -1.84909 0
M  V30 36013 C 3207.72 -1.29012 -3.20078 0
M  V30 36014 C 3206.83 -2.53163 -3.50047 0
M  V30 36015 C 3205.97 -2.33034 -4.77356 0
M  V30 36016 C 3205.01 -3.52728 -5.00249 0
M  V30 36017 N 3204.14 -3.31754 -6.18776 0
M  V30 36018 H 3208.98 -2.36754 -1.80974 0
M  V30 36019 H 3206.52 -1.17578 -0.883954 0
M  V30 36020 H 3208.48 -1.19756 -3.99643 0
M  V30 36021 H 3207.11 -0.37407 -3.20625 0
M  V30 36022 H 3206.16 -2.7292 -2.64988 0
M  V30 36023 H 3207.47 -3.42237 -3.62871 0
M  V30 36024 H 3206.63 -2.21169 -5.6495 0
M  V30 36025 H 3205.36 -1.41394 -4.66754 0
M  V30 36026 H 3204.37 -3.65062 -4.11108 0
M  V30 36027 H 3205.59 -4.45304 -5.1272 0
M  V30 36028 H 3203.54 -2.42802 -6.09412 0
M  V30 36029 H 3203.46 -4.14397 -6.32306 0
M  V30 36030 H 3204.73 -3.23635 -7.09141 0
M  V30 36031 N 3208.96 0.941933 -1.26354 0
M  V30 36032 C 3209.9 2.04054 -1.07846 0
M  V30 36033 C 3210.87 1.66092 0.0162772 0
M  V30 36034 O 3212.06 1.90261 -0.143347 0
M  V30 36035 C 3209.2 3.37576 -0.716696 0
M  V30 36036 C 3208.31 3.88579 -1.88761 0
M  V30 36037 C 3207.45 5.10483 -1.46902 0
M  V30 36038 C 3206.48 5.53746 -2.60828 0
M  V30 36039 N 3205.62 6.66855 -2.19657 0
M  V30 36040 H 3210.46 2.19218 -2.0186 0
M  V30 36041 H 3208 1.07411 -1.00506 0
M  V30 36042 H 3209.96 4.14338 -0.487841 0
M  V30 36043 H 3208.59 3.22261 0.186474 0
M  V30 36044 H 3207.64 3.08223 -2.22941 0
M  V30 36045 H 3208.95 4.16625 -2.74272 0
M  V30 36046 H 3208.1 5.94703 -1.20057 0
M  V30 36047 H 3206.84 4.84181 -0.584806 0
M  V30 36048 H 3205.85 4.68085 -2.88404 0
M  V30 36049 H 3207.07 5.8205 -3.49849 0
M  V30 36050 H 3205.02 6.42237 -1.33669 0
M  V30 36051 H 3204.94 6.94483 -2.98712 0
M  V30 36052 H 3206.2 7.54451 -1.96022 0
M  V30 36053 N 3210.43 1.08146 1.1464 0
M  V30 36054 C 3211.36 0.730648 2.21774 0
M  V30 36055 C 3212.34 -0.285672 1.67684 0
M  V30 36056 O 3213.53 -0.156633 1.93567 0
M  V30 36057 C 3210.66 0.136303 3.47032 0
M  V30 36058 C 3209.61 1.08067 4.14132 0
M  V30 36059 C 3208.94 0.348679 5.33562 0
M  V30 36060 C 3210.24 2.41769 4.62974 0
M  V30 36061 H 3211.93 1.62637 2.51375 0
M  V30 36062 H 3209.48 0.783432 1.20824 0
M  V30 36063 H 3211.43 -0.121108 4.21226 0
M  V30 36064 H 3210.16 -0.794544 3.16788 0
M  V30 36065 H 3208.82 1.32314 3.4189 0
M  V30 36066 H 3208.46 -0.585887 4.99576 0
M  V30 36067 H 3208.16 0.978224 5.794 0
M  V30 36068 H 3209.69 0.0992582 6.10519 0
M  V30 36069 H 3211.1 2.21804 5.28655 0
M  V30 36070 H 3209.5 3.00392 5.19504 0
M  V30 36071 H 3210.57 3.03488 3.78184 0
M  V30 36072 N 3211.91 -1.31626 0.866732 0
M  V30 36073 C 3212.86 -2.28596 0.318209 0
M  V30 36074 C 3213.83 -1.55587 -0.581531 0
M  V30 36075 O 3215.01 -1.8375 -0.513863 0
M  V30 36076 C 3212.15 -3.41786 -0.477076 0
M  V30 36077 C 3211.27 -4.29652 0.449815 0
M  V30 36078 C 3210.4 -5.29984 -0.359279 0
M  V30 36079 C 3209.44 -6.09494 0.564245 0
M  V30 36080 N 3208.58 -7.01791 -0.208403 0
M  V30 36081 H 3213.42 -2.74902 1.15034 0
M  V30 36082 H 3210.95 -1.3524 0.578672 0
M  V30 36083 H 3212.91 -4.06148 -0.953913 0
M  V30 36084 H 3211.54 -2.96599 -1.27393 0
M  V30 36085 H 3210.59 -3.65762 1.04509 0
M  V30 36086 H 3211.91 -4.8517 1.15809 0
M  V30 36087 H 3211.06 -6.00006 -0.898765 0
M  V30 36088 H 3209.8 -4.75113 -1.10086 0
M  V30 36089 H 3208.8 -5.38365 1.11551 0
M  V30 36090 H 3210.03 -6.66451 1.30463 0
M  V30 36091 H 3207.98 -6.49333 -0.932855 0
M  V30 36092 H 3207.89 -7.54715 0.440596 0
M  V30 36093 H 3209.16 -7.76082 -0.729223 0
M  V30 36094 N 3213.39 -0.62585 -1.4464 0
M  V30 36095 C 3214.62 -0.134957 -2.06159 0
M  V30 36096 C 3215.03 1.19354 -1.46803 0
M  V30 36097 O 3214.37 1.74191 -0.583376 0
M  V30 36098 C 3214.43 0.0597849 -3.5945 0
M  V30 36099 C 3214.1 -1.18973 -4.41242 0
M  V30 36100 C 3215.09 -2.1122 -4.7506 0
M  V30 36101 C 3212.78 -1.42367 -4.81702 0
M  V30 36102 C 3214.77 -3.25175 -5.48215 0
M  V30 36103 C 3212.46 -2.5662 -5.54608 0
M  V30 36104 C 3213.46 -3.47851 -5.87783 0
M  V30 36105 O 3213.15 -4.60112 -6.59205 0
M  V30 36106 H 3212.88 -0.0744582 -0.671887 0
M  V30 36107 H 3215.43 -0.858808 -1.86584 0
M  V30 36108 H 3213.66 0.838726 -3.77495 0
M  V30 36109 H 3215.35 0.504568 -4.02752 0
M  V30 36110 H 3216.12 -1.94379 -4.44344 0
M  V30 36111 H 3212 -0.722481 -4.55303 0
M  V30 36112 H 3215.54 -3.96406 -5.74028 0
M  V30 36113 H 3211.44 -2.73407 -5.84738 0
M  V30 36114 H 3212.2 -4.59027 -6.7767 0
M  V30 36115 N 3214.87 1.53289 -0.36608 0
M  V30 36116 C 3216.11 2.01561 0.223788 0
M  V30 36117 C 3216.45 1.25288 1.48379 0
M  V30 36118 O 3215.72 0.346723 1.91385 0
M  V30 36119 C 3216 3.56395 0.515237 0
M  V30 36120 C 3215.86 4.4336 -0.758435 0
M  V30 36121 C 3217.18 4.19976 1.3156 0
M  V30 36122 H 3214.3 0.73266 0.0798623 0
M  V30 36123 H 3216.94 1.83544 -0.49107 0
M  V30 36124 H 3215.09 3.71878 1.12422 0
M  V30 36125 H 3216.76 4.39672 -1.39592 0
M  V30 36126 H 3215 4.11308 -1.37869 0
M  V30 36127 H 3215.67 5.49644 -0.509463 0
M  V30 36128 H 3218.15 4.08328 0.800442 0
M  V30 36129 H 3217.03 5.28339 1.48827 0
M  V30 36130 H 3217.29 3.76073 2.32426 0
M  V30 36131 N 3216.35 0.0952613 1.57312 0
M  V30 36132 C 3217.28 -0.860715 2.17057 0
M  V30 36133 C 3218.26 -1.29409 1.10396 0
M  V30 36134 O 3219.44 -1.36095 1.38534 0
M  V30 36135 C 3216.57 -2.11979 2.75104 0
M  V30 36136 C 3215.53 -1.82503 3.87139 0
M  V30 36137 C 3214.85 -3.1524 4.31889 0
M  V30 36138 C 3216.15 -1.11185 5.10328 0
M  V30 36139 H 3217.85 -0.362931 2.97192 0
M  V30 36140 H 3215.39 -0.173126 1.42955 0
M  V30 36141 H 3217.34 -2.79293 3.15552 0
M  V30 36142 H 3216.07 -2.64041 1.92224 0
M  V30 36143 H 3214.73 -1.17586 3.47231 0
M  V30 36144 H 3214.38 -3.65189 3.45899 0
M  V30 36145 H 3214.08 -2.963 5.07425 0
M  V30 36146 H 3215.6 -3.83712 4.74971 0
M  V30 36147 H 3217.01 -1.6861 5.47945 0
M  V30 36148 H 3215.41 -1.02424 5.91295 0
M  V30 36149 H 3216.48 -0.0946374 4.84808 0
M  V30 36150 N 3217.82 -1.56587 -0.178432 0
M  V30 36151 C 3219.05 -1.86074 -0.916028 0
M  V30 36152 C 3219.47 -0.680785 -1.75348 0
M  V30 36153 O 3218.83 0.370248 -1.77479 0
M  V30 36154 C 3218.88 -3.13923 -1.77439 0
M  V30 36155 O 3217.98 -2.95646 -2.87519 0
M  V30 36156 H 3217.32 -0.612239 -0.257021 0
M  V30 36157 H 3219.85 -2.03818 -0.178719 0
M  V30 36158 H 3219.86 -3.45146 -2.17574 0
M  V30 36159 H 3218.54 -3.99419 -1.1592 0
M  V30 36160 H 3217.12 -2.75761 -2.51018 0
M  V30 36161 N 3219.3 0.446741 -1.51136 0
M  V30 36162 C 3220.53 1.21785 -1.66889 0
M  V30 36163 C 3220.94 1.85709 -0.361762 0
M  V30 36164 O 3220.28 1.71095 0.668754 0
M  V30 36165 C 3220.34 2.34989 -2.72067 0
M  V30 36166 C 3220.01 1.91509 -4.14938 0
M  V30 36167 C 3221.01 1.4238 -5.00024 0
M  V30 36168 C 3218.69 1.99487 -4.60988 0
M  V30 36169 C 3220.68 1.01805 -6.29217 0
M  V30 36170 C 3218.37 1.58522 -5.90181 0
M  V30 36171 C 3219.37 1.09762 -6.74123 0
M  V30 36172 O 3219.06 0.69375 -8.00901 0
M  V30 36173 H 3218.79 0.373515 -0.563438 0
M  V30 36174 H 3221.34 0.536783 -1.98262 0
M  V30 36175 H 3219.57 3.06344 -2.35988 0
M  V30 36176 H 3221.26 2.96884 -2.76793 0
M  V30 36177 H 3222.03 1.35619 -4.65653 0
M  V30 36178 H 3217.91 2.36386 -3.95781 0
M  V30 36179 H 3221.45 0.636757 -6.94688 0
M  V30 36180 H 3217.35 1.64951 -6.24069 0
M  V30 36181 H 3218.12 0.820439 -8.14378 0
M  V30 36182 N 3220.78 1.41123 0.701567 0
M  V30 36183 C 3222.03 1.40366 1.46374 0
M  V30 36184 C 3222.36 0.0105784 1.94197 0
M  V30 36185 O 3221.63 -0.960608 1.69123 0
M  V30 36186 C 3221.92 2.40528 2.67989 0
M  V30 36187 C 3221.77 3.88918 2.25971 0
M  V30 36188 C 3223.09 2.38028 3.70177 0
M  V30 36189 H 3220.21 0.511169 0.53092 0
M  V30 36190 H 3222.85 1.72357 0.799558 0
M  V30 36191 H 3221 2.13377 3.24657 0
M  V30 36192 H 3222.67 4.26949 1.74676 0
M  V30 36193 H 3220.91 4.04074 1.57818 0
M  V30 36194 H 3221.59 4.54539 3.13207 0
M  V30 36195 H 3224.06 2.62109 3.23169 0
M  V30 36196 H 3222.94 3.10135 4.52888 0
M  V30 36197 H 3223.2 1.39677 4.19455 0
M  V30 36198 N 3222.26 -0.935219 1.26852 0
M  V30 36199 C 3223.49 -1.71633 1.15541 0
M  V30 36200 C 3223.9 -1.8658 -0.288665 0
M  V30 36201 O 3223.26 -1.37745 -1.19719 0
M  V30 36202 C 3223.31 -3.11995 1.82595 0
M  V30 36203 O 3223.03 -2.97757 3.2136 0
M  V30 36204 C 3224.53 -4.06294 1.77315 0
M  V30 36205 H 3221.75 -0.537201 0.402064 0
M  V30 36206 H 3224.29 -1.172 1.67584 0
M  V30 36207 H 3222.45 -3.63311 1.34476 0
M  V30 36208 H 3222.86 -3.8644 3.54633 0
M  V30 36209 H 3224.34 -5.02322 2.28859 0
M  V30 36210 H 3224.81 -4.32906 0.7409 0
M  V30 36211 H 3225.42 -3.609 2.25013 0
M  V30 36212 N 3223.74 -1.08752 -1.14065 0
M  V30 36213 C 3224.68 -0.720671 -2.1926 0
M  V30 36214 C 3225.65 0.294819 -1.63463 0
M  V30 36215 O 3226.84 0.178025 -1.89968 0
M  V30 36216 C 3223.98 -0.139934 -3.44816 0
M  V30 36217 C 3223.09 -1.20863 -4.14748 0
M  V30 36218 C 3222.23 -0.591377 -5.27898 0
M  V30 36219 C 3221.27 -1.64186 -5.89669 0
M  V30 36220 N 3220.4 -1.04615 -6.94262 0
M  V30 36221 H 3225.24 -1.62203 -2.49989 0
M  V30 36222 H 3222.78 -0.810518 -1.22756 0
M  V30 36223 H 3224.74 0.214514 -4.16648 0
M  V30 36224 H 3223.37 0.724718 -3.14559 0
M  V30 36225 H 3222.42 -1.68046 -3.41269 0
M  V30 36226 H 3223.73 -2.00454 -4.56749 0
M  V30 36227 H 3222.89 -0.185378 -6.06417 0
M  V30 36228 H 3221.62 0.23615 -4.87128 0
M  V30 36229 H 3220.63 -2.05748 -5.09851 0
M  V30 36230 H 3221.85 -2.47193 -6.32513 0
M  V30 36231 H 3219.8 -0.239779 -6.55562 0
M  V30 36232 H 3219.72 -1.77911 -7.34768 0
M  V30 36233 H 3220.99 -0.666125 -7.76649 0
M  V30 36234 N 3225.21 1.31165 -0.873701 0
M  V30 36235 C 3226.46 1.95841 -0.482612 0
M  V30 36236 C 3226.78 1.69805 0.970851 0
M  V30 36237 O 3227.98 2.28373 1.46826 0
M  V30 36238 C 3226.44 3.50617 -0.812135 0
M  V30 36239 C 3226.05 3.85488 -2.28261 0
M  V30 36240 C 3227.79 4.21666 -0.489698 0
M  V30 36241 C 3225.7 5.33392 -2.55435 0
M  V30 36242 H 3224.63 0.732991 -0.176748 0
M  V30 36243 H 3227.28 1.49281 -1.06712 0
M  V30 36244 H 3225.66 3.95689 -0.156839 0
M  V30 36245 H 3226.83 3.51364 -2.98128 0
M  V30 36246 H 3225.15 3.27514 -2.57145 0
M  V30 36247 H 3227.75 5.30487 -0.669905 0
M  V30 36248 H 3228.09 4.12377 0.570132 0
M  V30 36249 H 3228.62 3.8224 -1.1017 0
M  V30 36250 H 3225.36 5.4772 -3.60115 0
M  V30 36251 H 3224.88 5.68856 -1.90166 0
M  V30 36252 H 3226.56 6.00698 -2.40356 0
M  V30 36253 N 3226.69 0.633512 1.44307 0
M  V30 36254 C 3227.64 -0.0699852 2.30694 0
M  V30 36255 C 3228.61 -0.834422 1.4362 0
M  V30 36256 O 3229.79 -0.814983 1.72519 0
M  V30 36257 C 3226.93 -1.04397 3.2893 0
M  V30 36258 C 3226.05 -0.277703 4.31106 0
M  V30 36259 C 3225.18 -1.24372 5.16435 0
M  V30 36260 C 3224.22 -0.466747 6.10318 0
M  V30 36261 N 3223.36 -1.38335 6.88337 0
M  V30 36262 H 3228.2 0.672618 2.9031 0
M  V30 36263 H 3225.74 0.343474 1.43034 0
M  V30 36264 H 3227.69 -1.62207 3.84376 0
M  V30 36265 H 3226.32 -1.75368 2.71009 0
M  V30 36266 H 3225.38 0.416358 3.78115 0
M  V30 36267 H 3226.69 0.327339 4.97725 0
M  V30 36268 H 3225.84 -1.89308 5.76409 0
M  V30 36269 H 3224.58 -1.88268 4.49896 0
M  V30 36270 H 3223.59 0.196086 5.4945 0
M  V30 36271 H 3224.81 0.167534 6.78893 0
M  V30 36272 H 3222.76 -2.00948 6.24465 0
M  V30 36273 H 3222.67 -0.832385 7.51404 0
M  V30 36274 H 3223.94 -2.02147 7.52833 0
M  V30 36275 N 3228.17 -1.53093 0.374204 0
M  V30 36276 C 3229.08 -2.29722 -0.475894 0
M  V30 36277 C 3230.1 -1.36031 -1.08497 0
M  V30 36278 O 3231.27 -1.69093 -1.09405 0
M  V30 36279 C 3228.34 -3.07797 -1.59567 0
M  V30 36280 C 3227.4 -4.17171 -1.01325 0
M  V30 36281 C 3226.63 -4.91514 -2.07966 0
M  V30 36282 O 3226.85 -4.65798 -3.29223 0
M  V30 36283 O 3225.79 -5.77235 -1.7054 0
M  V30 36284 H 3229.61 -3.0334 0.147931 0
M  V30 36285 H 3227.2 -1.48758 0.138338 0
M  V30 36286 H 3229.08 -3.56524 -2.24652 0
M  V30 36287 H 3227.76 -2.37008 -2.20474 0
M  V30 36288 H 3226.66 -3.72676 -0.326067 0
M  V30 36289 H 3228 -4.90151 -0.448613 0
M  V30 36290 N 3229.65 -0.103603 -1.57259 0
M  V30 36291 C 3230.56 0.866289 -2.1802 0
M  V30 36292 C 3231.57 1.30402 -1.15201 0
M  V30 36293 O 3232.75 1.37019 -1.47607 0
M  V30 36294 C 3229.82 2.10429 -2.75537 0
M  V30 36295 C 3228.88 1.71995 -3.9334 0
M  V30 36296 C 3228.11 2.89893 -4.48105 0
M  V30 36297 O 3228.33 4.0487 -4.01791 0
M  V30 36298 O 3227.27 2.67867 -5.39009 0
M  V30 36299 H 3231.09 0.379285 -3.01322 0
M  V30 36300 H 3228.68 0.121202 -1.48908 0
M  V30 36301 H 3230.56 2.82965 -3.12264 0
M  V30 36302 H 3229.23 2.58165 -1.95275 0
M  V30 36303 H 3228.14 0.96613 -3.61409 0
M  V30 36304 H 3229.47 1.29014 -4.74991 0
M  V30 36305 N 3231.13 1.56679 0.170126 0
M  V30 36306 C 3232.06 1.93068 1.23521 0
M  V30 36307 C 3233.07 0.823904 1.40412 0
M  V30 36308 O 3234.26 1.10235 1.40394 0
M  V30 36309 C 3231.36 2.16932 2.60372 0
M  V30 36310 C 3230.53 3.48165 2.64764 0
M  V30 36311 C 3229.59 3.60843 3.82986 0
M  V30 36312 O 3228.62 4.33451 3.6893 0
M  V30 36313 N 3229.82 2.95782 4.99493 0
M  V30 36314 H 3232.59 2.85032 0.926122 0
M  V30 36315 H 3230.15 1.5785 0.359881 0
M  V30 36316 H 3232.14 2.22677 3.3793 0
M  V30 36317 H 3230.71 1.31347 2.83667 0
M  V30 36318 H 3229.93 3.54067 1.73292 0
M  V30 36319 H 3231.22 4.34518 2.6471 0
M  V30 36320 H 3230.61 2.36666 5.13815 0
M  V30 36321 H 3229.17 3.07121 5.74909 0
M  V30 36322 N 3232.6 -0.43872 1.5137 0
M  V30 36323 C 3233.55 -1.5308 1.68969 0
M  V30 36324 C 3234.54 -1.51436 0.543695 0
M  V30 36325 O 3235.73 -1.57912 0.799547 0
M  V30 36326 C 3232.86 -2.91282 1.81685 0
M  V30 36327 C 3231.95 -2.97688 3.02064 0
M  V30 36328 N 3232.34 -2.7384 4.25259 0
M  V30 36329 C 3230.63 -3.28847 3.0129 0
M  V30 36330 C 3231.34 -2.86053 5.06506 0
M  V30 36331 N 3230.31 -3.17663 4.41125 0
M  V30 36332 H 3234.11 -1.33392 2.61885 0
M  V30 36333 H 3231.63 -0.646004 1.48998 0
M  V30 36334 H 3233.62 -3.69847 1.92403 0
M  V30 36335 H 3232.28 -3.11992 0.899493 0
M  V30 36336 H 3233.3 -2.48795 4.54226 0
M  V30 36337 H 3229.97 -3.5534 2.1918 0
M  V30 36338 H 3231.36 -2.71581 6.14568 0
M  V30 36339 N 3234.08 -1.41493 -0.694073 0
M  V30 36340 C 3234.99 -1.45821 -1.83775 0
M  V30 36341 C 3236.01 -0.348669 -1.70471 0
M  V30 36342 O 3237.18 -0.596621 -1.9236 0
M  V30 36343 C 3234.25 -1.33973 -3.19769 0
M  V30 36344 C 3233.31 -2.55256 -3.45171 0
M  V30 36345 C 3232.54 -2.43963 -4.74676 0
M  V30 36346 O 3232.77 -1.46501 -5.51265 0
M  V30 36347 O 3231.7 -3.33748 -5.00895 0
M  V30 36348 H 3235.53 -2.42313 -1.8308 0
M  V30 36349 H 3233.11 -1.23048 -0.847328 0
M  V30 36350 H 3234.99 -1.29655 -4.00958 0
M  V30 36351 H 3233.67 -0.405982 -3.21144 0
M  V30 36352 H 3232.58 -2.6515 -2.63906 0
M  V30 36353 H 3233.91 -3.47464 -3.48611 0
M  V30 36354 N 3235.56 0.928479 -1.27346 0
M  V30 36355 C 3236.79 1.71548 -1.1656 0
M  V30 36356 C 3237.21 1.86093 0.274011 0
M  V30 36357 O 3236.57 1.3604 1.19845 0
M  V30 36358 C 3236.62 3.09326 -1.85338 0
M  V30 36359 O 3235.72 3.96018 -1.15081 0
M  V30 36360 H 3235.06 0.525852 -0.405432 0
M  V30 36361 H 3237.59 1.16199 -1.68401 0
M  V30 36362 H 3237.6 3.59644 -1.92665 0
M  V30 36363 H 3236.28 2.98055 -2.90062 0
M  V30 36364 H 3234.85 3.54459 -1.15817 0
M  V30 36365 N 3237.04 1.09355 1.13486 0
M  V30 36366 C 3238.29 0.824042 1.84099 0
M  V30 36367 C 3238.6 -0.652553 1.84394 0
M  V30 36368 O 3239.81 -1.03758 2.50892 0
M  V30 36369 C 3238.26 1.42423 3.3052 0
M  V30 36370 C 3237.87 2.93332 3.38615 0
M  V30 36371 C 3239.61 1.23363 4.06179 0
M  V30 36372 C 3237.52 3.4644 4.79305 0
M  V30 36373 H 3236.45 0.304601 0.689735 0
M  V30 36374 H 3239.1 1.31617 1.27864 0
M  V30 36375 H 3237.48 0.859795 3.86553 0
M  V30 36376 H 3238.66 3.55996 2.92581 0
M  V30 36377 H 3236.97 3.11417 2.7642 0
M  V30 36378 H 3239.57 1.60497 5.10044 0
M  V30 36379 H 3239.91 0.174225 4.15935 0
M  V30 36380 H 3240.45 1.76554 3.56474 0
M  V30 36381 H 3237.19 4.51998 4.7474 0
M  V30 36382 H 3236.71 2.8854 5.25837 0
M  V30 36383 H 3238.38 3.43602 5.48221 0
M  V30 36384 N 3238.52 -1.307 0.880644 0
M  V30 36385 C 3239.47 -2.30195 0.333602 0
M  V30 36386 C 3240.46 -1.59979 -0.557064 0
M  V30 36387 O 3241.67 -1.74489 -0.441979 0
M  V30 36388 H 3238.04 -0.746689 0.0892168 0
M  V30 36389 H 3240.01 -2.73797 1.18649 0
M  V30 36390 C 3238.76 -3.44896 -0.440671 0
M  V30 36391 H 3238.08 -3.99106 0.235424 0
M  V30 36392 H 3239.52 -4.16602 -0.788603 0
M  V30 36393 C 3237.98 -2.94507 -1.63608 0
M  V30 36394 O 3238.51 -2.94171 -2.73544 0
M  V30 36395 N 3236.72 -2.50573 -1.47179 0
M  V30 36396 H 3236.27 -2.51045 -0.577435 0
M  V30 36397 H 3236.22 -2.17215 -2.27299 0
M  V30 36398 N 3240 -0.641156 -1.43969 0
M  V30 36399 C 3240.94 0.05775 -2.30728 0
M  V30 36400 C 3241.91 0.826794 -1.4406 0
M  V30 36401 O 3243.1 0.805823 -1.72948 0
M  V30 36402 C 3240.24 1.02651 -3.2948 0
M  V30 36403 C 3239.35 0.254837 -4.31248 0
M  V30 36404 C 3238.49 1.21631 -5.17087 0
M  V30 36405 C 3237.52 0.434374 -6.10557 0
M  V30 36406 N 3236.66 1.34682 -6.89061 0
M  V30 36407 H 3241.5 -0.688004 -2.89949 0
M  V30 36408 H 3239.04 -0.351055 -1.4285 0
M  V30 36409 H 3241 1.60166 -3.85231 0
M  V30 36410 H 3239.63 1.73928 -2.71935 0
M  V30 36411 H 3238.68 -0.436405 -3.77888 0
M  V30 36412 H 3239.99 -0.35373 -4.97544 0
M  V30 36413 H 3239.14 1.86248 -5.77405 0
M  V30 36414 H 3237.88 1.8588 -4.50888 0
M  V30 36415 H 3236.89 -0.225222 -5.49339 0
M  V30 36416 H 3238.11 -0.203535 -6.78795 0
M  V30 36417 H 3236.06 1.97633 -6.25522 0
M  V30 36418 H 3235.98 0.792525 -7.51834 0
M  V30 36419 H 3237.24 1.98152 -7.53894 0
M  V30 36420 N 3241.47 1.52892 -0.382318 0
M  V30 36421 C 3242.72 2.01489 0.202098 0
M  V30 36422 C 3243.05 1.26904 1.47396 0
M  V30 36423 O 3242.3 0.355805 1.92438 0
M  V30 36424 C 3242.6 3.53547 0.523375 0
M  V30 36425 C 3242.27 4.46101 -0.656121 0
M  V30 36426 C 3240.93 4.71121 -0.979716 0
M  V30 36427 C 3243.28 5.00753 -1.44553 0
M  V30 36428 C 3240.61 5.48044 -2.0944 0
M  V30 36429 C 3242.96 5.78894 -2.55077 0
M  V30 36430 C 3241.63 6.02196 -2.87952 0
M  V30 36431 H 3240.9 0.7373 0.0739529 0
M  V30 36432 H 3243.54 1.84355 -0.518228 0
M  V30 36433 H 3241.85 3.68718 1.32494 0
M  V30 36434 H 3243.55 3.88636 0.988079 0
M  V30 36435 H 3240.14 4.26786 -0.393893 0
M  V30 36436 H 3244.32 4.81355 -1.20878 0
M  V30 36437 H 3239.58 5.64313 -2.3529 0
M  V30 36438 H 3243.75 6.20246 -3.16651 0
M  V30 36439 H 3241.38 6.61585 -3.74446 0
M  V30 36440 N 3242.95 0.111941 1.57202 0
M  V30 36441 C 3243.86 -0.854715 2.18476 0
M  V30 36442 C 3244.88 -1.2979 1.15891 0
M  V30 36443 O 3246.05 -1.36234 1.48332 0
M  V30 36444 C 3243.12 -2.08965 2.76649 0
M  V30 36445 C 3242.18 -1.69906 3.94247 0
M  V30 36446 C 3241.41 -2.87512 4.49636 0
M  V30 36447 O 3241.64 -4.02734 4.03933 0
M  V30 36448 O 3240.57 -2.65005 5.40422 0
M  V30 36449 H 3244.4 -0.363299 3.01519 0
M  V30 36450 H 3241.98 -0.113303 1.4897 0
M  V30 36451 H 3243.86 -2.81305 3.1376 0
M  V30 36452 H 3242.54 -2.57126 1.96641 0
M  V30 36453 H 3241.44 -0.94695 3.61917 0
M  V30 36454 H 3242.78 -1.26493 4.75668 0
M  V30 36455 N 3244.43 -1.56767 -0.161814 0
M  V30 36456 C 3245.36 -1.92263 -1.22924 0
M  V30 36457 C 3246.34 -0.786587 -1.42308 0
M  V30 36458 O 3247.52 -1.0408 -1.57161 0
M  V30 36459 C 3244.65 -2.18181 -2.59065 0
M  V30 36460 C 3243.7 -3.40853 -2.56362 0
M  V30 36461 S 3244.53 -4.9491 -2.04509 0
M  V30 36462 C 3245.69 -5.23934 -3.42409 0
M  V30 36463 H 3245.92 -2.825 -0.926327 0
M  V30 36464 H 3243.45 -1.4998 -0.366796 0
M  V30 36465 H 3245.41 -2.33794 -3.37417 0
M  V30 36466 H 3244.07 -1.28634 -2.86552 0
M  V30 36467 H 3243.26 -3.56219 -3.56545 0
M  V30 36468 H 3242.87 -3.24405 -1.86111 0
M  V30 36469 H 3245.16 -5.16494 -4.38452 0
M  V30 36470 H 3246.1 -6.25493 -3.31909 0
M  V30 36471 H 3246.51 -4.5148 -3.3886 0
M  V30 36472 N 3245.91 0.430686 -1.51601 0
M  V30 36473 C 3247.18 1.1912 -1.55144 0
M  V30 36474 C 3247.56 2.08666 -0.319632 0
M  V30 36475 O 3246.91 2.17678 0.694888 0
M  V30 36476 C 3247.12 1.98727 -2.86895 0
M  V30 36477 C 3248.47 2.5554 -3.39094 0
M  V30 36478 O 3249.49 2.08931 -2.8849 0
M  V30 36479 O 3248.35 3.40566 -4.27407 0
M  V30 36480 H 3245.45 0.542694 -0.624029 0
M  V30 36481 H 3247.99 0.439215 -1.63918 0
M  V30 36482 H 3246.77 1.32999 -3.68004 0
M  V30 36483 H 3246.39 2.80977 -2.81314 0
M  V30 36484 N 3247.39 1.4186 0.686559 0
M  V30 36485 C 3248.63 1.417 1.44663 0
M  V30 36486 C 3248.96 0.0292784 1.94478 0
M  V30 36487 O 3248.22 -0.960391 1.70514 0
M  V30 36488 C 3248.51 2.3782 2.66789 0
M  V30 36489 C 3248.18 3.84464 2.35581 0
M  V30 36490 C 3246.84 4.2441 2.2678 0
M  V30 36491 C 3249.19 4.77013 2.1002 0
M  V30 36492 C 3246.52 5.54902 1.90528 0
M  V30 36493 C 3248.87 6.07834 1.75274 0
M  V30 36494 C 3247.54 6.46792 1.64976 0
M  V30 36495 H 3246.81 0.518518 0.529358 0
M  V30 36496 H 3249.46 1.7472 0.783907 0
M  V30 36497 H 3247.76 1.98086 3.38037 0
M  V30 36498 H 3249.46 2.34967 3.24949 0
M  V30 36499 H 3246.05 3.52831 2.43328 0
M  V30 36500 H 3250.23 4.46947 2.15758 0
M  V30 36501 H 3245.49 5.83958 1.81115 0
M  V30 36502 H 3249.66 6.79041 1.54518 0
M  V30 36503 H 3247.29 7.47817 1.36654 0
M  V30 36504 N 3248.86 -0.921712 1.27837 0
M  V30 36505 C 3250.11 -1.66458 1.13907 0
M  V30 36506 C 3250.43 -1.93074 -0.313345 0
M  V30 36507 O 3251.63 -2.65371 -0.57364 0
M  V30 36508 C 3250.09 -2.99832 1.9907 0
M  V30 36509 C 3249.7 -2.80893 3.49003 0
M  V30 36510 C 3251.44 -3.77677 1.93804 0
M  V30 36511 C 3249.35 -4.09859 4.26344 0
M  V30 36512 H 3248.28 -0.624377 0.422692 0
M  V30 36513 H 3250.93 -1.02349 1.52305 0
M  V30 36514 H 3249.31 -3.65031 1.5352 0
M  V30 36515 H 3250.48 -2.24424 4.02456 0
M  V30 36516 H 3248.8 -2.16469 3.5571 0
M  V30 36517 H 3251.4 -4.73257 2.48861 0
M  V30 36518 H 3251.74 -4.06165 0.912999 0
M  V30 36519 H 3252.27 -3.19285 2.3728 0
M  V30 36520 H 3249.01 -3.86548 5.29397 0
M  V30 36521 H 3248.53 -4.65969 3.77668 0
M  V30 36522 H 3250.21 -4.78177 4.35839 0
M  V30 36523 N 3250.34 -1.09956 -1.12905 0
M  V30 36524 C 3251.62 -0.75118 -1.80601 0
M  V30 36525 C 3252 0.763043 -1.96827 0
M  V30 36526 O 3251.35 1.68746 -1.54068 0
M  V30 36527 C 3251.56 -1.49652 -3.15286 0
M  V30 36528 C 3252.9 -1.66585 -3.90557 0
M  V30 36529 O 3253.93 -1.45949 -3.24927 0
M  V30 36530 O 3252.79 -2.00761 -5.08289 0
M  V30 36531 H 3249.88 -0.27046 -0.781525 0
M  V30 36532 H 3252.43 -1.20208 -1.19784 0
M  V30 36533 H 3251.2 -2.5273 -2.98736 0
M  V30 36534 H 3250.82 -1.03815 -3.83807 0
M  V30 36535 N 3251.82 1.30231 -0.887563 0
M  V30 36536 C 3252.73 2.31816 -0.360374 0
M  V30 36537 C 3253.75 1.65451 0.538712 0
M  V30 36538 O 3254.92 1.9673 0.431211 0
M  V30 36539 C 3251.99 3.44216 0.414276 0
M  V30 36540 C 3251.05 4.26201 -0.514874 0
M  V30 36541 C 3250.28 5.33234 0.222901 0
M  V30 36542 O 3250.5 5.51699 1.44862 0
M  V30 36543 O 3249.44 6.00374 -0.428327 0
M  V30 36544 H 3253.26 2.78865 -1.20284 0
M  V30 36545 H 3250.85 1.34447 -0.651483 0
M  V30 36546 H 3252.73 4.12681 0.852787 0
M  V30 36547 H 3251.41 2.99297 1.233 0
M  V30 36548 H 3250.31 3.60424 -1.00225 0
M  V30 36549 H 3251.65 4.74731 -1.29967 0
M  V30 36550 N 3253.3 0.648782 1.43627 0
M  V30 36551 C 3254.54 0.160609 2.02163 0
M  V30 36552 C 3254.88 -1.22069 1.51039 0
M  V30 36553 O 3254.15 -1.81403 0.701665 0
M  V30 36554 C 3254.44 0.166591 3.59714 0
M  V30 36555 C 3254.29 1.58149 4.21081 0
M  V30 36556 C 3255.61 -0.499408 4.37257 0
M  V30 36557 H 3252.73 0.0598367 0.734567 0
M  V30 36558 H 3255.37 0.828622 1.70979 0
M  V30 36559 H 3253.52 -0.402234 3.86412 0
M  V30 36560 H 3255.19 2.20057 4.05429 0
M  V30 36561 H 3253.43 2.13012 3.779 0
M  V30 36562 H 3254.1 1.53757 5.30154 0
M  V30 36563 H 3256.58 -0.015483 4.16097 0
M  V30 36564 H 3255.46 -0.464477 5.46931 0
M  V30 36565 H 3255.72 -1.57279 4.13178 0
M  V30 36566 N 3254.78 -1.52688 0.390421 0
M  V30 36567 C 3255.69 -2.30214 -0.451503 0
M  V30 36568 C 3256.7 -1.37174 -1.07048 0
M  V30 36569 O 3257.88 -1.70244 -1.07606 0
M  V30 36570 C 3254.94 -3.09473 -1.56293 0
M  V30 36571 C 3254 -4.18222 -0.968943 0
M  V30 36572 C 3253.24 -4.93692 -2.02741 0
M  V30 36573 O 3253.46 -4.69264 -3.24265 0
M  V30 36574 O 3252.39 -5.79011 -1.64408 0
M  V30 36575 H 3256.22 -3.03166 0.180096 0
M  V30 36576 H 3253.81 -1.48603 0.154108 0
M  V30 36577 H 3255.69 -3.58887 -2.20858 0
M  V30 36578 H 3254.36 -2.39334 -2.17948 0
M  V30 36579 H 3253.27 -3.73001 -0.286522 0
M  V30 36580 H 3254.6 -4.906 -0.396601 0
M  V30 36581 N 3256.25 -0.120276 -1.5714 0
M  V30 36582 C 3257.2 0.82946 -2.1538 0
M  V30 36583 C 3258.17 1.26268 -1.07915 0
M  V30 36584 O 3259.36 1.33997 -1.35829 0
M  V30 36585 C 3256.5 2.07366 -2.75851 0
M  V30 36586 C 3255.61 1.68868 -3.97627 0
M  V30 36587 C 3254.74 2.88264 -4.46181 0
M  V30 36588 C 3253.78 2.46013 -5.60486 0
M  V30 36589 N 3252.92 3.58327 -6.03777 0
M  V30 36590 H 3257.76 0.325979 -2.96212 0
M  V30 36591 H 3255.3 0.149209 -1.46341 0
M  V30 36592 H 3257.26 2.80266 -3.09041 0
M  V30 36593 H 3255.89 2.5517 -1.97707 0
M  V30 36594 H 3254.94 0.858366 -3.70589 0
M  V30 36595 H 3256.25 1.33819 -4.80514 0
M  V30 36596 H 3255.4 3.69388 -4.81287 0
M  V30 36597 H 3254.14 3.26542 -3.62246 0
M  V30 36598 H 3253.15 1.63322 -5.24982 0
M  V30 36599 H 3254.37 2.08851 -6.46187 0
M  V30 36600 H 3252.32 3.96275 -5.22783 0
M  V30 36601 H 3252.24 3.27205 -6.81523 0
M  V30 36602 H 3253.5 4.39887 -6.43521 0
M  V30 36603 N 3257.73 1.56851 0.153498 0
M  V30 36604 C 3258.66 1.94367 1.21467 0
M  V30 36605 C 3259.68 0.83875 1.39531 0
M  V30 36606 O 3260.87 1.11717 1.39217 0
M  V30 36607 C 3257.97 2.19682 2.58056 0
M  V30 36608 C 3257.14 3.50954 2.61056 0
M  V30 36609 C 3256.2 3.64885 3.79138 0
M  V30 36610 O 3255.22 4.37339 3.64312 0
M  V30 36611 N 3256.43 3.01063 4.96328 0
M  V30 36612 H 3259.19 2.85998 0.895838 0
M  V30 36613 H 3256.75 1.58222 0.343119 0
M  V30 36614 H 3258.74 2.26249 3.35549 0
M  V30 36615 H 3257.31 1.34348 2.82258 0
M  V30 36616 H 3256.53 3.55885 1.69527 0
M  V30 36617 H 3257.82 4.37302 2.60086 0
M  V30 36618 H 3257.22 2.42102 5.11276 0
M  V30 36619 H 3255.78 3.13201 5.71619 0
M  V30 36620 N 3259.21 -0.42264 1.51827 0
M  V30 36621 C 3260.16 -1.51403 1.742 0
M  V30 36622 C 3261.13 -1.55493 0.58404 0
M  V30 36623 O 3262.31 -1.72276 0.820109 0
M  V30 36624 C 3259.45 -2.88984 1.88632 0
M  V30 36625 C 3258.57 -2.94308 3.16238 0
M  V30 36626 C 3257.7 -4.23104 3.21179 0
M  V30 36627 C 3256.74 -4.22352 4.43041 0
M  V30 36628 N 3255.88 -5.42696 4.45449 0
M  V30 36629 H 3260.72 -1.31627 2.67354 0
M  V30 36630 H 3258.25 -0.639166 1.32488 0
M  V30 36631 H 3260.21 -3.68833 1.94982 0
M  V30 36632 H 3258.84 -3.07285 0.988727 0
M  V30 36633 H 3257.89 -2.07033 3.19126 0
M  V30 36634 H 3259.21 -2.89616 4.06109 0
M  V30 36635 H 3258.36 -5.11337 3.26526 0
M  V30 36636 H 3257.1 -4.30474 2.29223 0
M  V30 36637 H 3256.1 -3.32511 4.37855 0
M  V30 36638 H 3257.33 -4.16634 5.36277 0
M  V30 36639 H 3255.27 -5.5076 3.56371 0
M  V30 36640 H 3255.19 -5.39943 5.29148 0
M  V30 36641 H 3256.46 -6.3292 4.55008 0
M  V30 36642 N 3260.69 -1.42222 -0.679027 0
M  V30 36643 C 3261.6 -1.47762 -1.82218 0
M  V30 36644 C 3262.61 -0.36673 -1.70091 0
M  V30 36645 O 3263.79 -0.61699 -1.91716 0
M  V30 36646 C 3260.86 -1.37357 -3.1833 0
M  V30 36647 C 3259.92 -2.58902 -3.42444 0
M  V30 36648 C 3259.15 -2.48984 -4.72062 0
M  V30 36649 O 3259.37 -1.5234 -5.49681 0
M  V30 36650 O 3258.31 -3.39042 -4.97327 0
M  V30 36651 H 3262.13 -2.44241 -1.805 0
M  V30 36652 H 3259.72 -1.23939 -0.834229 0
M  V30 36653 H 3261.6 -1.339 -3.99561 0
M  V30 36654 H 3260.27 -0.440021 -3.20695 0
M  V30 36655 H 3259.18 -2.67934 -2.61079 0
M  V30 36656 H 3260.51 -3.51142 -3.44906 0
M  V30 36657 N 3262.17 0.91492 -1.28324 0
M  V30 36658 C 3263.1 2.03396 -1.14684 0
M  V30 36659 C 3264.08 1.70041 -0.0449238 0
M  V30 36660 O 3265.26 1.9293 -0.221706 0
M  V30 36661 C 3262.39 3.37802 -0.806682 0
M  V30 36662 C 3261.35 3.85314 -1.86325 0
M  V30 36663 C 3260.67 5.16672 -1.37675 0
M  V30 36664 C 3261.97 4.07302 -3.2696 0
M  V30 36665 H 3263.67 2.15065 -2.08297 0
M  V30 36666 H 3261.21 1.03338 -1.00286 0
M  V30 36667 H 3263.17 4.15578 -0.698033 0
M  V30 36668 H 3261.89 3.26182 0.165146 0
M  V30 36669 H 3260.55 3.09741 -1.96102 0
M  V30 36670 H 3260.2 5.01454 -0.394015 0
M  V30 36671 H 3259.9 5.49432 -2.08323 0
M  V30 36672 H 3261.42 5.97005 -1.28129 0
M  V30 36673 H 3262.83 4.75607 -3.2011 0
M  V30 36674 H 3261.23 4.51391 -3.95432 0
M  V30 36675 H 3262.3 3.12152 -3.71065 0
M  V30 36676 N 3263.64 1.10553 1.1232 0
M  V30 36677 C 3264.57 0.777525 2.20174 0
M  V30 36678 C 3265.56 -0.25004 1.68252 0
M  V30 36679 O 3266.74 -0.11554 1.93856 0
M  V30 36680 C 3263.87 0.209883 3.46665 0
M  V30 36681 C 3262.82 1.16827 4.11747 0
M  V30 36682 C 3262.15 0.461777 5.32702 0
M  V30 36683 C 3263.45 2.51535 4.57742 0
M  V30 36684 H 3265.14 1.67933 2.47869 0
M  V30 36685 H 3262.69 0.808884 1.19135 0
M  V30 36686 H 3264.64 -0.0317327 4.21388 0
M  V30 36687 H 3263.37 -0.72717 3.18402 0
M  V30 36688 H 3262.03 1.39536 3.39006 0
M  V30 36689 H 3261.67 -0.479787 5.00707 0
M  V30 36690 H 3261.37 1.1009 5.77195 0
M  V30 36691 H 3262.9 0.228736 6.10171 0
M  V30 36692 H 3264.31 2.32968 5.23831 0
M  V30 36693 H 3262.71 3.11344 5.13016 0
M  V30 36694 H 3263.78 3.11442 3.71661 0
M  V30 36695 N 3265.12 -1.29758 0.894457 0
M  V30 36696 C 3266.37 -1.95049 0.513707 0
M  V30 36697 C 3266.68 -1.71328 -0.943714 0
M  V30 36698 O 3267.89 -2.3068 -1.43174 0
M  V30 36699 C 3266.35 -3.49281 0.867813 0
M  V30 36700 C 3265.95 -3.81808 2.34365 0
M  V30 36701 C 3267.7 -4.20834 0.556719 0
M  V30 36702 C 3265.61 -5.29261 2.63889 0
M  V30 36703 H 3264.54 -0.730086 0.188387 0
M  V30 36704 H 3267.19 -1.47564 1.09073 0
M  V30 36705 H 3265.57 -3.9539 0.21977 0
M  V30 36706 H 3266.74 -3.46576 3.0368 0
M  V30 36707 H 3265.06 -3.23381 2.62323 0
M  V30 36708 H 3267.65 -5.29354 0.754216 0
M  V30 36709 H 3268 -4.13232 -0.504454 0
M  V30 36710 H 3268.53 -3.80439 1.16237 0
M  V30 36711 H 3265.27 -5.41922 3.68784 0
M  V30 36712 H 3264.79 -5.65758 1.99192 0
M  V30 36713 H 3266.47 -5.96798 2.49882 0
M  V30 36714 N 3266.6 -0.65639 -1.4328 0
M  V30 36715 C 3267.55 0.0332749 -2.30776 0
M  V30 36716 C 3268.52 0.811468 -1.44929 0
M  V30 36717 O 3269.7 0.787434 -1.73793 0
M  V30 36718 C 3266.84 0.991508 -3.3055 0
M  V30 36719 C 3265.96 0.209083 -4.31494 0
M  V30 36720 C 3265.09 1.1614 -5.18348 0
M  V30 36721 C 3264.13 0.369592 -6.10983 0
M  V30 36722 N 3263.27 1.27366 -6.90451 0
M  V30 36723 H 3268.11 -0.718718 -2.89203 0
M  V30 36724 H 3265.64 -0.366186 -1.42469 0
M  V30 36725 H 3267.6 1.56071 -3.86908 0
M  V30 36726 H 3266.23 1.71034 -2.73765 0
M  V30 36727 H 3265.28 -0.47646 -3.77404 0
M  V30 36728 H 3266.6 -0.406481 -4.97141 0
M  V30 36729 H 3265.75 1.80114 -5.79348 0
M  V30 36730 H 3264.49 1.81087 -4.52834 0
M  V30 36731 H 3263.49 -0.283474 -5.49069 0
M  V30 36732 H 3264.72 -0.275519 -6.78541 0
M  V30 36733 H 3262.66 1.90988 -6.27582 0
M  V30 36734 H 3262.58 0.712738 -7.52633 0
M  V30 36735 H 3263.85 1.90145 -7.55953 0
M  V30 36736 N 3268.08 1.52478 -0.398513 0
M  V30 36737 C 3269.33 2.00877 0.182011 0
M  V30 36738 C 3269.64 1.28893 1.47126 0
M  V30 36739 O 3270.85 1.68051 2.13239 0
M  V30 36740 C 3269.3 3.57942 0.374915 0
M  V30 36741 C 3268.91 4.38833 -0.901621 0
M  V30 36742 C 3270.66 4.14603 0.911305 0
M  V30 36743 C 3268.56 5.87518 -0.676489 0
M  V30 36744 H 3267.49 0.750574 0.0717936 0
M  V30 36745 H 3270.14 1.75909 -0.522328 0
M  V30 36746 H 3268.53 3.79196 1.14133 0
M  V30 36747 H 3269.7 4.29343 -1.67336 0
M  V30 36748 H 3268.01 3.93438 -1.36364 0
M  V30 36749 H 3270.61 5.23355 1.0956 0
M  V30 36750 H 3270.95 3.7128 1.88299 0
M  V30 36751 H 3271.49 3.97275 0.204226 0
M  V30 36752 H 3268.23 6.35181 -1.61944 0
M  V30 36753 H 3267.75 5.99774 0.0561488 0
M  V30 36754 H 3269.43 6.46235 -0.314568 0
M  V30 36755 N 3269.56 0.128608 1.57074 0
M  V30 36756 C 3270.49 -0.84867 2.12909 0
M  V30 36757 C 3271.5 -1.22341 1.07408 0
M  V30 36758 O 3272.69 -1.17069 1.34748 0
M  V30 36759 C 3269.79 -2.14755 2.62171 0
M  V30 36760 C 3268.96 -1.94302 3.91874 0
M  V30 36761 C 3268.02 -3.08008 4.26635 0
M  V30 36762 O 3267.05 -2.80502 4.95285 0
M  V30 36763 N 3268.25 -4.347 3.84729 0
M  V30 36764 H 3271.02 -0.371584 2.97388 0
M  V30 36765 H 3268.58 -0.055529 1.61805 0
M  V30 36766 H 3270.57 -2.89836 2.82449 0
M  V30 36767 H 3269.14 -2.53783 1.82519 0
M  V30 36768 H 3268.36 -1.03361 3.80408 0
M  V30 36769 H 3269.65 -1.77953 4.76666 0
M  V30 36770 H 3269.05 -4.5992 3.29378 0
M  V30 36771 H 3267.6 -5.0662 4.10096 0
M  V30 36772 N 3271.04 -1.5693 -0.145178 0
M  V30 36773 C 3271.99 -1.94821 -1.18443 0
M  V30 36774 C 3272.97 -0.819708 -1.38454 0
M  V30 36775 O 3274.16 -1.08318 -1.39986 0
M  V30 36776 C 3271.29 -2.3339 -2.51762 0
M  V30 36777 C 3270.38 -3.52815 -2.35335 0
M  V30 36778 N 3270.77 -4.69295 -1.88667 0
M  V30 36779 C 3269.07 -3.57935 -2.6608 0
M  V30 36780 C 3269.77 -5.51388 -1.85328 0
M  V30 36781 N 3268.74 -4.93147 -2.28708 0
M  V30 36782 H 3272.54 -2.82353 -0.815736 0
M  V30 36783 H 3270.06 -1.58512 -0.353214 0
M  V30 36784 H 3272.06 -2.58741 -3.26892 0
M  V30 36785 H 3270.72 -1.47211 -2.89412 0
M  V30 36786 H 3271.73 -4.93016 -1.58606 0
M  V30 36787 H 3268.4 -2.823 -3.07592 0
M  V30 36788 H 3269.79 -6.54776 -1.50723 0
M  V30 36789 N 3272.51 0.414582 -1.52049 0
M  V30 36790 C 3273.44 1.51172 -1.77958 0
M  V30 36791 C 3274.42 1.57991 -0.63031 0
M  V30 36792 O 3275.61 1.73353 -0.875354 0
M  V30 36793 C 3272.74 2.89048 -1.92532 0
M  V30 36794 C 3271.69 2.97082 -3.08101 0
M  V30 36795 C 3271.02 4.37159 -3.0789 0
M  V30 36796 C 3272.32 2.69067 -4.47661 0
M  V30 36797 H 3274.01 1.29741 -2.69829 0
M  V30 36798 H 3271.56 0.622707 -1.2984 0
M  V30 36799 H 3273.51 3.65782 -2.0924 0
M  V30 36800 H 3272.24 3.11761 -0.97329 0
M  V30 36801 H 3270.9 2.22792 -2.91135 0
M  V30 36802 H 3270.54 4.56873 -2.10419 0
M  V30 36803 H 3270.24 4.4346 -3.85509 0
M  V30 36804 H 3271.77 5.15835 -3.26721 0
M  V30 36805 H 3273.18 3.35526 -4.64861 0
M  V30 36806 H 3271.58 2.86751 -5.27156 0
M  V30 36807 H 3272.65 1.64536 -4.56132 0
M  V30 36808 N 3273.99 1.4258 0.671475 0
M  V30 36809 C 3274.92 1.42269 1.797 0
M  V30 36810 C 3275.94 0.321296 1.59598 0
M  V30 36811 O 3277.13 0.584594 1.68656 0
M  V30 36812 C 3274.23 1.20229 3.16857 0
M  V30 36813 C 3273.4 2.42865 3.63779 0
M  V30 36814 C 3272.46 2.16321 4.79679 0
M  V30 36815 O 3271.48 2.89545 4.90053 0
M  V30 36816 N 3272.69 1.16841 5.6862 0
M  V30 36817 H 3275.45 2.39285 1.80451 0
M  V30 36818 H 3273.01 1.37502 0.854684 0
M  V30 36819 H 3275 1.00383 3.92053 0
M  V30 36820 H 3273.57 0.317243 3.10986 0
M  V30 36821 H 3272.79 2.78257 2.79226 0
M  V30 36822 H 3274.08 3.24521 3.91872 0
M  V30 36823 H 3273.48 0.562845 5.62893 0
M  V30 36824 H 3272.04 1.02981 6.43613 0
M  V30 36825 N 3275.47 -0.908102 1.28807 0
M  V30 36826 C 3276.4 -2.01611 1.09022 0
M  V30 36827 C 3277.41 -1.6275 0.0402345 0
M  V30 36828 O 3278.6 -1.76228 0.283884 0
M  V30 36829 C 3275.7 -3.32883 0.635771 0
M  V30 36830 C 3274.88 -4.00322 1.76242 0
M  V30 36831 C 3273.94 -5.09879 1.30039 0
M  V30 36832 O 3272.96 -5.32769 2.00363 0
M  V30 36833 N 3274.16 -5.80261 0.166677 0
M  V30 36834 H 3276.93 -2.19141 2.04444 0
M  V30 36835 H 3274.49 -1.07976 1.20635 0
M  V30 36836 H 3276.48 -4.0351 0.310168 0
M  V30 36837 H 3275.05 -3.11784 -0.225761 0
M  V30 36838 H 3274.27 -3.23169 2.25733 0
M  V30 36839 H 3275.56 -4.42123 2.51804 0
M  V30 36840 H 3274.96 -5.6414 -0.419835 0
M  V30 36841 H 3273.51 -6.51724 -0.0996135 0
M  V30 36842 N 3276.95 -1.11147 -1.11732 0
M  V30 36843 C 3278.22 -0.770292 -1.79794 0
M  V30 36844 C 3278.6 0.742124 -1.97625 0
M  V30 36845 O 3277.95 1.67102 -1.5585 0
M  V30 36846 C 3278.16 -1.52988 -3.13681 0
M  V30 36847 C 3279.51 -1.70718 -3.88768 0
M  V30 36848 O 3280.53 -1.49387 -3.23361 0
M  V30 36849 O 3279.39 -2.06141 -5.06131 0
M  V30 36850 H 3276.49 -0.278733 -0.778612 0
M  V30 36851 H 3279.03 -1.21472 -1.18502 0
M  V30 36852 H 3277.81 -2.55884 -2.96039 0
M  V30 36853 H 3277.43 -1.0788 -3.82685 0
M  V30 36854 N 3278.43 1.29282 -0.901326 0
M  V30 36855 C 3279.67 1.97274 -0.535006 0
M  V30 36856 C 3280.03 1.69483 0.902197 0
M  V30 36857 O 3281.23 2.30942 1.37547 0
M  V30 36858 C 3279.5 3.47839 -0.821156 0
M  V30 36859 S 3281.06 4.3522 -0.559388 0
M  V30 36860 H 3277.88 0.682752 -0.198421 0
M  V30 36861 H 3280.48 1.57063 -1.16411 0
M  V30 36862 H 3279.18 3.65559 -1.86534 0
M  V30 36863 H 3278.72 3.92987 -0.180229 0
M  V30 36864 H 3280.73 4.92621 0.594853 0
M  V30 36865 N 3279.9 0.663979 1.4293 0
M  V30 36866 C 3281.18 0.111208 1.95284 0
M  V30 36867 C 3281.56 -1.3714 1.60487 0
M  V30 36868 O 3280.91 -2.10223 0.895462 0
M  V30 36869 C 3281.12 0.36885 3.47045 0
M  V30 36870 C 3282.47 0.279548 4.23679 0
M  V30 36871 O 3283.49 0.301999 3.54917 0
M  V30 36872 O 3282.35 0.212456 5.46087 0
M  V30 36873 H 3279.44 -0.00340264 0.826993 0
M  V30 36874 H 3281.99 0.737962 1.52814 0
M  V30 36875 H 3280.76 1.39632 3.65539 0
M  V30 36876 H 3280.38 -0.290444 3.96538 0
M  V30 36877 N 3281.38 -1.52265 0.406593 0
M  V30 36878 C 3282.63 -2.02084 -0.170269 0
M  V30 36879 C 3282.96 -1.29178 -1.45005 0
M  V30 36880 O 3282.24 -0.397344 -1.90398 0
M  V30 36881 C 3282.52 -3.57636 -0.420564 0
M  V30 36882 C 3282.37 -4.41193 0.875718 0
M  V30 36883 C 3283.69 -4.23316 -1.20379 0
M  V30 36884 H 3280.81 -0.73452 -0.060409 0
M  V30 36885 H 3283.45 -1.82178 0.539561 0
M  V30 36886 H 3281.6 -3.74728 -1.02523 0
M  V30 36887 H 3283.27 -4.35817 1.512 0
M  V30 36888 H 3281.52 -4.07509 1.48725 0
M  V30 36889 H 3282.19 -5.481 0.655012 0
M  V30 36890 H 3284.66 -4.10307 -0.6919 0
M  V30 36891 H 3283.54 -5.32099 -1.34767 0
M  V30 36892 H 3283.8 -3.82103 -2.22373 0
M  V30 36893 N 3282.86 -0.136936 -1.57004 0
M  V30 36894 C 3284.27 0.385545 -1.82676 0
M  V30 36895 C 3284.62 1.65414 -1.05511 0
M  V30 36896 O 3283.75 2.14349 -0.297245 0
M  V30 36897 C 3284.34 0.706268 -3.31357 0
M  V30 36898 C 3282.9 1.17331 -3.57646 0
M  V30 36899 C 3282.05 0.19119 -2.7664 0
M  V30 36900 H 3285 -0.361798 -1.54521 0
M  V30 36901 H 3285.02 1.56195 -3.46963 0
M  V30 36902 H 3284.53 -0.217215 -3.87492 0
M  V30 36903 H 3282.63 2.11308 -3.06887 0
M  V30 36904 H 3282.75 1.10624 -4.66154 0
M  V30 36905 H 3281.11 0.681824 -2.45404 0
M  V30 36906 H 3281.89 -0.725706 -3.35542 0
M  V30 36907 N 3284.34 1.57005 0.136853 0
M  V30 36908 C 3285.56 1.88438 0.866372 0
M  V30 36909 C 3285.99 0.727036 1.73481 0
M  V30 36910 O 3285.35 -0.323063 1.78398 0
M  V30 36911 C 3285.39 3.18517 1.69054 0
M  V30 36912 O 3284.5 3.03165 2.79579 0
M  V30 36913 H 3283.84 0.618838 0.240698 0
M  V30 36914 H 3286.37 2.0422 0.124617 0
M  V30 36915 H 3286.38 3.50793 2.08347 0
M  V30 36916 H 3285.05 4.02352 1.05289 0
M  V30 36917 H 3283.63 2.8232 2.43619 0
M  V30 36918 N 3285.82 -0.406513 1.52267 0
M  V30 36919 C 3287.23 -0.745324 1.41128 0
M  V30 36920 C 3287.43 -1.94732 0.517837 0
M  V30 36921 O 3286.49 -2.52495 -0.0153843 0
M  V30 36922 C 3287.8 -0.996809 2.83697 0
M  V30 36923 C 3289.35 -1.09936 2.93058 0
M  V30 36924 C 3289.82 -1.38359 4.36601 0
M  V30 36925 N 3291.32 -1.45219 4.39847 0
M  V30 36926 C 3292.05 -1.68843 5.47978 0
M  V30 36927 N 3291.55 -1.90053 6.66222 0
M  V30 36928 N 3293.34 -1.70879 5.35497 0
M  V30 36929 H 3285.49 0.384669 2.08888 0
M  V30 36930 H 3287.75 0.109826 0.941617 0
M  V30 36931 H 3287.46 -0.185924 3.51208 0
M  V30 36932 H 3287.33 -1.91627 3.24899 0
M  V30 36933 H 3289.72 -1.90084 2.25726 0
M  V30 36934 H 3289.8 -0.158211 2.5531 0
M  V30 36935 H 3289.45 -0.587284 5.04493 0
M  V30 36936 H 3289.38 -2.33731 4.71887 0
M  V30 36937 H 3291.87 -1.30606 3.54613 0
M  V30 36938 H 3292.18 -2.07537 7.44411 0
M  V30 36939 H 3290.52 -1.87313 6.69282 0
M  V30 36940 H 3293.72 -1.53848 4.42096 0
M  V30 36941 H 3293.89 -1.88951 6.1984 0
M  V30 36942 N 3287.29 -1.42934 -0.663904 0
M  V30 36943 C 3288.2 -1.49687 -1.80641 0
M  V30 36944 C 3289.22 -0.38475 -1.69693 0
M  V30 36945 O 3290.4 -0.63729 -1.91051 0
M  V30 36946 C 3287.46 -1.40726 -3.16855 0
M  V30 36947 C 3286.52 -2.6252 -3.39679 0
M  V30 36948 C 3285.76 -2.53977 -4.69395 0
M  V30 36949 O 3285.98 -1.58161 -5.48034 0
M  V30 36950 O 3284.91 -3.44297 -4.93703 0
M  V30 36951 H 3288.74 -2.46141 -1.77899 0
M  V30 36952 H 3286.32 -1.24817 -0.821037 0
M  V30 36953 H 3288.21 -1.38131 -3.98118 0
M  V30 36954 H 3286.88 -0.47401 -3.20211 0
M  V30 36955 H 3285.79 -2.70688 -2.58222 0
M  V30 36956 H 3287.12 -3.5478 -3.41162 0
M  V30 36957 N 3288.77 0.901258 -1.29287 0
M  V30 36958 C 3289.7 2.02168 -1.16835 0
M  V30 36959 C 3290.68 1.69983 -0.0629564 0
M  V30 36960 O 3291.87 1.92684 -0.242157 0
M  V30 36961 C 3289 3.36927 -0.842465 0
M  V30 36962 C 3287.95 3.83316 -1.90401 0
M  V30 36963 C 3287.28 5.15183 -1.43147 0
M  V30 36964 C 3288.58 4.03811 -3.31261 0
M  V30 36965 H 3290.27 2.12843 -2.10566 0
M  V30 36966 H 3287.82 1.02268 -1.01377 0
M  V30 36967 H 3289.77 4.14815 -0.742072 0
M  V30 36968 H 3288.5 3.26339 0.13054 0
M  V30 36969 H 3287.15 3.07644 -1.99376 0
M  V30 36970 H 3286.8 5.01008 -0.447179 0
M  V30 36971 H 3286.5 5.47191 -2.14139 0
M  V30 36972 H 3288.03 5.95613 -1.34454 0
M  V30 36973 H 3289.44 4.72185 -3.25137 0
M  V30 36974 H 3287.84 4.47171 -4.00197 0
M  V30 36975 H 3288.91 3.08199 -3.74355 0
M  V30 36976 N 3290.25 1.11738 1.11141 0
M  V30 36977 C 3291.67 0.851929 1.3496 0
M  V30 36978 C 3291.87 -0.521763 1.94628 0
M  V30 36979 O 3290.92 -1.27195 2.18123 0
M  V30 36980 C 3292.24 1.96252 2.27828 0
M  V30 36981 C 3293.78 1.99255 2.41385 0
M  V30 36982 C 3294.26 3.09525 3.37577 0
M  V30 36983 N 3295.75 3.0892 3.45141 0
M  V30 36984 C 3296.48 3.90884 4.19521 0
M  V30 36985 N 3295.98 4.82817 4.96849 0
M  V30 36986 N 3297.77 3.79049 4.15064 0
M  V30 36987 H 3289.92 2.00261 0.707766 0
M  V30 36988 H 3292.19 0.87104 0.374157 0
M  V30 36989 H 3291.89 2.95197 1.91184 0
M  V30 36990 H 3291.77 1.86137 3.28074 0
M  V30 36991 H 3294.15 1.00933 2.77302 0
M  V30 36992 H 3294.24 2.13444 1.4098 0
M  V30 36993 H 3293.88 4.08075 3.02386 0
M  V30 36994 H 3293.81 2.92575 4.37844 0
M  V30 36995 H 3296.3 2.42314 2.89987 0
M  V30 36996 H 3296.61 5.41886 5.50981 0
M  V30 36997 H 3294.96 4.86837 4.95999 0
M  V30 36998 H 3298.15 3.06568 3.53743 0
M  V30 36999 H 3298.32 4.43158 4.72773 0
M  V30 37000 N 3291.73 -1.28802 0.90817 0
M  V30 37001 C 3293.01 -1.90172 0.457595 0
M  V30 37002 C 3293.39 -1.82366 -1.06329 0
M  V30 37003 O 3292.73 -1.25592 -1.9089 0
M  V30 37004 C 3292.94 -3.34909 0.981683 0
M  V30 37005 C 3294.29 -4.11907 1.03044 0
M  V30 37006 O 3295.32 -3.43847 0.929938 0
M  V30 37007 O 3294.17 -5.3355 1.18266 0
M  V30 37008 H 3291.27 -0.81435 0.144095 0
M  V30 37009 H 3293.81 -1.37209 0.998589 0
M  V30 37010 H 3292.59 -3.34787 2.02567 0
M  V30 37011 H 3292.21 -3.95363 0.421191 0
M  V30 37012 N 3293.21 -0.67155 -1.42576 0
M  V30 37013 C 3294.14 -0.00511088 -2.33499 0
M  V30 37014 C 3295.12 0.792736 -1.50498 0
M  V30 37015 O 3296.3 0.750543 -1.7911 0
M  V30 37016 C 3293.43 0.949135 -3.34079 0
M  V30 37017 C 3292.39 0.260111 -4.27209 0
M  V30 37018 C 3291.71 1.32707 -5.1797 0
M  V30 37019 C 3293.01 -0.858863 -5.1519 0
M  V30 37020 H 3294.71 -0.764457 -2.89476 0
M  V30 37021 H 3292.25 -0.369067 -1.3919 0
M  V30 37022 H 3294.21 1.42441 -3.96596 0
M  V30 37023 H 3292.93 1.73986 -2.76399 0
M  V30 37024 H 3291.59 -0.194898 -3.66082 0
M  V30 37025 H 3291.24 2.1097 -4.56619 0
M  V30 37026 H 3290.94 0.871191 -5.81106 0
M  V30 37027 H 3292.46 1.80334 -5.83363 0
M  V30 37028 H 3293.87 -0.464944 -5.71412 0
M  V30 37029 H 3292.27 -1.24034 -5.87142 0
M  V30 37030 H 3293.34 -1.70903 -4.53784 0
M  V30 37031 N 3294.68 1.52047 -0.414663 0
M  V30 37032 C 3295.63 2.27163 0.408101 0
M  V30 37033 C 3296.6 1.29805 1.03634 0
M  V30 37034 O 3297.79 1.58676 1.05956 0
M  V30 37035 C 3294.93 3.10027 1.51582 0
M  V30 37036 C 3294.04 4.22351 0.90796 0
M  V30 37037 C 3293.17 4.92563 1.98884 0
M  V30 37038 C 3292.21 5.96841 1.3582 0
M  V30 37039 N 3291.35 6.6055 2.37947 0
M  V30 37040 H 3296.19 2.97041 -0.238874 0
M  V30 37041 H 3293.73 1.46528 -0.12964 0
M  V30 37042 H 3295.69 3.56379 2.1691 0
M  V30 37043 H 3294.32 2.42309 2.13275 0
M  V30 37044 H 3293.37 3.80129 0.143585 0
M  V30 37045 H 3294.68 4.97134 0.407339 0
M  V30 37046 H 3293.83 5.42348 2.71925 0
M  V30 37047 H 3292.57 4.1736 2.52313 0
M  V30 37048 H 3291.58 5.4637 0.61315 0
M  V30 37049 H 3292.8 6.7399 0.831536 0
M  V30 37050 H 3290.75 5.88173 2.90498 0
M  V30 37051 H 3290.67 7.31025 1.92712 0
M  V30 37052 H 3291.93 7.14972 3.10541 0
M  V30 37053 N 3296.16 0.145261 1.56929 0
M  V30 37054 C 3297.09 -0.791224 2.19686 0
M  V30 37055 C 3298.07 -1.25831 1.14457 0
M  V30 37056 O 3299.26 -1.31619 1.42794 0
M  V30 37057 C 3296.39 -2.03119 2.81709 0
M  V30 37058 C 3295.34 -1.70094 3.92749 0
M  V30 37059 C 3294.67 -3.0134 4.417 0
M  V30 37060 C 3295.97 -0.948935 5.13607 0
M  V30 37061 H 3297.66 -0.268197 2.98196 0
M  V30 37062 H 3295.21 -0.127558 1.43434 0
M  V30 37063 H 3297.16 -2.69113 3.24278 0
M  V30 37064 H 3295.89 -2.57791 2.00527 0
M  V30 37065 H 3294.54 -1.06479 3.50796 0
M  V30 37066 H 3294.19 -3.53999 3.57342 0
M  V30 37067 H 3293.89 -2.80006 5.16595 0
M  V30 37068 H 3295.42 -3.68407 4.86938 0
M  V30 37069 H 3296.83 -1.51092 5.53032 0
M  V30 37070 H 3295.23 -0.835607 5.94254 0
M  V30 37071 H 3296.3 0.0596483 4.84863 0
M  V30 37072 N 3297.64 -1.57075 -0.128525 0
M  V30 37073 C 3298.59 -2.00613 -1.17716 0
M  V30 37074 C 3299.58 -0.901485 -1.43421 0
M  V30 37075 O 3300.79 -1.08669 -1.43496 0
M  V30 37076 H 3297.16 -0.638871 -0.396672 0
M  V30 37077 H 3299.14 -2.87933 -0.783387 0
M  V30 37078 C 3297.88 -2.41835 -2.49822 0
M  V30 37079 H 3297.21 -3.26398 -2.30878 0
M  V30 37080 H 3298.65 -2.76105 -3.21779 0
M  V30 37081 C 3297.11 -1.27822 -3.1171 0
M  V30 37082 O 3297.64 -0.588987 -3.97359 0
M  V30 37083 N 3295.84 -1.03771 -2.7144 0
M  V30 37084 H 3295.39 -1.59997 -2.01888 0
M  V30 37085 H 3295.35 -0.276798 -3.13179 0
M  V30 37086 N 3299.12 0.398432 -1.5248 0
M  V30 37087 C 3300.05 1.50542 -1.72829 0
M  V30 37088 C 3301.06 1.50992 -0.608709 0
M  V30 37089 O 3302.25 1.55064 -0.884158 0
M  V30 37090 C 3299.35 2.89414 -1.76332 0
M  V30 37091 C 3298.53 3.13035 -3.05496 0
M  V30 37092 C 3297.59 4.31838 -3.00671 0
M  V30 37093 O 3296.61 4.28599 -3.74555 0
M  V30 37094 N 3297.81 5.37523 -2.19201 0
M  V30 37095 H 3300.58 1.33477 -2.68336 0
M  V30 37096 H 3298.14 0.587848 -1.50851 0
M  V30 37097 H 3300.13 3.66974 -1.70622 0
M  V30 37098 H 3298.7 2.99884 -0.882529 0
M  V30 37099 H 3297.92 2.23423 -3.24771 0
M  V30 37100 H 3299.21 3.25666 -3.90921 0
M  V30 37101 H 3298.61 5.43006 -1.58622 0
M  V30 37102 H 3297.16 6.13786 -2.19339 0
M  V30 37103 N 3300.6 1.43284 0.656314 0
M  V30 37104 C 3301.55 1.48465 1.79056 0
M  V30 37105 C 3302.54 0.358542 1.65562 0
M  V30 37106 O 3303.75 0.532395 1.71946 0
M  V30 37107 H 3300.12 0.465369 0.590708 0
M  V30 37108 H 3302.09 2.43978 1.71806 0
M  V30 37109 C 3300.84 1.4218 3.17301 0
M  V30 37110 H 3300.16 2.28136 3.2832 0
M  V30 37111 H 3301.6 1.49867 3.96631 0
M  V30 37112 C 3300.06 0.138988 3.36613 0
M  V30 37113 O 3300.59 -0.800941 3.93634 0
M  V30 37114 N 3298.8 0.0501748 2.90557 0
M  V30 37115 H 3298.35 0.815864 2.44339 0
M  V30 37116 H 3298.3 -0.807451 3.03855 0
M  V30 37117 N 3302.08 -0.894389 1.29763 0
M  V30 37118 C 3303.01 -2.00119 1.0967 0
M  V30 37119 C 3303.99 -1.62598 0.00702935 0
M  V30 37120 O 3305.17 -1.8783 0.158761 0
M  V30 37121 C 3302.3 -3.31994 0.670646 0
M  V30 37122 C 3301.34 -3.88501 1.7598 0
M  V30 37123 S 3302.18 -4.16954 3.3602 0
M  V30 37124 C 3303.33 -5.51862 2.95295 0
M  V30 37125 H 3303.57 -2.16856 2.03373 0
M  V30 37126 H 3301.1 -1.04164 1.1397 0
M  V30 37127 H 3303.06 -4.08225 0.431552 0
M  V30 37128 H 3301.72 -3.13128 -0.246869 0
M  V30 37129 H 3300.91 -4.83765 1.41376 0
M  V30 37130 H 3300.51 -3.18976 1.95269 0
M  V30 37131 H 3302.8 -6.32548 2.4267 0
M  V30 37132 H 3303.75 -5.91396 3.89431 0
M  V30 37133 H 3304.16 -5.13973 2.33435 0
M  V30 37134 N 3303.55 -1.12326 -1.10547 0
M  V30 37135 C 3304.83 -0.789319 -1.78967 0
M  V30 37136 C 3305.21 0.721121 -1.98401 0
M  V30 37137 O 3304.56 1.6544 -1.57613 0
M  V30 37138 C 3304.77 -1.56306 -3.12041 0
M  V30 37139 C 3306.12 -1.74831 -3.86936 0
M  V30 37140 O 3307.14 -1.52808 -3.21758 0
M  V30 37141 O 3306 -2.11497 -5.03916 0
M  V30 37142 H 3303.09 -0.286976 -0.775612 0
M  V30 37143 H 3305.64 -1.22722 -1.17207 0
M  V30 37144 H 3304.41 -2.5901 -2.93308 0
M  V30 37145 H 3304.03 -1.11933 -3.81519 0
M  V30 37146 N 3305.03 1.28319 -0.914988 0
M  V30 37147 C 3305.96 2.29667 -0.421332 0
M  V30 37148 C 3306.94 1.62221 0.511714 0
M  V30 37149 O 3308.13 1.89622 0.419184 0
M  V30 37150 C 3305.26 3.45648 0.338303 0
M  V30 37151 C 3304.21 4.25002 -0.505721 0
M  V30 37152 C 3303.54 5.33331 0.382327 0
M  V30 37153 C 3304.84 4.91623 -1.76363 0
M  V30 37154 H 3306.53 2.71209 -1.26831 0
M  V30 37155 H 3304.08 1.3038 -0.611314 0
M  V30 37156 H 3306.03 4.15638 0.694505 0
M  V30 37157 H 3304.75 3.0299 1.2192 0
M  V30 37158 H 3303.41 3.56741 -0.844457 0
M  V30 37159 H 3303.06 4.86916 1.2618 0
M  V30 37160 H 3302.76 5.87328 -0.178813 0
M  V30 37161 H 3304.29 6.06168 0.734383 0
M  V30 37162 H 3305.7 5.53967 -1.47626 0
M  V30 37163 H 3304.1 5.55621 -2.26727 0
M  V30 37164 H 3305.17 4.16044 -2.4907 0
M  V30 37165 N 3306.51 0.679102 1.42218 0
M  V30 37166 C 3307.46 -0.0193978 2.27992 0
M  V30 37167 C 3308.44 -0.769288 1.41318 0
M  V30 37168 O 3309.64 -0.647492 1.64732 0
M  V30 37169 C 3306.76 -0.966887 3.29403 0
M  V30 37170 C 3305.85 -0.214113 4.23559 0
M  V30 37171 N 3306.24 0.783314 4.99698 0
M  V30 37172 C 3304.54 -0.451948 4.43704 0
M  V30 37173 C 3305.24 1.23247 5.68494 0
M  V30 37174 N 3304.22 0.561579 5.40691 0
M  V30 37175 H 3308.02 0.745592 2.84285 0
M  V30 37176 H 3305.53 0.508531 1.54233 0
M  V30 37177 H 3307.53 -1.48231 3.89658 0
M  V30 37178 H 3306.19 -1.73166 2.7467 0
M  V30 37179 H 3307.2 1.163 5.04673 0
M  V30 37180 H 3303.88 -1.19588 4.00006 0
M  V30 37181 H 3305.27 2.05923 6.39566 0
M  V30 37182 N 3307.99 -1.51825 0.42272 0
M  V30 37183 C 3309.24 -2.01141 -0.15003 0
M  V30 37184 C 3309.55 -1.31217 -1.45057 0
M  V30 37185 O 3310.76 -1.71422 -2.10539 0
M  V30 37186 C 3309.21 -3.58493 -0.317922 0
M  V30 37187 C 3308.82 -4.37344 0.971321 0
M  V30 37188 C 3310.56 -4.16 -0.84523 0
M  V30 37189 C 3308.47 -5.86368 0.769872 0
M  V30 37190 H 3307.4 -0.751621 -0.0598435 0
M  V30 37191 H 3310.05 -1.75056 0.550248 0
M  V30 37192 H 3308.43 -3.80964 -1.08086 0
M  V30 37193 H 3309.61 -4.26626 1.74145 0
M  V30 37194 H 3307.92 -3.91219 1.42606 0
M  V30 37195 H 3310.52 -5.25032 -1.0122 0
M  V30 37196 H 3310.86 -3.74229 -1.82369 0
M  V30 37197 H 3311.4 -3.9755 -0.140997 0
M  V30 37198 H 3308.13 -6.32524 1.72028 0
M  V30 37199 H 3307.65 -5.99787 0.0392771 0
M  V30 37200 H 3309.33 -6.45653 0.417338 0
M  V30 37201 N 3309.47 -0.153581 -1.5685 0
M  V30 37202 C 3310.38 0.796489 -2.20665 0
M  V30 37203 C 3311.39 1.26671 -1.19291 0
M  V30 37204 O 3312.57 1.32253 -1.51891 0
M  V30 37205 C 3309.63 2.01556 -2.82092 0
M  V30 37206 C 3308.69 1.59394 -3.98613 0
M  V30 37207 C 3307.93 2.7549 -4.57101 0
M  V30 37208 O 3308.15 3.91883 -4.14469 0
M  V30 37209 O 3307.08 2.50584 -5.47258 0
M  V30 37210 H 3310.91 0.283229 -3.02376 0
M  V30 37211 H 3308.49 0.0737665 -1.49218 0
M  V30 37212 H 3310.38 2.72887 -3.21108 0
M  V30 37213 H 3309.05 2.51822 -2.0339 0
M  V30 37214 H 3307.96 0.850661 -3.643 0
M  V30 37215 H 3309.29 1.13837 -4.78855 0
M  V30 37216 N 3310.94 1.57141 0.120193 0
M  V30 37217 C 3311.85 2.03551 1.16637 0
M  V30 37218 C 3312.87 0.955682 1.45405 0
M  V30 37219 O 3314.05 1.26711 1.56545 0
M  V30 37220 C 3311.11 2.42952 2.47336 0
M  V30 37221 C 3310.17 3.65012 2.25976 0
M  V30 37222 C 3309.4 4.02524 3.50442 0
M  V30 37223 O 3309.63 3.40392 4.577 0
M  V30 37224 O 3308.56 4.95632 3.41515 0
M  V30 37225 H 3312.39 2.92912 0.802272 0
M  V30 37226 H 3309.97 1.45689 0.330901 0
M  V30 37227 H 3311.85 2.69035 3.24343 0
M  V30 37228 H 3310.53 1.56738 2.83222 0
M  V30 37229 H 3309.44 3.44081 1.46831 0
M  V30 37230 H 3310.77 4.51927 1.94994 0
M  V30 37231 N 3312.42 -0.39034 1.5269 0
M  V30 37232 C 3313.67 -1.13269 1.66892 0
M  V30 37233 C 3313.98 -1.91158 0.414467 0
M  V30 37234 O 3315.19 -2.67966 0.436606 0
M  V30 37235 C 3313.65 -2.06258 2.94933 0
M  V30 37236 C 3313.25 -1.33797 4.27554 0
M  V30 37237 C 3315 -2.80637 3.18502 0
M  V30 37238 C 3312.91 -2.25545 5.46702 0
M  V30 37239 H 3311.84 -0.426538 0.621756 0
M  V30 37240 H 3314.49 -0.395584 1.79185 0
M  V30 37241 H 3312.87 -2.83599 2.76383 0
M  V30 37242 H 3314.04 -0.616916 4.56652 0
M  V30 37243 H 3312.36 -0.713841 4.10236 0
M  V30 37244 H 3314.95 -3.4946 4.04699 0
M  V30 37245 H 3315.3 -3.44638 2.33517 0
M  V30 37246 H 3315.83 -2.10389 3.37611 0
M  V30 37247 H 3312.57 -1.6616 6.34091 0
M  V30 37248 H 3312.09 -2.9557 5.21918 0
M  V30 37249 H 3313.77 -2.85658 5.80524 0
M  V30 37250 N 3313.9 -1.4363 -0.648706 0
M  V30 37251 C 3314.83 -1.5195 -1.77295 0
M  V30 37252 C 3315.81 -0.373814 -1.65942 0
M  V30 37253 O 3317 -0.591629 -1.84969 0
M  V30 37254 C 3314.13 -1.44643 -3.15746 0
M  V30 37255 C 3313.08 -2.57508 -3.41868 0
M  V30 37256 C 3312.41 -2.35254 -4.80166 0
M  V30 37257 C 3313.71 -3.99737 -3.36166 0
M  V30 37258 H 3315.4 -2.46048 -1.70589 0
M  V30 37259 H 3312.95 -1.18422 -0.819285 0
M  V30 37260 H 3314.9 -1.49067 -3.94153 0
M  V30 37261 H 3313.62 -0.470523 -3.23193 0
M  V30 37262 H 3312.28 -2.52444 -2.65833 0
M  V30 37263 H 3311.93 -1.35896 -4.84295 0
M  V30 37264 H 3311.63 -3.10914 -4.98604 0
M  V30 37265 H 3313.15 -2.41469 -5.60825 0
M  V30 37266 H 3314.57 -4.06264 -4.04503 0
M  V30 37267 H 3312.97 -4.75459 -3.6614 0
M  V30 37268 H 3314.04 -4.24553 -2.3427 0
M  V30 37269 N 3315.38 0.887495 -1.30236 0
M  V30 37270 C 3316.33 1.99296 -1.16403 0
M  V30 37271 C 3317.3 1.66012 -0.0541828 0
M  V30 37272 O 3318.48 1.89482 -0.223914 0
M  V30 37273 C 3315.62 3.34232 -0.859228 0
M  V30 37274 C 3314.73 3.80223 -2.05072 0
M  V30 37275 C 3313.87 5.03793 -1.68421 0
M  V30 37276 C 3312.91 5.42185 -2.8408 0
M  V30 37277 N 3312.04 6.56938 -2.47743 0
M  V30 37278 H 3316.88 2.10459 -2.10976 0
M  V30 37279 H 3314.42 1.03051 -1.04971 0
M  V30 37280 H 3316.38 4.11896 -0.663137 0
M  V30 37281 H 3315.01 3.22762 0.0496241 0
M  V30 37282 H 3314.06 2.9849 -2.35813 0
M  V30 37283 H 3315.37 4.04617 -2.91695 0
M  V30 37284 H 3314.53 5.89075 -1.45172 0
M  V30 37285 H 3313.27 4.81265 -0.789637 0
M  V30 37286 H 3312.27 4.55431 -3.07998 0
M  V30 37287 H 3313.5 5.66688 -3.74221 0
M  V30 37288 H 3311.44 6.3599 -1.60788 0
M  V30 37289 H 3311.36 6.81189 -3.27899 0
M  V30 37290 H 3312.63 7.45458 -2.27844 0
M  V30 37291 N 3316.86 1.12911 1.0995 0
M  V30 37292 C 3318.13 0.798799 1.78546 0
M  V30 37293 C 3318.51 -0.710589 1.98781 0
M  V30 37294 O 3317.86 -1.64602 1.58488 0
M  V30 37295 C 3318.07 1.57959 3.11207 0
M  V30 37296 C 3319.42 1.76881 3.86003 0
M  V30 37297 O 3320.44 1.54512 3.20943 0
M  V30 37298 O 3319.3 2.14167 5.02787 0
M  V30 37299 H 3316.4 0.291085 0.774079 0
M  V30 37300 H 3318.94 1.23342 1.16554 0
M  V30 37301 H 3317.71 2.60562 2.9193 0
M  V30 37302 H 3317.34 1.13955 3.8092 0
M  V30 37303 N 3318.33 -1.27832 0.92178 0
M  V30 37304 C 3319.58 -1.94628 0.559112 0
M  V30 37305 C 3319.91 -1.72497 -0.898611 0
M  V30 37306 O 3319.16 -1.04373 -1.65544 0
M  V30 37307 C 3319.46 -3.47764 0.82432 0
M  V30 37308 C 3319.13 -3.90007 2.26285 0
M  V30 37309 C 3317.79 -4.01252 2.65614 0
M  V30 37310 C 3320.14 -4.11508 3.19861 0
M  V30 37311 C 3317.47 -4.3138 3.97653 0
M  V30 37312 C 3319.82 -4.43118 4.51474 0
M  V30 37313 C 3318.49 -4.52574 4.90645 0
M  V30 37314 H 3317.76 -0.712195 0.204594 0
M  V30 37315 H 3320.4 -1.52016 1.16462 0
M  V30 37316 H 3318.71 -3.91564 0.13608 0
M  V30 37317 H 3320.41 -3.97578 0.522771 0
M  V30 37318 H 3317 -3.81788 1.94771 0
M  V30 37319 H 3321.18 -4.02266 2.90681 0
M  V30 37320 H 3316.44 -4.36909 4.27692 0
M  V30 37321 H 3320.61 -4.58702 5.2399 0
M  V30 37322 H 3318.24 -4.75674 5.92991 0
M  V30 37323 N 3319.81 -0.686634 -1.41856 0
M  V30 37324 C 3321.04 -0.221073 -2.06218 0
M  V30 37325 C 3321.46 1.11759 -1.51299 0
M  V30 37326 O 3320.82 1.69768 -0.636283 0
M  V30 37327 C 3320.87 -0.179488 -3.60153 0
M  V30 37328 O 3319.97 0.848411 -4.03579 0
M  V30 37329 H 3319.31 -0.110239 -0.654785 0
M  V30 37330 H 3321.84 -0.93898 -1.81781 0
M  V30 37331 H 3321.85 -0.00732504 -4.07999 0
M  V30 37332 H 3320.53 -1.15654 -3.99496 0
M  V30 37333 H 3319.11 0.646328 -3.67256 0
M  V30 37334 N 3321.29 1.51599 -0.430766 0
M  V30 37335 C 3322.2 2.3133 0.390307 0
M  V30 37336 C 3323.22 1.39964 1.03374 0
M  V30 37337 O 3324.39 1.73037 1.03054 0
M  V30 37338 C 3321.46 3.13508 1.48033 0
M  V30 37339 C 3320.52 4.20644 0.857718 0
M  V30 37340 C 3319.75 4.98894 1.8958 0
M  V30 37341 O 3319.97 4.77696 3.11709 0
M  V30 37342 O 3318.91 5.83166 1.48999 0
M  V30 37343 H 3322.73 3.02581 -0.260411 0
M  V30 37344 H 3320.32 1.48142 -0.193454 0
M  V30 37345 H 3322.2 3.64616 2.11265 0
M  V30 37346 H 3320.88 2.45028 2.11525 0
M  V30 37347 H 3319.78 3.7363 0.187526 0
M  V30 37348 H 3321.12 4.91479 0.266388 0
M  V30 37349 N 3322.77 0.161897 1.56766 0
M  V30 37350 C 3323.99 -0.495195 2.01402 0
M  V30 37351 C 3324.42 -1.56644 1.04136 0
M  V30 37352 O 3323.78 -1.8129 0.0194066 0
M  V30 37353 C 3323.82 -1.05907 3.44697 0
M  V30 37354 O 3322.93 -2.17344 3.50479 0
M  V30 37355 H 3322.27 -0.119589 0.653142 0
M  V30 37356 H 3324.8 0.263016 2.02902 0
M  V30 37357 H 3324.81 -1.38403 3.83808 0
M  V30 37358 H 3323.48 -0.274677 4.14992 0
M  V30 37359 H 3322.06 -1.85963 3.23221 0
M  V30 37360 N 3324.25 -1.57203 -0.111858 0
M  V30 37361 C 3325.16 -2.04167 -1.15556 0
M  V30 37362 C 3326.17 -0.96338 -1.44897 0
M  V30 37363 O 3327.35 -1.27539 -1.55871 0
M  V30 37364 C 3324.41 -2.44261 -2.46044 0
M  V30 37365 C 3323.47 -3.66205 -2.24037 0
M  V30 37366 C 3322.71 -4.04377 -3.48303 0
M  V30 37367 O 3322.93 -3.42814 -4.55889 0
M  V30 37368 O 3321.86 -4.97436 -3.38882 0
M  V30 37369 H 3325.69 -2.93333 -0.786727 0
M  V30 37370 H 3323.28 -1.45863 -0.32317 0
M  V30 37371 H 3325.16 -2.70751 -3.22912 0
M  V30 37372 H 3323.83 -1.58238 -2.82387 0
M  V30 37373 H 3322.74 -3.44854 -1.45004 0
M  V30 37374 H 3324.07 -4.52955 -1.92594 0
M  V30 37375 N 3325.72 0.382237 -1.52894 0
M  V30 37376 C 3326.97 1.1266 -1.68268 0
M  V30 37377 C 3327.3 1.89777 -0.426007 0
M  V30 37378 O 3326.55 1.86539 0.591747 0
M  V30 37379 C 3326.85 2.12571 -2.87312 0
M  V30 37380 C 3326.52 1.5206 -4.24486 0
M  V30 37381 C 3325.18 1.35283 -4.61792 0
M  V30 37382 C 3327.53 1.08129 -5.0986 0
M  V30 37383 C 3324.86 0.731346 -5.82124 0
M  V30 37384 C 3327.21 0.473875 -6.30823 0
M  V30 37385 C 3325.88 0.293467 -6.66855 0
M  V30 37386 H 3325.15 0.412251 -0.615736 0
M  V30 37387 H 3327.79 0.410392 -1.87051 0
M  V30 37388 H 3326.1 2.90435 -2.62973 0
M  V30 37389 H 3327.8 2.70087 -2.96402 0
M  V30 37390 H 3324.39 1.66107 -3.95103 0
M  V30 37391 H 3328.57 1.19889 -4.81602 0
M  V30 37392 H 3323.83 0.579831 -6.08644 0
M  V30 37393 H 3328 0.125201 -6.96287 0
M  V30 37394 H 3325.63 -0.190187 -7.59962 0
M  V30 37395 N 3327.2 1.43972 0.64108 0
M  V30 37396 C 3328.61 1.41108 1.22252 0
M  V30 37397 C 3328.97 0.121318 1.95825 0
M  V30 37398 O 3328.09 -0.778755 2.01902 0
M  V30 37399 C 3328.69 2.5562 2.22359 0
M  V30 37400 C 3327.24 2.55983 2.75953 0
M  V30 37401 C 3326.39 2.3272 1.50787 0
M  V30 37402 H 3329.34 1.52697 0.432355 0
M  V30 37403 H 3329.36 2.27804 3.04771 0
M  V30 37404 H 3328.88 3.49477 1.68783 0
M  V30 37405 H 3326.98 1.6604 3.33559 0
M  V30 37406 H 3327.09 3.54148 3.2267 0
M  V30 37407 H 3325.45 1.8162 1.78567 0
M  V30 37408 H 3326.24 3.28677 0.991285 0
M  V30 37409 N 3328.68 -0.880575 1.30704 0
M  V30 37410 C 3329.91 -1.67103 1.22846 0
M  V30 37411 C 3330.33 -1.86982 -0.204755 0
M  V30 37412 O 3329.69 -1.40394 -1.14713 0
M  V30 37413 C 3329.74 -3.02234 1.9669 0
M  V30 37414 O 3328.84 -3.91474 1.297 0
M  V30 37415 H 3328.18 -0.510442 0.42467 0
M  V30 37416 H 3330.71 -1.09868 1.72598 0
M  V30 37417 H 3330.72 -3.52246 2.05881 0
M  V30 37418 H 3329.4 -2.87085 3.00924 0
M  V30 37419 H 3327.97 -3.49916 1.28892 0
M  V30 37420 N 3330.16 -1.13492 -1.09349 0
M  V30 37421 C 3331.41 -0.891801 -1.80914 0
M  V30 37422 C 3331.72 0.583667 -1.86689 0
M  V30 37423 O 3332.93 0.943744 -2.5457 0
M  V30 37424 C 3331.38 -1.54592 -3.25007 0
M  V30 37425 C 3330.99 -3.05697 -3.27495 0
M  V30 37426 C 3332.74 -1.38354 -4.01321 0
M  V30 37427 C 3330.64 -3.63991 -4.66117 0
M  V30 37428 H 3329.57 -0.32999 -0.677955 0
M  V30 37429 H 3332.22 -1.36272 -1.22891 0
M  V30 37430 H 3330.61 -1.00267 -3.83096 0
M  V30 37431 H 3331.78 -3.66609 -2.79167 0
M  V30 37432 H 3330.09 -3.21462 -2.64672 0
M  V30 37433 H 3332.69 -1.79316 -5.03736 0
M  V30 37434 H 3333.03 -0.328477 -4.15002 0
M  V30 37435 H 3333.57 -1.89662 -3.49676 0
M  V30 37436 H 3330.31 -4.69306 -4.57637 0
M  V30 37437 H 3329.83 -3.07857 -5.14766 0
M  V30 37438 H 3331.51 -3.63713 -5.35091 0
M  V30 37439 N 3331.64 1.27341 -0.928546 0
M  V30 37440 C 3332.58 2.26817 -0.426913 0
M  V30 37441 C 3333.55 1.58185 0.506635 0
M  V30 37442 O 3334.74 1.85993 0.425608 0
M  V30 37443 C 3331.88 3.43673 0.313462 0
M  V30 37444 C 3330.99 4.27016 -0.654295 0
M  V30 37445 C 3330.13 5.31094 0.106008 0
M  V30 37446 C 3329.17 6.06108 -0.8544 0
M  V30 37447 N 3328.3 7.01986 -0.126668 0
M  V30 37448 H 3333.14 2.69101 -1.28019 0
M  V30 37449 H 3330.68 1.32325 -0.642538 0
M  V30 37450 H 3332.64 4.10237 0.759048 0
M  V30 37451 H 3331.27 3.02339 1.13097 0
M  V30 37452 H 3330.32 3.6036 -1.21841 0
M  V30 37453 H 3331.63 4.79092 -1.38825 0
M  V30 37454 H 3330.79 6.03611 0.61147 0
M  V30 37455 H 3329.53 4.79824 0.872924 0
M  V30 37456 H 3328.53 5.32429 -1.3711 0
M  V30 37457 H 3329.76 6.59467 -1.62111 0
M  V30 37458 H 3327.7 6.53045 0.621987 0
M  V30 37459 H 3327.62 7.51753 -0.800178 0
M  V30 37460 H 3328.89 7.78677 0.358114 0
M  V30 37461 N 3333.12 0.694147 1.4149 0
M  V30 37462 C 3334.34 0.233503 2.05578 0
M  V30 37463 C 3334.76 -1.11673 1.52232 0
M  V30 37464 O 3334.12 -1.69758 0.669967 0
M  V30 37465 C 3334.17 0.181031 3.61046 0
M  V30 37466 O 3333.89 1.47792 4.12419 0
M  V30 37467 C 3335.39 -0.300776 4.42278 0
M  V30 37468 H 3332.61 0.108955 0.662095 0
M  V30 37469 H 3335.15 0.946331 1.81287 0
M  V30 37470 H 3333.31 -0.482611 3.84382 0
M  V30 37471 H 3333.72 1.36409 5.06451 0
M  V30 37472 H 3335.2 -0.286367 5.51257 0
M  V30 37473 H 3335.67 -1.33941 4.18278 0
M  V30 37474 H 3336.28 0.331816 4.24004 0
M  V30 37475 N 3334.59 -1.51368 0.438799 0
M  V30 37476 C 3335.5 -2.31534 -0.378033 0
M  V30 37477 C 3336.52 -1.4051 -1.0263 0
M  V30 37478 O 3337.7 -1.73581 -1.02135 0
M  V30 37479 C 3334.76 -3.14288 -1.46369 0
M  V30 37480 C 3333.82 -4.21093 -0.835398 0
M  V30 37481 C 3333.05 -4.99892 -1.86932 0
M  V30 37482 O 3333.28 -4.79343 -3.09171 0
M  V30 37483 O 3332.21 -5.83948 -1.45904 0
M  V30 37484 H 3336.04 -3.02439 0.276454 0
M  V30 37485 H 3333.62 -1.48038 0.201307 0
M  V30 37486 H 3335.5 -3.65731 -2.09329 0
M  V30 37487 H 3334.18 -2.46146 -2.10223 0
M  V30 37488 H 3333.09 -3.73724 -0.167709 0
M  V30 37489 H 3334.42 -4.91613 -0.24032 0
M  V30 37490 N 3336.07 -0.170208 -1.56678 0
M  V30 37491 C 3337.32 0.475029 -1.96849 0
M  V30 37492 C 3337.65 1.63328 -1.05614 0
M  V30 37493 O 3336.9 1.95493 -0.0900051 0
M  V30 37494 C 3337.2 1.0007 -3.43105 0
M  V30 37495 C 3336.87 -0.0415331 -4.50881 0
M  V30 37496 C 3335.53 -0.327978 -4.80081 0
M  V30 37497 C 3337.88 -0.749027 -5.1579 0
M  V30 37498 C 3335.21 -1.32732 -5.71488 0
M  V30 37499 C 3337.56 -1.73735 -6.08275 0
M  V30 37500 C 3336.22 -2.03125 -6.35843 0
M  V30 37501 H 3335.49 0.173825 -0.720323 0
M  V30 37502 H 3338.14 -0.261936 -1.897 0
M  V30 37503 H 3336.45 1.81546 -3.472 0
M  V30 37504 H 3338.14 1.50892 -3.71527 0
M  V30 37505 H 3334.73 0.1919 -4.2817 0
M  V30 37506 H 3338.92 -0.540939 -4.93343 0
M  V30 37507 H 3334.17 -1.56122 -5.91131 0
M  V30 37508 H 3338.35 -2.29094 -6.57639 0
M  V30 37509 H 3335.97 -2.80711 -7.06474 0
M  V30 37510 N 3337.55 1.5726 0.10352 0
M  V30 37511 C 3338.48 1.98133 1.15221 0
M  V30 37512 C 3339.49 0.882716 1.36792 0
M  V30 37513 O 3340.68 1.1609 1.35593 0
M  V30 37514 C 3337.78 2.2778 2.50937 0
M  V30 37515 C 3336.96 3.59081 2.49759 0
M  V30 37516 C 3336.02 3.76762 3.67337 0
M  V30 37517 O 3335.04 4.48708 3.50213 0
M  V30 37518 N 3336.24 3.16701 4.86499 0
M  V30 37519 H 3339.01 2.88703 0.804397 0
M  V30 37520 H 3336.57 1.59234 0.292608 0
M  V30 37521 H 3338.56 2.3681 3.28182 0
M  V30 37522 H 3337.13 1.4326 2.77841 0
M  V30 37523 H 3336.35 3.61098 1.58119 0
M  V30 37524 H 3337.64 4.45355 2.46042 0
M  V30 37525 H 3337.04 2.58245 5.03315 0
M  V30 37526 H 3335.59 3.31228 5.61365 0
M  V30 37527 N 3339.03 -0.374123 1.53095 0
M  V30 37528 C 3339.96 -1.47773 1.75202 0
M  V30 37529 C 3340.97 -1.50004 0.632654 0
M  V30 37530 O 3342.16 -1.53638 0.908715 0
M  V30 37531 C 3339.26 -2.86572 1.80914 0
M  V30 37532 C 3338.43 -3.08135 3.10438 0
M  V30 37533 C 3337.49 -4.26999 3.07503 0
M  V30 37534 O 3336.52 -4.22586 3.81327 0
M  V30 37535 N 3337.72 -5.33968 2.27725 0
M  V30 37536 H 3340.49 -1.29191 2.70425 0
M  V30 37537 H 3338.05 -0.563775 1.51767 0
M  V30 37538 H 3340.04 -3.64214 1.76439 0
M  V30 37539 H 3338.61 -2.98442 0.930126 0
M  V30 37540 H 3337.83 -2.18228 3.28284 0
M  V30 37541 H 3339.12 -3.19406 3.96052 0
M  V30 37542 H 3338.52 -5.40414 1.67241 0
M  V30 37543 H 3337.07 -6.10219 2.29076 0
M  V30 37544 N 3340.51 -1.4431 -0.633436 0
M  V30 37545 C 3341.75 -1.47189 -1.3951 0
M  V30 37546 C 3342.08 -0.10322 -1.93925 0
M  V30 37547 O 3341.36 0.878823 -1.73514 0
M  V30 37548 C 3341.64 -2.5304 -2.56208 0
M  V30 37549 C 3341.5 -3.99257 -2.07157 0
M  V30 37550 C 3342.81 -2.55419 -3.58398 0
M  V30 37551 H 3339.93 -0.535917 -0.505926 0
M  V30 37552 H 3342.58 -1.75976 -0.716414 0
M  V30 37553 H 3340.73 -2.28624 -3.14107 0
M  V30 37554 H 3342.4 -4.34797 -1.54107 0
M  V30 37555 H 3340.64 -4.11144 -1.3836 0
M  V30 37556 H 3341.31 -4.68965 -2.91163 0
M  V30 37557 H 3343.79 -2.77229 -3.10295 0
M  V30 37558 H 3342.66 -3.31389 -4.37575 0
M  V30 37559 H 3342.92 -1.59531 -4.12313 0
M  V30 37560 N 3341.98 0.873632 -1.3117 0
M  V30 37561 C 3342.91 1.99644 -1.21097 0
M  V30 37562 C 3343.9 1.69812 -0.0989982 0
M  V30 37563 O 3345.08 1.92127 -0.282973 0
M  V30 37564 C 3342.21 3.35064 -0.913743 0
M  V30 37565 C 3341.16 3.79192 -1.98489 0
M  V30 37566 C 3340.49 5.1203 -1.54042 0
M  V30 37567 C 3341.79 3.96693 -3.39752 0
M  V30 37568 H 3343.48 2.08329 -2.15033 0
M  V30 37569 H 3341.03 1.00095 -1.03523 0
M  V30 37570 H 3342.98 4.13147 -0.829893 0
M  V30 37571 H 3341.71 3.26542 0.0612897 0
M  V30 37572 H 3340.37 3.03346 -2.05857 0
M  V30 37573 H 3340.01 4.99947 -0.553349 0
M  V30 37574 H 3339.71 5.42526 -2.25697 0
M  V30 37575 H 3341.24 5.92627 -1.47058 0
M  V30 37576 H 3342.65 4.65182 -3.3508 0
M  V30 37577 H 3341.05 4.38582 -4.09592 0
M  V30 37578 H 3342.12 3.00189 -3.80808 0
M  V30 37579 N 3343.46 1.1407 1.08746 0
M  V30 37580 C 3344.69 0.930565 1.85352 0
M  V30 37581 C 3345.11 -0.515685 1.80893 0
M  V30 37582 O 3344.47 -1.3665 1.19149 0
M  V30 37583 C 3344.52 1.43173 3.30959 0
M  V30 37584 O 3343.62 0.621539 4.07689 0
M  V30 37585 H 3342.96 0.332972 0.574479 0
M  V30 37586 H 3345.49 1.51709 1.37279 0
M  V30 37587 H 3345.5 1.43838 3.81804 0
M  V30 37588 H 3344.18 2.4847 3.3352 0
M  V30 37589 H 3342.76 0.683331 3.66586 0
M  V30 37590 N 3344.94 -1.26847 0.935286 0
M  V30 37591 C 3345.89 -2.28573 0.430936 0
M  V30 37592 C 3346.88 -1.62197 -0.48871 0
M  V30 37593 O 3348.09 -1.76207 -0.367574 0
M  V30 37594 H 3344.46 -0.742233 0.120806 0
M  V30 37595 H 3346.43 -2.68519 1.30155 0
M  V30 37596 C 3345.18 -3.46455 -0.293992 0
M  V30 37597 H 3344.51 -3.97749 0.404486 0
M  V30 37598 H 3345.95 -4.19572 -0.611198 0
M  V30 37599 C 3344.41 -3.01181 -1.5097 0
M  V30 37600 O 3344.94 -3.05508 -2.60821 0
M  V30 37601 N 3343.14 -2.5659 -1.36419 0
M  V30 37602 H 3342.69 -2.53268 -0.470439 0
M  V30 37603 H 3342.65 -2.2666 -2.17882 0
M  V30 37604 N 3346.42 -0.701641 -1.4112 0
M  V30 37605 C 3347.83 -0.373793 -1.55161 0
M  V30 37606 C 3348.03 1.11872 -1.67592 0
M  V30 37607 O 3347.09 1.90463 -1.65772 0
M  V30 37608 C 3348.4 -1.12764 -2.78756 0
M  V30 37609 C 3349.95 -1.11258 -2.92559 0
M  V30 37610 C 3350.43 -1.84829 -4.19049 0
M  V30 37611 N 3351.92 -1.81829 -4.26019 0
M  V30 37612 C 3352.65 -2.3559 -5.22767 0
M  V30 37613 N 3352.15 -2.97847 -6.25507 0
M  V30 37614 N 3353.94 -2.25811 -5.14748 0
M  V30 37615 H 3346.09 -1.66958 -1.31296 0
M  V30 37616 H 3348.36 -0.70491 -0.633882 0
M  V30 37617 H 3348.06 -2.18236 -2.75801 0
M  V30 37618 H 3347.94 -0.71016 -3.70455 0
M  V30 37619 H 3350.32 -0.0661024 -2.95026 0
M  V30 37620 H 3350.4 -1.56916 -2.02017 0
M  V30 37621 H 3350.05 -2.8946 -4.17343 0
M  V30 37622 H 3349.98 -1.36601 -5.08574 0
M  V30 37623 H 3352.47 -1.36444 -3.52408 0
M  V30 37624 H 3352.78 -3.36421 -6.9573 0
M  V30 37625 H 3351.13 -3.01927 -6.25991 0
M  V30 37626 H 3354.32 -1.76841 -4.33411 0
M  V30 37627 H 3354.49 -2.68011 -5.89978 0
M  V30 37628 N 3347.9 1.51133 -0.446821 0
M  V30 37629 C 3348.84 2.27978 0.359825 0
M  V30 37630 C 3349.81 1.31974 1.00857 0
M  V30 37631 O 3351 1.60887 1.02567 0
M  V30 37632 C 3348.14 3.13173 1.44972 0
M  V30 37633 C 3347.25 4.24182 0.818169 0
M  V30 37634 C 3346.39 4.96671 1.88391 0
M  V30 37635 C 3345.43 5.99588 1.2313 0
M  V30 37636 N 3344.56 6.65448 2.23882 0
M  V30 37637 H 3349.4 2.96468 -0.301827 0
M  V30 37638 H 3346.94 1.4622 -0.160692 0
M  V30 37639 H 3348.9 3.609 2.09302 0
M  V30 37640 H 3347.53 2.46778 2.08087 0
M  V30 37641 H 3346.58 3.80348 0.0629221 0
M  V30 37642 H 3347.89 4.97886 0.301798 0
M  V30 37643 H 3347.05 5.47994 2.6036 0
M  V30 37644 H 3345.78 4.22618 2.43403 0
M  V30 37645 H 3344.79 5.47548 0.497119 0
M  V30 37646 H 3346.01 6.75602 0.688386 0
M  V30 37647 H 3343.96 5.94202 2.77956 0
M  V30 37648 H 3343.88 7.34949 1.77163 0
M  V30 37649 H 3345.15 7.21398 2.95305 0
M  V30 37650 N 3349.37 0.178515 1.56586 0
M  V30 37651 C 3350.28 -0.761282 2.21905 0
M  V30 37652 C 3351.3 -1.24758 1.21291 0
M  V30 37653 O 3352.48 -1.2982 1.53976 0
M  V30 37654 C 3349.54 -1.97043 2.85263 0
M  V30 37655 C 3348.6 -1.53032 4.01098 0
M  V30 37656 C 3347.84 -2.68183 4.61426 0
M  V30 37657 O 3348.06 -3.85239 4.20651 0
M  V30 37658 O 3346.99 -2.41846 5.51175 0
M  V30 37659 H 3350.82 -0.235088 3.02789 0
M  V30 37660 H 3348.4 -0.0500179 1.49316 0
M  V30 37661 H 3350.29 -2.67744 3.25409 0
M  V30 37662 H 3348.96 -2.48555 2.0737 0
M  V30 37663 H 3347.87 -0.792596 3.65607 0
M  V30 37664 H 3349.2 -1.06204 4.80605 0
M  V30 37665 N 3350.85 -1.57312 -0.0951784 0
M  V30 37666 C 3351.79 -1.97303 -1.14659 0
M  V30 37667 C 3352.76 -0.846237 -1.38844 0
M  V30 37668 O 3353.95 -1.10652 -1.52605 0
M  V30 37669 C 3351.07 -2.28973 -2.49578 0
M  V30 37670 C 3350.12 -3.5142 -2.41674 0
M  V30 37671 S 3350.95 -5.03139 -1.83335 0
M  V30 37672 C 3352.11 -5.37986 -3.19879 0
M  V30 37673 H 3352.34 -2.86175 -0.805675 0
M  V30 37674 H 3349.88 -1.51401 -0.302854 0
M  V30 37675 H 3351.83 -2.47895 -3.27198 0
M  V30 37676 H 3350.49 -1.40672 -2.80838 0
M  V30 37677 H 3349.69 -3.71021 -3.41115 0
M  V30 37678 H 3349.29 -3.32007 -1.72184 0
M  V30 37679 H 3351.58 -5.34626 -4.16151 0
M  V30 37680 H 3352.52 -6.39008 -3.05081 0
M  V30 37681 H 3352.93 -4.65446 -3.19406 0
M  V30 37682 N 3352.33 0.365999 -1.53291 0
M  V30 37683 C 3353.56 1.12931 -1.73361 0
M  V30 37684 C 3353.97 1.8305 -0.462384 0
M  V30 37685 O 3353.33 1.73544 0.56468 0
M  V30 37686 C 3353.38 2.15994 -2.89877 0
M  V30 37687 O 3353.1 1.4873 -4.12081 0
M  V30 37688 C 3354.6 3.04876 -3.21816 0
M  V30 37689 H 3351.82 0.337691 -0.579833 0
M  V30 37690 H 3354.37 0.425046 -2.00034 0
M  V30 37691 H 3352.52 2.8202 -2.656 0
M  V30 37692 H 3352.94 2.17395 -4.77325 0
M  V30 37693 H 3354.41 3.73173 -4.0675 0
M  V30 37694 H 3354.89 3.69662 -2.37163 0
M  V30 37695 H 3355.49 2.44467 -3.48017 0
M  V30 37696 N 3353.81 1.44644 0.625774 0
M  V30 37697 C 3354.74 1.47914 1.75083 0
M  V30 37698 C 3355.75 0.371908 1.58495 0
M  V30 37699 O 3356.94 0.637955 1.6671 0
M  V30 37700 C 3354.04 1.30249 3.12871 0
M  V30 37701 C 3353.22 2.54316 3.55868 0
M  V30 37702 C 3352.27 2.31472 4.72554 0
M  V30 37703 O 3351.3 3.04989 4.80594 0
M  V30 37704 N 3352.5 1.34872 5.64615 0
M  V30 37705 H 3355.27 2.44905 1.72747 0
M  V30 37706 H 3352.83 1.40151 0.810506 0
M  V30 37707 H 3354.82 1.12805 3.88661 0
M  V30 37708 H 3353.39 0.41602 3.09819 0
M  V30 37709 H 3352.61 2.86999 2.70232 0
M  V30 37710 H 3353.9 3.36824 3.81349 0
M  V30 37711 H 3353.3 0.74164 5.60817 0
M  V30 37712 H 3351.85 1.23405 6.40011 0
M  V30 37713 N 3355.29 -0.866663 1.31631 0
M  V30 37714 C 3356.53 -1.61996 1.21506 0
M  V30 37715 C 3356.86 -1.93182 -0.22601 0
M  V30 37716 O 3356.12 -1.56447 -1.17571 0
M  V30 37717 C 3356.42 -2.95672 2.0078 0
M  V30 37718 C 3356.08 -2.83964 3.5025 0
M  V30 37719 C 3354.74 -2.80479 3.91005 0
M  V30 37720 C 3357.1 -2.70761 4.45351 0
M  V30 37721 C 3354.42 -2.61652 5.25124 0
M  V30 37722 C 3356.78 -2.53471 5.79599 0
M  V30 37723 C 3355.44 -2.4837 6.19571 0
M  V30 37724 H 3354.71 -0.592784 0.444621 0
M  V30 37725 H 3357.36 -1.00626 1.62931 0
M  V30 37726 H 3355.66 -3.61095 1.52046 0
M  V30 37727 H 3357.36 -3.52956 1.90324 0
M  V30 37728 H 3353.95 -2.87496 3.17874 0
M  V30 37729 H 3358.13 -2.72507 4.14793 0
M  V30 37730 H 3353.39 -2.5613 5.55164 0
M  V30 37731 H 3357.56 -2.42232 6.52914 0
M  V30 37732 H 3355.19 -2.33541 7.23438 0
M  V30 37733 N 3356.77 -1.14645 -1.0814 0
M  V30 37734 C 3357.7 -0.858705 -2.17137 0
M  V30 37735 C 3358.68 0.187422 -1.69064 0
M  V30 37736 O 3359.86 0.0435117 -1.94151 0
M  V30 37737 C 3356.99 -0.338401 -3.45647 0
M  V30 37738 C 3355.95 -1.32029 -4.07127 0
M  V30 37739 C 3355.27 -0.659168 -5.30621 0
M  V30 37740 C 3356.57 -2.68351 -4.48091 0
M  V30 37741 H 3358.27 -1.77017 -2.41465 0
M  V30 37742 H 3355.81 -0.852543 -1.1605 0
M  V30 37743 H 3357.76 -0.124685 -4.21216 0
M  V30 37744 H 3356.49 0.608496 -3.20881 0
M  V30 37745 H 3355.15 -1.52022 -3.33594 0
M  V30 37746 H 3354.8 0.293623 -5.02142 0
M  V30 37747 H 3354.5 -1.31437 -5.72711 0
M  V30 37748 H 3356.02 -0.45504 -6.08902 0
M  V30 37749 H 3357.43 -2.52249 -5.14824 0
M  V30 37750 H 3355.83 -3.30169 -5.01107 0
M  V30 37751 H 3356.9 -3.25021 -3.59846 0
M  V30 37752 N 3358.24 1.26349 -0.942 0
M  V30 37753 C 3359.15 2.30079 -0.458371 0
M  V30 37754 C 3360.17 1.67587 0.468054 0
M  V30 37755 O 3361.35 1.98381 0.347383 0
M  V30 37756 C 3358.41 3.45663 0.267909 0
M  V30 37757 C 3357.47 4.23634 -0.695177 0
M  V30 37758 C 3356.7 5.337 -0.00346281 0
M  V30 37759 O 3356.93 5.57346 1.21332 0
M  V30 37760 O 3355.86 5.98017 -0.682581 0
M  V30 37761 H 3359.69 2.73512 -1.32003 0
M  V30 37762 H 3357.27 1.31563 -0.70792 0
M  V30 37763 H 3359.15 4.15926 0.676987 0
M  V30 37764 H 3357.83 3.04258 1.10495 0
M  V30 37765 H 3356.74 3.55849 -1.15422 0
M  V30 37766 H 3358.07 4.68791 -1.49985 0
M  V30 37767 N 3359.72 0.709115 1.40746 0
M  V30 37768 C 3360.63 0.0532617 2.3454 0
M  V30 37769 C 3361.65 -0.75103 1.56957 0
M  V30 37770 O 3362.82 -0.685476 1.89376 0
M  V30 37771 C 3359.89 -0.862098 3.35811 0
M  V30 37772 C 3358.95 -0.0484877 4.29273 0
M  V30 37773 C 3358.18 -0.920252 5.25706 0
M  V30 37774 O 3358.41 -2.1596 5.27937 0
M  V30 37775 O 3357.34 -0.362695 6.00806 0
M  V30 37776 H 3361.17 0.826749 2.9223 0
M  V30 37777 H 3358.75 0.469544 1.4183 0
M  V30 37778 H 3360.63 -1.38661 3.97934 0
M  V30 37779 H 3359.31 -1.61484 2.80543 0
M  V30 37780 H 3358.21 0.520939 3.70455 0
M  V30 37781 H 3359.55 0.665893 4.87675 0
M  V30 37782 N 3361.2 -1.50894 0.454829 0
M  V30 37783 C 3362.45 -2.03163 -0.0980791 0
M  V30 37784 C 3362.8 -1.33183 -1.38853 0
M  V30 37785 O 3362.09 -0.443439 -1.86398 0
M  V30 37786 C 3362.29 -3.55642 -0.354097 0
M  V30 37787 C 3362.12 -4.40397 0.909988 0
M  V30 37788 C 3360.89 -4.8409 1.4486 0
M  V30 37789 C 3363.08 -4.81736 1.80097 0
M  V30 37790 N 3361.07 -5.53115 2.66341 0
M  V30 37791 C 3362.44 -5.50005 2.86172 0
M  V30 37792 C 3364.49 -4.63707 1.8133 0
M  V30 37793 C 3363.2 -6.02155 3.93448 0
M  V30 37794 C 3365.22 -5.16786 2.87552 0
M  V30 37795 C 3364.58 -5.85016 3.92346 0
M  V30 37796 H 3360.68 -0.781991 0.00372347 0
M  V30 37797 H 3363.27 -1.84584 0.619409 0
M  V30 37798 H 3361.44 -3.742 -1.04062 0
M  V30 37799 H 3363.17 -3.94568 -0.899907 0
M  V30 37800 H 3359.92 -4.62921 1.00005 0
M  V30 37801 H 3360.35 -5.92244 3.27989 0
M  V30 37802 H 3364.99 -4.10403 1.01634 0
M  V30 37803 H 3362.71 -6.54505 4.73971 0
M  V30 37804 H 3366.29 -5.04677 2.89469 0
M  V30 37805 H 3365.17 -6.2535 4.73189 0
M  V30 37806 N 3362.68 -0.186817 -1.56489 0
M  V30 37807 C 3363.61 0.7327 -2.21706 0
M  V30 37808 C 3364.59 1.22753 -1.17753 0
M  V30 37809 O 3365.77 1.27787 -1.46233 0
M  V30 37810 C 3362.9 1.95579 -2.86995 0
M  V30 37811 C 3361.86 1.59621 -3.97121 0
M  V30 37812 C 3361.18 2.89523 -4.49534 0
M  V30 37813 C 3362.48 0.812427 -5.15943 0
M  V30 37814 H 3364.18 0.189042 -2.98803 0
M  V30 37815 H 3361.72 0.0894847 -1.43722 0
M  V30 37816 H 3363.68 2.60421 -3.31299 0
M  V30 37817 H 3362.4 2.52384 -2.07291 0
M  V30 37818 H 3361.06 0.971413 -3.53496 0
M  V30 37819 H 3360.71 3.44401 -3.66602 0
M  V30 37820 H 3360.41 2.66211 -5.23837 0
M  V30 37821 H 3361.93 3.55367 -4.96534 0
M  V30 37822 H 3363.35 1.36376 -5.56843 0
M  V30 37823 H 3361.74 0.677757 -5.9626 0
M  V30 37824 H 3362.81 -0.18818 -4.84535 0
M  V30 37825 N 3364.16 1.57361 0.0868344 0
M  V30 37826 C 3365.1 2.03664 1.12356 0
M  V30 37827 C 3366.1 0.939194 1.40981 0
M  V30 37828 O 3367.3 1.12435 1.40564 0
M  V30 37829 H 3363.68 0.649163 0.379594 0
M  V30 37830 H 3365.65 2.89909 0.706771 0
M  V30 37831 C 3364.4 2.48374 2.43323 0
M  V30 37832 H 3363.72 3.32404 2.22143 0
M  V30 37833 H 3365.16 2.8454 3.14346 0
M  V30 37834 C 3363.62 1.36041 3.08212 0
M  V30 37835 O 3364.15 0.694133 3.95657 0
M  V30 37836 N 3362.36 1.10932 2.68594 0
M  V30 37837 H 3361.9 1.65294 1.97575 0
M  V30 37838 H 3361.86 0.359734 3.12335 0
M  V30 37839 N 3365.63 -0.357865 1.53483 0
M  V30 37840 C 3366.86 -1.1201 1.73958 0
M  V30 37841 C 3367.28 -1.82803 0.472085 0
M  V30 37842 O 3366.63 -1.73841 -0.555469 0
M  V30 37843 C 3366.68 -2.14454 2.91019 0
M  V30 37844 O 3366.41 -1.46542 4.12864 0
M  V30 37845 C 3367.91 -3.03165 3.23429 0
M  V30 37846 H 3365.13 -0.334611 0.581615 0
M  V30 37847 H 3367.67 -0.414432 2.00257 0
M  V30 37848 H 3365.83 -2.80607 2.67092 0
M  V30 37849 H 3366.24 -2.14861 4.78472 0
M  V30 37850 H 3367.71 -3.71011 4.08724 0
M  V30 37851 H 3368.19 -3.684 2.3912 0
M  V30 37852 H 3368.8 -2.42618 3.49309 0
M  V30 37853 N 3367.11 -1.44974 -0.618094 0
M  V30 37854 C 3368.53 -1.29148 -0.937711 0
M  V30 37855 C 3368.73 -0.236785 -2.00104 0
M  V30 37856 O 3367.78 0.372879 -2.49732 0
M  V30 37857 C 3369.1 -2.66718 -1.38861 0
M  V30 37858 C 3370.64 -2.74531 -1.50338 0
M  V30 37859 C 3371.12 -4.12601 -1.98807 0
M  V30 37860 N 3372.61 -4.14843 -2.06057 0
M  V30 37861 C 3373.35 -5.18537 -2.44759 0
M  V30 37862 N 3372.84 -6.32584 -2.82505 0
M  V30 37863 N 3374.63 -5.05893 -2.45007 0
M  V30 37864 H 3366.79 -2.1223 0.0849093 0
M  V30 37865 H 3369.05 -0.947679 -0.0246577 0
M  V30 37866 H 3368.75 -3.45034 -0.681522 0
M  V30 37867 H 3368.63 -2.9448 -2.35715 0
M  V30 37868 H 3371.02 -1.96525 -2.2014 0
M  V30 37869 H 3371.1 -2.50495 -0.518253 0
M  V30 37870 H 3370.74 -4.91088 -1.29596 0
M  V30 37871 H 3370.67 -4.34022 -2.98215 0
M  V30 37872 H 3373.16 -3.32538 -1.79519 0
M  V30 37873 H 3373.47 -7.07509 -3.10887 0
M  V30 37874 H 3371.82 -6.36002 -2.80225 0
M  V30 37875 H 3375.01 -4.15846 -2.14918 0
M  V30 37876 H 3375.18 -5.86826 -2.74843 0
M  V30 37877 N 3368.59 0.85967 -1.32089 0
M  V30 37878 C 3369.84 1.61349 -1.22363 0
M  V30 37879 C 3370.16 1.933 0.215762 0
M  V30 37880 O 3369.42 1.57068 1.16739 0
M  V30 37881 C 3369.72 2.94603 -2.02345 0
M  V30 37882 C 3369.38 2.82103 -3.51751 0
M  V30 37883 C 3368.05 2.78401 -3.92487 0
M  V30 37884 C 3370.4 2.68395 -4.46781 0
M  V30 37885 C 3367.73 2.58863 -5.26504 0
M  V30 37886 C 3370.08 2.50394 -5.80935 0
M  V30 37887 C 3368.74 2.45081 -6.2088 0
M  V30 37888 H 3368.01 0.590418 -0.447758 0
M  V30 37889 H 3370.66 0.997608 -1.63463 0
M  V30 37890 H 3368.96 3.60283 -1.53959 0
M  V30 37891 H 3370.66 3.51941 -1.92193 0
M  V30 37892 H 3367.25 2.85807 -3.19394 0
M  V30 37893 H 3371.44 2.70304 -4.16233 0
M  V30 37894 H 3366.69 2.53182 -5.56515 0
M  V30 37895 H 3370.87 2.38766 -6.54189 0
M  V30 37896 H 3368.49 2.29701 -7.24666 0
M  V30 37897 N 3370.07 1.15217 1.0753 0
M  V30 37898 C 3371.34 0.836491 1.76811 0
M  V30 37899 C 3371.72 -0.668265 2.00243 0
M  V30 37900 O 3371.07 -1.61203 1.61944 0
M  V30 37901 C 3371.28 1.64524 3.07787 0
M  V30 37902 C 3372.63 1.85029 3.82164 0
M  V30 37903 O 3373.65 1.61285 3.17593 0
M  V30 37904 O 3372.51 2.24783 4.98131 0
M  V30 37905 H 3369.61 0.307439 0.767731 0
M  V30 37906 H 3372.15 1.25786 1.13912 0
M  V30 37907 H 3370.93 2.66695 2.86338 0
M  V30 37908 H 3370.55 1.22009 3.78417 0
M  V30 37909 N 3371.55 -1.25848 0.948687 0
M  V30 37910 C 3372.8 -1.92694 0.595972 0
M  V30 37911 C 3373.11 -1.75177 -0.870199 0
M  V30 37912 O 3374.31 -2.36545 -1.33262 0
M  V30 37913 C 3372.77 -3.45286 1.01517 0
M  V30 37914 C 3372.38 -3.71524 2.50348 0
M  V30 37915 C 3374.12 -4.18094 0.734708 0
M  V30 37916 C 3372.03 -5.17592 2.86099 0
M  V30 37917 H 3370.96 -0.721439 0.219183 0
M  V30 37918 H 3373.61 -1.42805 1.15234 0
M  V30 37919 H 3371.99 -3.94102 0.38727 0
M  V30 37920 H 3373.17 -3.33384 3.18106 0
M  V30 37921 H 3371.48 -3.11964 2.75803 0
M  V30 37922 H 3374.08 -5.25679 0.978054 0
M  V30 37923 H 3374.42 -4.15 -0.328734 0
M  V30 37924 H 3374.95 -3.75167 1.32268 0
M  V30 37925 H 3371.69 -5.25793 3.91436 0
M  V30 37926 H 3371.21 -5.56801 2.23008 0
M  V30 37927 H 3372.89 -5.85663 2.74969 0
M  V30 37928 N 3373.02 -0.716569 -1.40368 0
M  V30 37929 C 3373.93 -0.0656992 -2.34508 0
M  V30 37930 C 3374.95 0.742695 -1.57353 0
M  V30 37931 O 3376.13 0.675423 -1.89737 0
M  V30 37932 C 3373.19 0.844277 -3.36263 0
M  V30 37933 C 3372.25 0.0257217 -4.29292 0
M  V30 37934 C 3371.49 0.89236 -5.26187 0
M  V30 37935 O 3371.71 2.13157 -5.29075 0
M  V30 37936 O 3370.64 0.330827 -6.0099 0
M  V30 37937 H 3374.47 -0.842235 -2.91788 0
M  V30 37938 H 3372.05 -0.477059 -1.41579 0
M  V30 37939 H 3373.94 1.36548 -3.98663 0
M  V30 37940 H 3372.61 1.59994 -2.81396 0
M  V30 37941 H 3371.52 -0.540577 -3.70174 0
M  V30 37942 H 3372.85 -0.691746 -4.87315 0
M  V30 37943 N 3374.5 1.50651 -0.462825 0
M  V30 37944 C 3375.45 2.28347 0.335624 0
M  V30 37945 C 3376.42 1.33036 0.994518 0
M  V30 37946 O 3377.6 1.61966 1.00854 0
M  V30 37947 C 3374.74 3.14693 1.41642 0
M  V30 37948 C 3373.86 4.25025 0.773133 0
M  V30 37949 C 3372.99 4.98641 1.83113 0
M  V30 37950 C 3372.03 6.0086 1.16764 0
M  V30 37951 N 3371.17 6.67785 2.16811 0
M  V30 37952 H 3376.01 2.96131 -0.333254 0
M  V30 37953 H 3373.55 1.46041 -0.176191 0
M  V30 37954 H 3375.5 3.63099 2.05462 0
M  V30 37955 H 3374.13 2.48972 2.05458 0
M  V30 37956 H 3373.19 3.80393 0.0225776 0
M  V30 37957 H 3374.5 4.98178 0.248974 0
M  V30 37958 H 3373.65 5.50725 2.54533 0
M  V30 37959 H 3372.39 4.25176 2.38907 0
M  V30 37960 H 3371.4 5.48044 0.439016 0
M  V30 37961 H 3372.62 6.76294 0.616691 0
M  V30 37962 H 3370.57 5.97117 2.71639 0
M  V30 37963 H 3370.48 7.36786 1.69358 0
M  V30 37964 H 3371.75 7.2449 2.87637 0
M  V30 37965 N 3375.98 0.195113 1.56388 0
M  V30 37966 C 3376.91 -0.720932 2.22092 0
M  V30 37967 C 3377.89 -1.22126 1.18403 0
M  V30 37968 O 3379.08 -1.2701 1.46909 0
M  V30 37969 C 3376.21 -1.94054 2.88028 0
M  V30 37970 C 3375.16 -1.57513 3.97962 0
M  V30 37971 C 3374.49 -2.87135 4.51063 0
M  V30 37972 C 3375.79 -0.785054 5.16366 0
M  V30 37973 H 3377.48 -0.173193 2.98899 0
M  V30 37974 H 3375.03 -0.0818615 1.43767 0
M  V30 37975 H 3376.98 -2.5866 3.32676 0
M  V30 37976 H 3375.7 -2.51281 2.08627 0
M  V30 37977 H 3374.36 -0.952653 3.54006 0
M  V30 37978 H 3374.01 -3.42451 3.68424 0
M  V30 37979 H 3373.71 -2.6343 5.25241 0
M  V30 37980 H 3375.23 -3.52729 4.98412 0
M  V30 37981 H 3376.65 -1.33421 5.57559 0
M  V30 37982 H 3375.05 -0.646126 5.96611 0
M  V30 37983 H 3376.12 0.213874 4.84428 0
M  V30 37984 N 3377.46 -1.57404 -0.0784879 0
M  V30 37985 C 3378.41 -2.03226 -1.09398 0
M  V30 37986 C 3379.38 -0.91162 -1.38848 0
M  V30 37987 O 3380.56 -1.17881 -1.50029 0
M  V30 37988 C 3377.7 -2.47553 -2.4044 0
M  V30 37989 C 3376.81 -3.73207 -2.17578 0
M  V30 37990 C 3375.95 -4.06345 -3.42136 0
M  V30 37991 C 3374.99 -5.25059 -3.14609 0
M  V30 37992 N 3374.12 -5.53868 -4.3148 0
M  V30 37993 H 3378.96 -2.89752 -0.696256 0
M  V30 37994 H 3376.5 -1.43299 -0.332236 0
M  V30 37995 H 3378.46 -2.71303 -3.16939 0
M  V30 37996 H 3377.09 -1.64014 -2.78028 0
M  V30 37997 H 3376.14 -3.56836 -1.31803 0
M  V30 37998 H 3377.45 -4.59847 -1.93241 0
M  V30 37999 H 3376.61 -4.3096 -4.27034 0
M  V30 38000 H 3375.35 -3.18259 -3.69543 0
M  V30 38001 H 3374.35 -5.00247 -2.28107 0
M  V30 38002 H 3375.58 -6.14757 -2.88532 0
M  V30 38003 H 3373.52 -4.68742 -4.58931 0
M  V30 38004 H 3373.44 -6.34913 -4.10392 0
M  V30 38005 H 3374.71 -5.8303 -5.17394 0
M  V30 38006 N 3378.94 0.34972 -1.53671 0
M  V30 38007 C 3379.88 1.44945 -1.81917 0
M  V30 38008 C 3380.88 1.54744 -0.689246 0
M  V30 38009 O 3382.08 1.57442 -0.872476 0
M  V30 38010 H 3378.46 0.483166 -0.576242 0
M  V30 38011 H 3380.43 1.18333 -2.73934 0
M  V30 38012 C 3379.18 2.81558 -2.0401 0
M  V30 38013 H 3378.5 2.74783 -2.90404 0
M  V30 38014 H 3379.94 3.57644 -2.27743 0
M  V30 38015 C 3378.4 3.26673 -0.823806 0
M  V30 38016 O 3378.93 4.01695 -0.0202057 0
M  V30 38017 N 3377.14 2.83402 -0.642765 0
M  V30 38018 H 3376.68 2.22515 -1.29787 0
M  V30 38019 H 3376.64 3.13942 0.169599 0
M  V30 38020 N 3380.41 1.45299 0.610397 0
M  V30 38021 C 3381.66 1.48875 1.36678 0
M  V30 38022 C 3381.98 0.13072 1.94561 0
M  V30 38023 O 3381.25 -0.839576 1.76997 0
M  V30 38024 H 3379.83 0.548244 0.507383 0
M  V30 38025 H 3382.5 1.81234 0.716965 0
M  V30 38026 H 3381.59 2.22597 2.18762 0
M  V30 38027 N 3381.89 -0.852653 1.32543 0
M  V30 38028 C 3383.14 -1.60186 1.2257 0
M  V30 38029 C 3383.45 -1.94463 -0.21056 0
M  V30 38030 O 3384.66 -2.68038 -0.432166 0
M  V30 38031 C 3383.12 -2.88858 2.14683 0
M  V30 38032 C 3382.72 -2.61998 3.63402 0
M  V30 38033 C 3384.47 -3.66873 2.13552 0
M  V30 38034 C 3382.38 -3.86683 4.47471 0
M  V30 38035 H 3381.31 -0.601094 0.455195 0
M  V30 38036 H 3383.96 -0.94132 1.57516 0
M  V30 38037 H 3382.34 -3.5638 1.72654 0
M  V30 38038 H 3383.51 -2.02775 4.13786 0
M  V30 38039 H 3381.83 -1.9731 3.66685 0
M  V30 38040 H 3384.42 -4.594 2.73597 0
M  V30 38041 H 3384.77 -4.00754 1.12701 0
M  V30 38042 H 3385.3 -3.06258 2.53871 0
M  V30 38043 H 3382.04 -3.57942 5.49143 0
M  V30 38044 H 3381.56 -4.45295 4.01837 0
M  V30 38045 H 3383.24 -4.54402 4.60573 0
M  V30 38046 N 3383.37 -1.15786 -1.06918 0
M  V30 38047 C 3384.3 -0.816413 -2.14167 0
M  V30 38048 C 3385.32 0.173542 -1.61872 0
M  V30 38049 O 3386.5 -0.0503286 -1.78429 0
M  V30 38050 C 3383.6 -0.193742 -3.38346 0
M  V30 38051 C 3382.78 -1.22222 -4.19977 0
M  V30 38052 C 3381.84 -0.620516 -5.22529 0
M  V30 38053 O 3380.86 -1.28766 -5.54444 0
M  V30 38054 N 3382.06 0.595709 -5.77435 0
M  V30 38055 H 3384.83 -1.73941 -2.44059 0
M  V30 38056 H 3382.39 -1.05434 -1.22863 0
M  V30 38057 H 3384.38 0.221668 -4.04092 0
M  V30 38058 H 3382.95 0.632681 -3.06131 0
M  V30 38059 H 3382.17 -1.81403 -3.49981 0
M  V30 38060 H 3383.46 -1.9165 -4.71326 0
M  V30 38061 H 3382.86 1.15602 -5.53762 0
M  V30 38062 H 3381.42 0.953416 -6.44789 0
M  V30 38063 N 3384.85 1.25343 -0.955348 0
M  V30 38064 C 3385.8 2.25861 -0.474928 0
M  V30 38065 C 3386.77 1.59224 0.472968 0
M  V30 38066 O 3387.95 1.86853 0.386061 0
M  V30 38067 C 3385.09 3.44261 0.240494 0
M  V30 38068 C 3384.2 4.25532 -0.744724 0
M  V30 38069 C 3383.34 5.312 -0.0066685 0
M  V30 38070 C 3382.38 6.04159 -0.982772 0
M  V30 38071 N 3381.51 7.01559 -0.275541 0
M  V30 38072 H 3386.35 2.66325 -1.33698 0
M  V30 38073 H 3383.89 1.30932 -0.670462 0
M  V30 38074 H 3385.85 4.11755 0.67186 0
M  V30 38075 H 3384.48 3.0467 1.06658 0
M  V30 38076 H 3383.53 3.57694 -1.29457 0
M  V30 38077 H 3384.84 4.76039 -1.48956 0
M  V30 38078 H 3384 6.04772 0.483298 0
M  V30 38079 H 3382.74 4.81568 0.77095 0
M  V30 38080 H 3381.74 5.29401 -1.48373 0
M  V30 38081 H 3382.97 6.5588 -1.76063 0
M  V30 38082 H 3380.91 6.54217 0.483326 0
M  V30 38083 H 3380.83 7.49887 -0.959456 0
M  V30 38084 H 3382.1 7.79261 0.192865 0
M  V30 38085 N 3386.33 0.724003 1.39986 0
M  V30 38086 C 3387.24 0.0781348 2.3447 0
M  V30 38087 C 3388.25 -0.73434 1.57745 0
M  V30 38088 O 3389.43 -0.665351 1.90092 0
M  V30 38089 C 3386.49 -0.826433 3.36706 0
M  V30 38090 C 3385.56 -0.0029549 4.293 0
M  V30 38091 C 3384.79 -0.864442 5.26653 0
M  V30 38092 O 3385.01 -2.10348 5.30198 0
M  V30 38093 O 3383.95 -0.298951 6.01157 0
M  V30 38094 H 3387.77 0.857697 2.91337 0
M  V30 38095 H 3385.36 0.484561 1.41324 0
M  V30 38096 H 3387.24 -1.34432 3.99382 0
M  V30 38097 H 3385.91 -1.585 2.8224 0
M  V30 38098 H 3384.82 0.560201 3.69882 0
M  V30 38099 H 3386.15 0.71758 4.86941 0
M  V30 38100 N 3387.81 -1.50403 0.470808 0
M  V30 38101 C 3388.75 -2.30138 -0.337544 0
M  V30 38102 C 3389.75 -1.37414 -0.990649 0
M  V30 38103 O 3390.95 -1.54606 -0.921786 0
M  V30 38104 H 3387.33 -0.741079 -0.127693 0
M  V30 38105 H 3389.3 -2.96277 0.355349 0
M  V30 38106 C 3388.05 -3.17957 -1.40708 0
M  V30 38107 H 3387.37 -3.89214 -0.913914 0
M  V30 38108 H 3388.81 -3.76743 -1.94527 0
M  V30 38109 C 3387.27 -2.35533 -2.40885 0
M  V30 38110 O 3387.8 -2.03822 -3.46149 0
M  V30 38111 N 3386.01 -1.98119 -2.12596 0
M  V30 38112 H 3385.55 -2.24107 -1.27019 0
M  V30 38113 H 3385.51 -1.43274 -2.79857 0
M  V30 38114 N 3389.28 -0.203404 -1.56282 0
M  V30 38115 C 3390.56 0.481222 -1.89588 0
M  V30 38116 C 3390.94 1.79055 -1.11815 0
M  V30 38117 O 3390.29 2.27421 -0.221799 0
M  V30 38118 C 3390.5 0.691904 -3.42073 0
M  V30 38119 C 3391.85 1.00754 -4.12473 0
M  V30 38120 O 3392.87 0.779335 -3.4757 0
M  V30 38121 O 3391.73 1.43964 -5.27197 0
M  V30 38122 H 3388.82 0.251949 -0.787687 0
M  V30 38123 H 3391.37 -0.244237 -1.67933 0
M  V30 38124 H 3390.14 -0.232391 -3.90609 0
M  V30 38125 H 3389.76 1.46952 -3.69447 0
M  V30 38126 N 3390.76 1.57444 0.0701393 0
M  V30 38127 C 3392.18 1.53838 0.424964 0
M  V30 38128 C 3392.38 0.923825 1.79075 0
M  V30 38129 O 3391.43 0.527045 2.46938 0
M  V30 38130 C 3392.75 2.98483 0.36451 0
M  V30 38131 C 3394.29 3.09827 0.444577 0
M  V30 38132 C 3394.77 4.56125 0.414013 0
M  V30 38133 N 3396.26 4.60768 0.474038 0
M  V30 38134 C 3397 5.71449 0.472629 0
M  V30 38135 N 3396.49 6.91489 0.425937 0
M  V30 38136 N 3398.28 5.59696 0.51931 0
M  V30 38137 H 3390.44 1.95759 -0.824151 0
M  V30 38138 H 3392.7 0.896083 -0.309417 0
M  V30 38139 H 3392.4 3.47011 -0.572404 0
M  V30 38140 H 3392.28 3.58462 1.17408 0
M  V30 38141 H 3394.67 2.61271 1.37191 0
M  V30 38142 H 3394.75 2.52754 -0.393592 0
M  V30 38143 H 3394.39 5.05338 -0.509483 0
M  V30 38144 H 3394.32 5.11063 1.26974 0
M  V30 38145 H 3396.81 3.74384 0.514305 0
M  V30 38146 H 3397.12 7.71609 0.428833 0
M  V30 38147 H 3395.47 6.9389 0.3926 0
M  V30 38148 H 3398.66 4.64816 0.553491 0
M  V30 38149 H 3398.83 6.45952 0.514742 0
M  V30 38150 N 3392.24 -0.341566 1.53854 0
M  V30 38151 C 3393.49 -1.07902 1.70411 0
M  V30 38152 C 3393.8 -1.89743 0.475073 0
M  V30 38153 O 3395.01 -2.66442 0.521636 0
M  V30 38154 C 3393.46 -1.96771 3.01346 0
M  V30 38155 C 3393.07 -1.20127 4.31594 0
M  V30 38156 C 3394.82 -2.70362 3.27269 0
M  V30 38157 C 3392.72 -2.08038 5.53601 0
M  V30 38158 H 3391.65 -0.406542 0.635012 0
M  V30 38159 H 3394.3 -0.338377 1.80353 0
M  V30 38160 H 3392.69 -2.74662 2.85266 0
M  V30 38161 H 3393.86 -0.471324 4.58383 0
M  V30 38162 H 3392.17 -0.582967 4.12299 0
M  V30 38163 H 3394.77 -3.36408 4.15612 0
M  V30 38164 H 3395.11 -3.37035 2.44363 0
M  V30 38165 H 3395.65 -1.99542 3.44134 0
M  V30 38166 H 3392.39 -1.45903 6.39056 0
M  V30 38167 H 3391.91 -2.78816 5.31057 0
M  V30 38168 H 3393.59 -2.67044 5.89318 0
M  V30 38169 N 3393.72 -1.45621 -0.602683 0
M  V30 38170 C 3394.96 -1.51437 -1.37281 0
M  V30 38171 C 3395.32 -0.154182 -1.9138 0
M  V30 38172 O 3396.52 -0.0870482 -2.68659 0
M  V30 38173 C 3394.79 -2.56729 -2.48646 0
M  V30 38174 S 3396.35 -2.81806 -3.3635 0
M  V30 38175 H 3393.17 -0.53528 -0.46797 0
M  V30 38176 H 3395.77 -1.82732 -0.694925 0
M  V30 38177 H 3394.48 -3.54219 -2.07261 0
M  V30 38178 H 3394.01 -2.27101 -3.2123 0
M  V30 38179 H 3396.02 -2.15557 -4.46933 0
M  V30 38180 N 3395.2 0.845612 -1.32993 0
M  V30 38181 C 3396.13 1.9618 -1.18517 0
M  V30 38182 C 3397.14 1.62373 -0.117839 0
M  V30 38183 O 3398.33 1.74673 -0.367641 0
M  V30 38184 C 3395.43 3.29471 -0.79387 0
M  V30 38185 C 3394.6 3.91457 -1.95141 0
M  V30 38186 C 3393.66 5.03094 -1.54218 0
M  V30 38187 O 3392.69 5.22603 -2.25554 0
M  V30 38188 N 3393.89 5.78805 -0.443337 0
M  V30 38189 H 3396.65 2.09137 -2.14667 0
M  V30 38190 H 3394.22 1.02097 -1.25649 0
M  V30 38191 H 3396.21 4.0157 -0.502334 0
M  V30 38192 H 3394.78 3.12506 0.0767482 0
M  V30 38193 H 3394 3.12031 -2.40895 0
M  V30 38194 H 3395.29 4.29605 -2.72611 0
M  V30 38195 H 3394.68 5.65501 0.150198 0
M  V30 38196 H 3393.24 6.51457 -0.211446 0
M  V30 38197 N 3396.67 1.16351 1.06302 0
M  V30 38198 C 3397.92 0.946372 1.79365 0
M  V30 38199 C 3398.25 -0.524536 1.86982 0
M  V30 38200 O 3397.53 -1.38914 1.36136 0
M  V30 38201 C 3397.81 1.57442 3.23858 0
M  V30 38202 C 3397.66 3.11666 3.24321 0
M  V30 38203 C 3398.98 1.26902 4.21407 0
M  V30 38204 H 3396.1 0.345226 0.651144 0
M  V30 38205 H 3398.74 1.4368 1.24322 0
M  V30 38206 H 3396.89 1.15738 3.7086 0
M  V30 38207 H 3398.57 3.62351 2.85481 0
M  V30 38208 H 3396.81 3.45001 2.62977 0
M  V30 38209 H 3397.48 3.50731 4.26254 0
M  V30 38210 H 3399.96 1.62995 3.82847 0
M  V30 38211 H 3398.83 1.73448 5.20775 0
M  V30 38212 H 3399.09 0.187846 4.41701 0
M  V30 38213 N 3398.15 -1.24835 0.961982 0
M  V30 38214 C 3399.1 -2.27608 0.479322 0
M  V30 38215 C 3400.09 -1.63197 -0.454196 0
M  V30 38216 O 3401.3 -1.76947 -0.330115 0
M  V30 38217 H 3397.67 -0.739504 0.136523 0
M  V30 38218 H 3399.65 -2.65697 1.35822 0
M  V30 38219 C 3398.39 -3.47001 -0.220438 0
M  V30 38220 H 3397.72 -3.96801 0.488764 0
M  V30 38221 H 3399.16 -4.20774 -0.522063 0
M  V30 38222 C 3397.62 -3.04315 -1.44547 0
M  V30 38223 O 3398.15 -3.10972 -2.54282 0
M  V30 38224 N 3396.35 -2.59426 -1.30945 0
M  V30 38225 H 3395.9 -2.54209 -0.416611 0
M  V30 38226 H 3395.86 -2.31231 -2.13025 0
M  V30 38227 N 3399.63 -0.731417 -1.396 0
M  V30 38228 C 3400.58 -0.0781737 -2.32469 0
M  V30 38229 C 3401.57 0.729784 -1.52874 0
M  V30 38230 O 3402.78 0.631372 -1.68564 0
M  V30 38231 H 3399.15 -0.00647837 -0.751972 0
M  V30 38232 H 3401.12 -0.877883 -2.85194 0
M  V30 38233 C 3399.87 0.817658 -3.37949 0
M  V30 38234 H 3399.2 0.205347 -3.99272 0
M  V30 38235 H 3400.64 1.24241 -4.05389 0
M  V30 38236 C 3399.09 1.95033 -2.74707 0
M  V30 38237 O 3399.62 3.04264 -2.62271 0
M  V30 38238 N 3397.83 1.73868 -2.32848 0
M  V30 38239 H 3397.38 0.850278 -2.43163 0
M  V30 38240 H 3397.34 2.49829 -1.90874 0
M  V30 38241 N 3401.11 1.50152 -0.478778 0
M  V30 38242 C 3402.36 2.02366 0.0735495 0
M  V30 38243 C 3402.68 1.36021 1.39027 0
M  V30 38244 O 3401.94 0.477469 1.89786 0
M  V30 38245 C 3402.24 3.5616 0.297472 0
M  V30 38246 C 3401.9 4.41025 -0.938496 0
M  V30 38247 C 3400.57 4.63937 -1.27735 0
M  V30 38248 C 3402.92 4.90546 -1.76107 0
M  V30 38249 C 3400.25 5.33615 -2.43869 0
M  V30 38250 C 3402.6 5.61501 -2.91376 0
M  V30 38251 C 3401.26 5.82664 -3.25667 0
M  V30 38252 H 3400.53 0.740511 0.0269137 0
M  V30 38253 H 3403.18 1.80686 -0.634422 0
M  V30 38254 H 3401.48 3.76397 1.08776 0
M  V30 38255 H 3403.18 3.94133 0.738921 0
M  V30 38256 H 3399.77 4.23417 -0.664516 0
M  V30 38257 H 3403.95 4.72693 -1.51245 0
M  V30 38258 H 3399.21 5.48207 -2.70702 0
M  V30 38259 H 3403.38 5.98853 -3.55455 0
M  V30 38260 H 3401.01 6.36432 -4.15763 0
M  V30 38261 N 3402.59 0.211689 1.56172 0
M  V30 38262 C 3403.83 -0.422671 1.9804 0
M  V30 38263 C 3404.16 -1.6047 1.09907 0
M  V30 38264 O 3403.42 -1.95186 0.141805 0
M  V30 38265 C 3403.72 -0.909382 3.45637 0
M  V30 38266 C 3403.38 0.161062 4.50612 0
M  V30 38267 C 3402.04 0.455148 4.79043 0
M  V30 38268 C 3404.4 0.885516 5.13622 0
M  V30 38269 C 3401.72 1.47838 5.67768 0
M  V30 38270 C 3404.08 1.89801 6.03455 0
M  V30 38271 C 3402.74 2.19912 6.30234 0
M  V30 38272 H 3402.01 -0.154666 0.724679 0
M  V30 38273 H 3404.66 0.312139 1.88939 0
M  V30 38274 H 3402.96 -1.72277 3.51892 0
M  V30 38275 H 3404.66 -1.40989 3.75397 0
M  V30 38276 H 3401.25 -0.0783111 4.28528 0
M  V30 38277 H 3405.43 0.67155 4.91736 0
M  V30 38278 H 3400.69 1.7174 5.86784 0
M  V30 38279 H 3404.86 2.46449 6.51334 0
M  V30 38280 H 3402.49 2.99343 6.98783 0
M  V30 38281 N 3404.06 -1.57479 -0.0617887 0
M  V30 38282 C 3405.01 -2.05426 -1.09101 0
M  V30 38283 C 3406.01 -0.961504 -1.39469 0
M  V30 38284 O 3407.21 -1.14657 -1.38758 0
M  V30 38285 H 3403.59 -0.65512 -0.369218 0
M  V30 38286 H 3405.56 -2.90997 -0.660559 0
M  V30 38287 C 3404.31 -2.52213 -2.3934 0
M  V30 38288 H 3403.63 -3.35896 -2.16826 0
M  V30 38289 H 3405.07 -2.89505 -3.09779 0
M  V30 38290 C 3403.53 -1.40928 -3.06008 0
M  V30 38291 O 3404.06 -0.75699 -3.94503 0
M  V30 38292 N 3402.27 -1.15191 -2.66795 0
M  V30 38293 H 3401.81 -1.68416 -1.9492 0
M  V30 38294 H 3401.77 -0.409379 -3.11723 0
M  V30 38295 N 3405.54 0.333401 -1.54033 0
M  V30 38296 C 3406.49 1.43008 -1.83444 0
M  V30 38297 C 3407.48 1.54004 -0.70562 0
M  V30 38298 O 3408.69 1.56507 -0.889125 0
M  V30 38299 H 3405.07 0.477027 -0.581334 0
M  V30 38300 H 3407.04 1.15421 -2.75174 0
M  V30 38301 C 3405.79 2.79379 -2.06985 0
M  V30 38302 H 3405.11 2.71687 -2.93302 0
M  V30 38303 H 3406.55 3.55208 -2.31523 0
M  V30 38304 C 3405.01 3.25781 -0.858407 0
M  V30 38305 O 3405.54 4.01651 -0.0628096 0
M  V30 38306 N 3403.74 2.82705 -0.672788 0
M  V30 38307 H 3403.29 2.21126 -1.3214 0
M  V30 38308 H 3403.25 3.14104 0.136292 0
M  V30 38309 N 3407.02 1.45939 0.594952 0
M  V30 38310 C 3408.44 1.30623 0.917046 0
M  V30 38311 C 3408.64 0.268589 1.99702 0
M  V30 38312 O 3407.69 -0.333102 2.50293 0
M  V30 38313 C 3409.01 2.68893 1.346 0
M  V30 38314 C 3410.55 2.76888 1.45952 0
M  V30 38315 C 3411.03 4.15712 1.92218 0
M  V30 38316 N 3412.52 4.18069 1.99431 0
M  V30 38317 C 3413.25 5.22365 2.36479 0
M  V30 38318 N 3412.75 6.36999 2.72405 0
M  V30 38319 N 3414.54 5.09727 2.36927 0
M  V30 38320 H 3406.69 2.12068 -0.118663 0
M  V30 38321 H 3408.96 0.947952 0.00957787 0
M  V30 38322 H 3408.66 3.46074 0.626544 0
M  V30 38323 H 3408.54 2.98192 2.31 0
M  V30 38324 H 3410.92 2.00003 2.16986 0
M  V30 38325 H 3411.01 2.51288 0.478336 0
M  V30 38326 H 3410.65 4.93088 1.21767 0
M  V30 38327 H 3410.58 4.38712 2.91272 0
M  V30 38328 H 3413.07 3.35352 1.74206 0
M  V30 38329 H 3413.38 7.12365 2.99592 0
M  V30 38330 H 3411.73 6.4038 2.70072 0
M  V30 38331 H 3414.92 4.19213 2.08275 0
M  V30 38332 H 3415.09 5.91125 2.65473 0
M  V30 38333 N 3408.5 -0.838547 1.3344 0
M  V30 38334 C 3409.75 -1.58877 1.24262 0
M  V30 38335 C 3410.06 -1.94676 -0.189923 0
M  V30 38336 O 3411.27 -2.68482 -0.403713 0
M  V30 38337 C 3409.72 -2.86565 2.17735 0
M  V30 38338 C 3409.33 -2.58129 3.66161 0
M  V30 38339 C 3411.07 -3.64588 2.17431 0
M  V30 38340 C 3408.98 -3.81915 4.51547 0
M  V30 38341 H 3407.91 -0.596232 0.461545 0
M  V30 38342 H 3410.56 -0.92456 1.58506 0
M  V30 38343 H 3408.94 -3.54529 1.76424 0
M  V30 38344 H 3410.12 -1.98375 4.15914 0
M  V30 38345 H 3408.43 -1.93409 3.68757 0
M  V30 38346 H 3411.03 -4.56473 2.78454 0
M  V30 38347 H 3411.37 -3.99536 1.16946 0
M  V30 38348 H 3411.91 -3.03549 2.57105 0
M  V30 38349 H 3408.65 -3.52098 5.52908 0
M  V30 38350 H 3408.17 -4.41008 4.06537 0
M  V30 38351 H 3409.84 -4.49492 4.65367 0
M  V30 38352 N 3409.98 -1.16914 -1.05683 0
M  V30 38353 C 3411.23 -0.948906 -1.77985 0
M  V30 38354 C 3411.54 0.523978 -1.88451 0
M  V30 38355 O 3412.74 0.862276 -2.57443 0
M  V30 38356 C 3411.2 -1.64854 -3.19924 0
M  V30 38357 C 3410.81 -3.15961 -3.17604 0
M  V30 38358 C 3412.55 -1.51051 -3.96716 0
M  V30 38359 C 3410.46 -3.78636 -4.54301 0
M  V30 38360 H 3409.39 -0.351391 -0.667113 0
M  V30 38361 H 3412.04 -1.40113 -1.18493 0
M  V30 38362 H 3410.42 -1.12404 -3.79712 0
M  V30 38363 H 3411.6 -3.75305 -2.67362 0
M  V30 38364 H 3409.91 -3.2972 -2.54311 0
M  V30 38365 H 3412.51 -1.95252 -4.97776 0
M  V30 38366 H 3412.85 -0.46034 -4.13747 0
M  V30 38367 H 3413.38 -2.00691 -3.43465 0
M  V30 38368 H 3410.12 -4.83628 -4.42475 0
M  V30 38369 H 3409.64 -3.24078 -5.04711 0
M  V30 38370 H 3411.32 -3.80552 -5.23249 0
M  V30 38371 N 3411.45 1.24323 -0.968589 0
M  V30 38372 C 3412.42 2.23582 -0.504346 0
M  V30 38373 C 3413.42 1.55756 0.399598 0
M  V30 38374 O 3414.61 1.73106 0.194935 0
M  V30 38375 C 3411.74 3.39833 0.2695 0
M  V30 38376 H 3412.93 2.66167 -1.38185 0
M  V30 38377 H 3410.49 1.36951 -0.753265 0
M  V30 38378 H 3411.22 3.02688 1.16406 0
M  V30 38379 H 3411.01 3.90262 -0.379202 0
M  V30 38380 H 3412.5 4.13506 0.583303 0
M  V30 38381 N 3412.93 0.73881 1.3921 0
M  V30 38382 C 3414.18 0.285289 1.99672 0
M  V30 38383 C 3414.49 -1.13504 1.59299 0
M  V30 38384 O 3415.7 -1.68828 2.12625 0
M  V30 38385 C 3414.16 0.459123 3.56959 0
M  V30 38386 C 3413.76 1.88759 4.06293 0
M  V30 38387 C 3415.51 0.06757 4.24446 0
M  V30 38388 C 3413.42 2.01077 5.56167 0
M  V30 38389 H 3412.35 0.102914 0.746944 0
M  V30 38390 H 3415 0.913237 1.59161 0
M  V30 38391 H 3413.38 -0.237781 3.95285 0
M  V30 38392 H 3414.55 2.61675 3.79292 0
M  V30 38393 H 3412.87 2.2327 3.51482 0
M  V30 38394 H 3415.46 0.138569 5.3452 0
M  V30 38395 H 3415.81 -0.977751 4.04655 0
M  V30 38396 H 3416.34 0.715773 3.91307 0
M  V30 38397 H 3413.08 3.03811 5.80843 0
M  V30 38398 H 3412.6 1.32602 5.84959 0
M  V30 38399 H 3414.28 1.79373 6.21638 0
M  V30 38400 N 3414.41 -1.49895 0.486734 0
M  V30 38401 C 3415.34 -2.25568 -0.345587 0
M  V30 38402 C 3416.32 -1.29539 -0.982771 0
M  V30 38403 O 3417.51 -1.58797 -1.01566 0
M  V30 38404 C 3414.63 -3.04386 -1.48549 0
M  V30 38405 C 3413.68 -4.1546 -0.964123 0
M  V30 38406 S 3414.51 -5.35333 0.133725 0
M  V30 38407 C 3415.67 -6.17702 -1.00969 0
M  V30 38408 H 3415.9 -2.95815 0.296729 0
M  V30 38409 H 3413.43 -1.51988 0.271825 0
M  V30 38410 H 3415.39 -3.50384 -2.13872 0
M  V30 38411 H 3414.05 -2.33635 -2.09937 0
M  V30 38412 H 3413.25 -4.7007 -1.81796 0
M  V30 38413 H 3412.85 -3.71978 -0.388354 0
M  V30 38414 H 3415.14 -6.49784 -1.91801 0
M  V30 38415 H 3416.08 -7.06315 -0.502508 0
M  V30 38416 H 3416.49 -5.50015 -1.27058 0
M  V30 38417 N 3415.89 -0.219968 -1.56057 0
M  V30 38418 C 3416.84 0.707282 -2.21586 0
M  V30 38419 C 3417.83 1.20091 -1.19476 0
M  V30 38420 O 3419.04 1.16093 -1.37559 0
M  V30 38421 H 3415.41 0.246502 -0.710451 0
M  V30 38422 H 3417.38 0.131162 -2.98112 0
M  V30 38423 C 3416.13 1.90539 -2.90844 0
M  V30 38424 H 3415.46 1.53466 -3.69172 0
M  V30 38425 H 3416.9 2.532 -3.40096 0
M  V30 38426 C 3415.35 2.7598 -1.93227 0
M  V30 38427 O 3415.88 3.74686 -1.44822 0
M  V30 38428 N 3414.09 2.41983 -1.60912 0
M  V30 38429 H 3413.64 1.61771 -2.0047 0
M  V30 38430 H 3413.6 2.9943 -0.958587 0
M  V30 38431 N 3417.37 1.57509 0.0534363 0
M  V30 38432 C 3418.28 2.08315 1.07899 0
M  V30 38433 C 3419.29 1.01649 1.41221 0
M  V30 38434 O 3420.47 1.33236 1.5103 0
M  V30 38435 C 3417.53 2.53224 2.36809 0
M  V30 38436 C 3416.6 3.74268 2.10291 0
M  V30 38437 C 3415.83 4.17026 3.33055 0
M  V30 38438 O 3416.05 3.59498 4.42851 0
M  V30 38439 O 3414.99 5.09671 3.20186 0
M  V30 38440 H 3418.81 2.96051 0.677316 0
M  V30 38441 H 3416.4 1.46962 0.268812 0
M  V30 38442 H 3418.28 2.82549 3.1264 0
M  V30 38443 H 3416.95 1.68609 2.7632 0
M  V30 38444 H 3415.86 3.49999 1.32105 0
M  V30 38445 H 3417.19 4.59791 1.7565 0
M  V30 38446 N 3418.85 -0.325228 1.54208 0
M  V30 38447 C 3420.07 -1.08733 1.76612 0
M  V30 38448 C 3420.5 -1.80984 0.512481 0
M  V30 38449 O 3419.85 -1.73199 -0.535882 0
M  V30 38450 C 3419.9 -2.06238 2.95801 0
M  V30 38451 O 3419.01 -3.14105 2.6723 0
M  V30 38452 H 3418.35 -0.313583 0.585288 0
M  V30 38453 H 3420.88 -0.370031 2.01226 0
M  V30 38454 H 3420.89 -2.49137 3.23102 0
M  V30 38455 H 3419.56 -1.53051 3.86715 0
M  V30 38456 H 3418.14 -2.75892 2.50874 0
M  V30 38457 N 3420.32 -1.46252 -0.587204 0
M  V30 38458 C 3421.55 -1.54892 -1.37172 0
M  V30 38459 C 3421.97 -0.188478 -1.87857 0
M  V30 38460 O 3421.32 0.81348 -1.63367 0
M  V30 38461 C 3421.37 -2.55004 -2.56232 0
M  V30 38462 O 3421.1 -3.85764 -2.07649 0
M  V30 38463 C 3422.6 -2.73541 -3.48841 0
M  V30 38464 H 3419.82 -0.523938 -0.419201 0
M  V30 38465 H 3422.36 -1.9162 -0.714273 0
M  V30 38466 H 3420.52 -2.21292 -3.17976 0
M  V30 38467 H 3420.93 -4.40213 -2.85153 0
M  V30 38468 H 3422.4 -3.47521 -4.28874 0
M  V30 38469 H 3422.88 -1.80289 -4.0049 0
M  V30 38470 H 3423.49 -3.08331 -2.92937 0
M  V30 38471 N 3421.8 0.831459 -1.33883 0
M  V30 38472 C 3422.71 1.97377 -1.26805 0
M  V30 38473 C 3423.73 1.73095 -0.177263 0
M  V30 38474 O 3424.9 1.97343 -0.402197 0
M  V30 38475 C 3421.97 3.31516 -1.0148 0
M  V30 38476 C 3421.03 3.68863 -2.19632 0
M  V30 38477 C 3420.26 4.96602 -1.95506 0
M  V30 38478 O 3420.49 5.6311 -0.909047 0
M  V30 38479 O 3419.42 5.31627 -2.82235 0
M  V30 38480 H 3423.25 2.06289 -2.22887 0
M  V30 38481 H 3420.83 0.965593 -1.14003 0
M  V30 38482 H 3422.71 4.11872 -0.891027 0
M  V30 38483 H 3421.39 3.2359 -0.0843225 0
M  V30 38484 H 3420.29 2.88986 -2.37566 0
M  V30 38485 H 3421.63 3.81464 -3.1104 0
M  V30 38486 N 3423.28 1.17472 1.05062 0
M  V30 38487 C 3424.53 0.963914 1.78087 0
M  V30 38488 C 3424.85 -0.507332 1.87767 0
M  V30 38489 O 3424.11 -1.39276 1.37479 0
M  V30 38490 C 3424.41 1.5517 3.21958 0
M  V30 38491 C 3424.07 3.04738 3.32334 0
M  V30 38492 C 3422.74 3.45563 3.34872 0
M  V30 38493 C 3425.09 4.00747 3.33243 0
M  V30 38494 C 3422.42 4.80993 3.35951 0
M  V30 38495 C 3424.77 5.36079 3.35861 0
M  V30 38496 C 3423.43 5.76366 3.36687 0
M  V30 38497 H 3422.7 0.352721 0.651666 0
M  V30 38498 H 3425.35 1.46382 1.23468 0
M  V30 38499 H 3423.65 0.973538 3.79512 0
M  V30 38500 H 3425.35 1.36412 3.77084 0
M  V30 38501 H 3421.94 2.72194 3.31071 0
M  V30 38502 H 3426.13 3.70264 3.30482 0
M  V30 38503 H 3421.38 5.11518 3.34902 0
M  V30 38504 H 3425.56 6.10249 3.35513 0
M  V30 38505 H 3423.18 6.81285 3.37276 0
M  V30 38506 N 3424.76 -1.23807 0.975168 0
M  V30 38507 C 3425.67 -2.28782 0.519211 0
M  V30 38508 C 3426.68 -1.68769 -0.423457 0
M  V30 38509 O 3427.86 -1.99233 -0.294664 0
M  V30 38510 C 3424.92 -3.46252 -0.176168 0
M  V30 38511 C 3423.99 -4.21642 0.807252 0
M  V30 38512 C 3423.22 -5.33503 0.144963 0
M  V30 38513 O 3423.44 -5.60367 -1.06512 0
M  V30 38514 O 3422.38 -5.95997 0.840894 0
M  V30 38515 H 3426.2 -2.69916 1.39208 0
M  V30 38516 H 3423.79 -1.2964 0.742553 0
M  V30 38517 H 3425.67 -4.17575 -0.566474 0
M  V30 38518 H 3424.34 -3.0708 -1.02389 0
M  V30 38519 H 3423.25 -3.52664 1.24816 0
M  V30 38520 H 3424.58 -4.6465 1.62362 0
M  V30 38521 N 3426.24 -0.746182 -1.38816 0
M  V30 38522 C 3427.15 -0.115427 -2.34316 0
M  V30 38523 C 3428.16 0.709151 -1.58893 0
M  V30 38524 O 3429.34 0.635025 -1.91127 0
M  V30 38525 C 3426.4 0.772761 -3.37978 0
M  V30 38526 C 3425.46 -0.0653434 -4.2925 0
M  V30 38527 C 3424.7 0.780547 -5.27961 0
M  V30 38528 O 3424.92 2.01886 -5.33477 0
M  V30 38529 O 3423.85 0.203274 -6.01557 0
M  V30 38530 H 3427.68 -0.903938 -2.89936 0
M  V30 38531 H 3425.26 -0.506983 -1.40535 0
M  V30 38532 H 3427.15 1.28061 -4.0147 0
M  V30 38533 H 3425.82 1.53989 -2.84726 0
M  V30 38534 H 3424.73 -0.618975 -3.68944 0
M  V30 38535 H 3426.06 -0.794957 -4.85738 0
M  V30 38536 N 3427.71 1.49635 -0.494676 0
M  V30 38537 C 3429.13 1.58891 -0.150245 0
M  V30 38538 C 3429.33 1.50056 1.34483 0
M  V30 38539 O 3428.39 1.37122 2.12023 0
M  V30 38540 C 3429.7 2.91918 -0.721423 0
M  V30 38541 C 3431.25 3.05368 -0.686961 0
M  V30 38542 C 3431.72 4.41004 -1.23609 0
M  V30 38543 N 3433.21 4.47479 -1.19652 0
M  V30 38544 C 3433.95 5.50866 -1.59166 0
M  V30 38545 N 3433.44 6.61389 -2.06243 0
M  V30 38546 N 3435.24 5.41544 -1.50622 0
M  V30 38547 H 3427.39 1.53621 -1.46677 0
M  V30 38548 H 3429.65 0.727339 -0.608015 0
M  V30 38549 H 3429.36 3.03932 -1.76969 0
M  V30 38550 H 3429.23 3.76779 -0.178266 0
M  V30 38551 H 3431.62 2.92988 0.352457 0
M  V30 38552 H 3431.7 2.22207 -1.26719 0
M  V30 38553 H 3431.34 4.54136 -2.27426 0
M  V30 38554 H 3431.27 5.22795 -0.631857 0
M  V30 38555 H 3433.76 3.68182 -0.851508 0
M  V30 38556 H 3434.08 7.36368 -2.34482 0
M  V30 38557 H 3432.42 6.62447 -2.10213 0
M  V30 38558 H 3435.61 4.5409 -1.13667 0
M  V30 38559 H 3435.79 6.21992 -1.81741 0
M  V30 38560 N 3429.19 0.228241 1.55939 0
M  V30 38561 C 3430.42 -0.409328 2.03321 0
M  V30 38562 C 3430.84 -1.52086 1.10686 0
M  V30 38563 O 3430.2 -1.81044 0.0962802 0
M  V30 38564 C 3430.25 -0.91192 3.48879 0
M  V30 38565 O 3429.35 -2.02283 3.59382 0
M  V30 38566 H 3428.69 -0.0917793 0.657626 0
M  V30 38567 H 3431.22 0.348837 2.01604 0
M  V30 38568 H 3431.23 -1.22 3.89333 0
M  V30 38569 H 3429.91 -0.0984171 4.15784 0
M  V30 38570 H 3428.48 -1.72087 3.30818 0
M  V30 38571 N 3430.67 -1.57536 -0.0450825 0
M  V30 38572 C 3431.63 -2.04492 -1.03517 0
M  V30 38573 C 3432.63 -0.946288 -1.30008 0
M  V30 38574 O 3433.82 -1.2104 -1.2528 0
M  V30 38575 C 3430.96 -2.44828 -2.37217 0
M  V30 38576 H 3432.15 -2.9321 -0.629891 0
M  V30 38577 H 3429.7 -1.53557 -0.291517 0
M  V30 38578 H 3430.44 -1.59217 -2.82525 0
M  V30 38579 H 3430.22 -3.25022 -2.19324 0
M  V30 38580 H 3431.71 -2.8164 -3.08332 0
M  V30 38581 N 3432.15 0.317045 -1.54378 0
M  V30 38582 C 3433.38 1.07359 -1.76866 0
M  V30 38583 C 3433.79 1.81487 -0.520386 0
M  V30 38584 O 3433.15 1.75253 0.509182 0
M  V30 38585 C 3433.2 2.06663 -2.96602 0
M  V30 38586 O 3432.92 1.35544 -4.16604 0
M  V30 38587 C 3434.42 2.94483 -3.31353 0
M  V30 38588 H 3431.64 0.319073 -0.590283 0
M  V30 38589 H 3434.19 0.361192 -2.01285 0
M  V30 38590 H 3432.34 2.73427 -2.74438 0
M  V30 38591 H 3432.75 2.021 -4.84 0
M  V30 38592 H 3434.23 3.60044 -4.18417 0
M  V30 38593 H 3434.71 3.6193 -2.48803 0
M  V30 38594 H 3435.31 2.33271 -3.55619 0
M  V30 38595 N 3433.63 1.46561 0.57944 0
M  V30 38596 C 3434.88 1.51307 1.33376 0
M  V30 38597 C 3435.19 0.170541 1.94855 0
M  V30 38598 O 3436.39 0.0958181 2.71331 0
M  V30 38599 C 3434.85 2.66623 2.41744 0
M  V30 38600 C 3434.46 4.07311 1.86553 0
M  V30 38601 C 3436.2 2.80642 3.18497 0
M  V30 38602 C 3434.11 5.13962 2.92569 0
M  V30 38603 H 3433.04 0.563118 0.501412 0
M  V30 38604 H 3435.69 1.7278 0.617994 0
M  V30 38605 H 3434.07 2.38486 3.16134 0
M  V30 38606 H 3435.25 4.45254 1.18684 0
M  V30 38607 H 3433.56 3.97987 1.22457 0
M  V30 38608 H 3436.16 3.5749 3.97624 0
M  V30 38609 H 3436.5 1.88277 3.71292 0
M  V30 38610 H 3437.03 3.08442 2.51214 0
M  V30 38611 H 3433.77 6.08131 2.44658 0
M  V30 38612 H 3433.29 4.8056 3.58918 0
M  V30 38613 H 3434.97 5.39948 3.56462 0
M  V30 38614 N 3435.1 -0.824347 1.34322 0
M  V30 38615 C 3436.33 -1.61743 1.29823 0
M  V30 38616 C 3436.75 -1.87682 -0.125265 0
M  V30 38617 O 3436.11 -1.45133 -1.08656 0
M  V30 38618 C 3436.16 -2.93619 2.09332 0
M  V30 38619 O 3435.26 -3.85621 1.46187 0
M  V30 38620 H 3434.61 -0.491971 0.445937 0
M  V30 38621 H 3437.14 -1.02449 1.77103 0
M  V30 38622 H 3437.15 -3.43197 2.20635 0
M  V30 38623 H 3435.82 -2.74063 3.12829 0
M  V30 38624 H 3434.4 -3.44134 1.43617 0
M  V30 38625 N 3436.58 -1.18028 -1.04437 0
M  V30 38626 C 3437.53 -0.903903 -2.12363 0
M  V30 38627 C 3438.5 0.155223 -1.65373 0
M  V30 38628 O 3439.68 0.0163855 -1.90793 0
M  V30 38629 C 3436.82 -0.431664 -3.4239 0
M  V30 38630 C 3435.94 -1.55578 -4.03013 0
M  V30 38631 C 3435.07 -1.03665 -5.20987 0
M  V30 38632 C 3434.11 -2.1357 -5.73632 0
M  V30 38633 N 3433.25 -1.63078 -6.82898 0
M  V30 38634 H 3438.09 -1.82806 -2.35342 0
M  V30 38635 H 3435.63 -0.911638 -1.15445 0
M  V30 38636 H 3437.58 -0.139369 -4.16967 0
M  V30 38637 H 3436.21 0.45552 -3.1957 0
M  V30 38638 H 3435.27 -1.96364 -3.258 0
M  V30 38639 H 3436.58 -2.38442 -4.38117 0
M  V30 38640 H 3435.73 -0.698652 -6.02664 0
M  V30 38641 H 3434.47 -0.177543 -4.87377 0
M  V30 38642 H 3433.48 -2.48218 -4.90579 0
M  V30 38643 H 3434.7 -2.99909 -6.09287 0
M  V30 38644 H 3432.65 -0.794508 -6.51171 0
M  V30 38645 H 3432.56 -2.39543 -7.17046 0
M  V30 38646 H 3433.83 -1.32194 -7.68209 0
M  V30 38647 N 3438.06 1.23288 -0.98172 0
M  V30 38648 C 3438.97 2.28504 -0.531336 0
M  V30 38649 C 3439.99 1.68991 0.414501 0
M  V30 38650 O 3441.16 1.99386 0.284094 0
M  V30 38651 C 3438.23 3.46341 0.157803 0
M  V30 38652 C 3437.29 4.21208 -0.829601 0
M  V30 38653 C 3436.52 5.33419 -0.173254 0
M  V30 38654 O 3436.74 5.60924 1.03539 0
M  V30 38655 O 3435.68 5.95543 -0.87249 0
M  V30 38656 H 3439.5 2.69174 -1.40638 0
M  V30 38657 H 3437.09 1.29244 -0.749418 0
M  V30 38658 H 3438.97 4.1787 0.544321 0
M  V30 38659 H 3437.65 3.07619 1.00759 0
M  V30 38660 H 3436.55 3.51997 -1.26684 0
M  V30 38661 H 3437.89 4.63782 -1.64824 0
M  V30 38662 N 3439.54 0.753533 1.38418 0
M  V30 38663 C 3440.78 0.319082 2.00882 0
M  V30 38664 C 3441.14 -1.08713 1.58743 0
M  V30 38665 O 3440.43 -1.73406 0.814923 0
M  V30 38666 C 3440.63 0.38 3.55374 0
M  V30 38667 C 3440.46 1.79059 4.12514 0
M  V30 38668 C 3439.23 2.40711 4.44282 0
M  V30 38669 C 3441.42 2.74723 4.34778 0
M  V30 38670 N 3439.41 3.73731 4.8703 0
M  V30 38671 C 3440.78 3.92509 4.79934 0
M  V30 38672 C 3442.83 2.72246 4.16877 0
M  V30 38673 C 3441.53 5.08177 5.09066 0
M  V30 38674 C 3443.56 3.87073 4.47134 0
M  V30 38675 C 3442.92 5.03597 4.92513 0
M  V30 38676 H 3439.02 0.163417 0.764735 0
M  V30 38677 H 3441.61 0.983475 1.68035 0
M  V30 38678 H 3439.78 -0.254124 3.87568 0
M  V30 38679 H 3441.51 -0.074765 4.04631 0
M  V30 38680 H 3438.26 1.92477 4.32723 0
M  V30 38681 H 3438.69 4.42074 5.12738 0
M  V30 38682 H 3443.33 1.83342 3.8098 0
M  V30 38683 H 3441.05 5.97697 5.4386 0
M  V30 38684 H 3444.63 3.86476 4.34888 0
M  V30 38685 H 3443.51 5.90975 5.15479 0
M  V30 38686 N 3441.02 -1.49371 0.502605 0
M  V30 38687 C 3441.93 -2.32929 -0.279491 0
M  V30 38688 C 3442.94 -1.44737 -0.965781 0
M  V30 38689 O 3444.12 -1.77757 -0.946808 0
M  V30 38690 C 3441.18 -3.20213 -1.32907 0
M  V30 38691 C 3440.24 -4.24258 -0.656047 0
M  V30 38692 C 3439.48 -5.07371 -1.65562 0
M  V30 38693 O 3439.7 -4.92024 -2.88562 0
M  V30 38694 O 3438.63 -5.89611 -1.21006 0
M  V30 38695 H 3442.46 -3.00994 0.40448 0
M  V30 38696 H 3440.05 -1.47051 0.263914 0
M  V30 38697 H 3441.93 -3.74281 -1.93628 0
M  V30 38698 H 3440.6 -2.54841 -1.99594 0
M  V30 38699 H 3439.51 -3.74099 -0.00904913 0
M  V30 38700 H 3440.84 -4.9219 -0.0315937 0
M  V30 38701 N 3442.49 -0.236508 -1.55815 0
M  V30 38702 C 3443.43 0.699986 -2.18249 0
M  V30 38703 C 3444.44 1.14651 -1.15581 0
M  V30 38704 O 3445.63 1.07508 -1.42493 0
M  V30 38705 C 3442.73 1.96185 -2.76342 0
M  V30 38706 C 3441.9 1.66845 -4.04328 0
M  V30 38707 C 3440.96 2.77887 -4.46839 0
M  V30 38708 O 3439.99 2.45716 -5.13432 0
M  V30 38709 N 3441.19 4.07164 -4.13761 0
M  V30 38710 H 3443.95 0.165837 -2.99241 0
M  V30 38711 H 3441.51 -0.0560668 -1.61803 0
M  V30 38712 H 3443.51 2.6969 -3.01744 0
M  V30 38713 H 3442.08 2.40607 -1.99568 0
M  V30 38714 H 3441.3 0.769096 -3.86625 0
M  V30 38715 H 3442.58 1.44694 -4.87792 0
M  V30 38716 H 3441.98 4.36138 -3.60278 0
M  V30 38717 H 3440.54 4.77166 -4.44022 0
M  V30 38718 N 3443.97 1.57557 0.0367273 0
M  V30 38719 C 3445.25 1.8006 0.764055 0
M  V30 38720 C 3445.63 0.832724 1.93982 0
M  V30 38721 O 3444.98 -0.126775 2.28148 0
M  V30 38722 C 3445.19 3.27564 1.20427 0
M  V30 38723 C 3446.54 3.92343 1.62333 0
M  V30 38724 O 3447.56 3.31667 1.29905 0
M  V30 38725 O 3446.42 4.99158 2.22495 0
M  V30 38726 H 3443.51 0.740187 0.368853 0
M  V30 38727 H 3446.06 1.69694 0.0140956 0
M  V30 38728 H 3444.83 3.89598 0.364578 0
M  V30 38729 H 3444.45 3.42789 2.01448 0
M  V30 38730 N 3445.45 -0.308854 1.54544 0
M  V30 38731 C 3446.38 -1.38554 1.8795 0
M  V30 38732 C 3447.36 -1.53273 0.737649 0
M  V30 38733 O 3448.55 -1.66911 0.992694 0
M  V30 38734 C 3445.68 -2.75098 2.11987 0
M  V30 38735 C 3444.63 -2.75152 3.27834 0
M  V30 38736 C 3443.96 -4.14911 3.37273 0
M  V30 38737 C 3445.26 -2.3759 4.65133 0
M  V30 38738 H 3446.95 -1.10845 2.78125 0
M  V30 38739 H 3444.5 -0.531784 1.33821 0
M  V30 38740 H 3446.45 -3.50499 2.33941 0
M  V30 38741 H 3445.17 -3.04315 1.18574 0
M  V30 38742 H 3443.83 -2.02207 3.05791 0
M  V30 38743 H 3443.48 -4.41292 2.41392 0
M  V30 38744 H 3443.18 -4.1585 4.15142 0
M  V30 38745 H 3444.71 -4.92103 3.61479 0
M  V30 38746 H 3446.12 -3.02705 4.8687 0
M  V30 38747 H 3444.52 -2.49755 5.45658 0
M  V30 38748 H 3445.59 -1.32723 4.66383 0
M  V30 38749 N 3446.93 -1.46867 -0.571659 0
M  V30 38750 C 3447.88 -1.58266 -1.6799 0
M  V30 38751 C 3448.85 -0.426373 -1.60534 0
M  V30 38752 O 3450.03 -0.644566 -1.79583 0
M  V30 38753 C 3447.17 -1.58932 -3.06324 0
M  V30 38754 C 3446.28 -2.85374 -3.24323 0
M  V30 38755 C 3445.42 -2.77472 -4.52971 0
M  V30 38756 C 3444.46 -3.98803 -4.64352 0
M  V30 38757 N 3443.6 -3.89221 -5.84338 0
M  V30 38758 H 3448.44 -2.52925 -1.57584 0
M  V30 38759 H 3445.97 -1.25468 -0.767861 0
M  V30 38760 H 3447.93 -1.57303 -3.86409 0
M  V30 38761 H 3446.56 -0.677968 -3.156 0
M  V30 38762 H 3445.61 -2.96935 -2.37768 0
M  V30 38763 H 3446.92 -3.75266 -3.28599 0
M  V30 38764 H 3446.08 -2.7401 -5.41298 0
M  V30 38765 H 3444.82 -1.85239 -4.51152 0
M  V30 38766 H 3443.82 -4.02585 -3.7444 0
M  V30 38767 H 3445.05 -4.92146 -4.67942 0
M  V30 38768 H 3442.99 -2.99782 -5.83495 0
M  V30 38769 H 3442.91 -4.72778 -5.8993 0
M  V30 38770 H 3444.18 -3.89753 -6.75065 0
M  V30 38771 N 3448.41 0.817212 -1.34757 0
M  V30 38772 C 3449.63 1.61052 -1.30679 0
M  V30 38773 C 3450.06 1.87746 0.11531 0
M  V30 38774 O 3449.42 1.45707 1.07884 0
M  V30 38775 C 3449.46 2.92505 -2.10886 0
M  V30 38776 O 3448.57 3.8484 -1.4823 0
M  V30 38777 H 3447.91 0.4896 -0.44854 0
M  V30 38778 H 3450.44 1.01508 -1.77643 0
M  V30 38779 H 3450.45 3.42022 -2.22452 0
M  V30 38780 H 3449.12 2.724 -3.14278 0
M  V30 38781 H 3447.7 3.43368 -1.4544 0
M  V30 38782 N 3449.89 1.1858 1.0381 0
M  V30 38783 C 3450.82 0.938703 2.138 0
M  V30 38784 C 3451.8 -0.124546 1.69643 0
M  V30 38785 O 3452.98 0.0285762 1.94179 0
M  V30 38786 C 3450.11 0.466453 3.44153 0
M  V30 38787 C 3449.07 1.47048 4.01946 0
M  V30 38788 C 3448.39 0.855651 5.27809 0
M  V30 38789 C 3449.69 2.84796 4.37822 0
M  V30 38790 H 3451.39 1.85856 2.34729 0
M  V30 38791 H 3448.93 0.895027 1.12806 0
M  V30 38792 H 3450.88 0.28093 4.20463 0
M  V30 38793 H 3449.61 -0.488984 3.22919 0
M  V30 38794 H 3448.27 1.64299 3.27722 0
M  V30 38795 H 3447.92 -0.107054 5.02886 0
M  V30 38796 H 3447.62 1.52602 5.67438 0
M  V30 38797 H 3449.14 0.680716 6.06794 0
M  V30 38798 H 3450.55 2.71182 5.05107 0
M  V30 38799 H 3448.95 3.4854 4.88508 0
M  V30 38800 H 3450.02 3.38153 3.47535 0
M  V30 38801 N 3451.36 -1.22766 0.988245 0
M  V30 38802 C 3452.31 -2.24522 0.534644 0
M  V30 38803 C 3453.28 -1.60422 -0.430587 0
M  V30 38804 O 3454.47 -1.87811 -0.336384 0
M  V30 38805 C 3451.61 -3.44778 -0.149134 0
M  V30 38806 C 3450.72 -4.23408 0.857285 0
M  V30 38807 C 3449.85 -5.30995 0.147504 0
M  V30 38808 C 3448.89 -6.01341 1.14261 0
M  V30 38809 N 3448.03 -7.00582 0.46145 0
M  V30 38810 H 3452.87 -2.62686 1.40712 0
M  V30 38811 H 3450.41 -1.29108 0.70494 0
M  V30 38812 H 3452.36 -4.13391 -0.562455 0
M  V30 38813 H 3450.99 -3.07391 -0.985431 0
M  V30 38814 H 3450.05 -3.54136 1.38895 0
M  V30 38815 H 3451.36 -4.71923 1.61525 0
M  V30 38816 H 3450.51 -6.05841 -0.322784 0
M  V30 38817 H 3449.25 -4.83443 -0.643 0
M  V30 38818 H 3448.26 -5.25281 1.62357 0
M  V30 38819 H 3449.48 -6.50981 1.93391 0
M  V30 38820 H 3447.43 -6.55269 -0.309702 0
M  V30 38821 H 3447.34 -7.4708 1.15794 0
M  V30 38822 H 3448.61 -7.79499 0.0138104 0
M  V30 38823 N 3452.84 -0.760864 -1.38017 0
M  V30 38824 C 3453.75 -0.140273 -2.3418 0
M  V30 38825 C 3454.77 0.692259 -1.59636 0
M  V30 38826 O 3455.94 0.614718 -1.91789 0
M  V30 38827 C 3453.01 0.736871 -3.38779 0
M  V30 38828 C 3452.07 -0.110867 -4.29157 0
M  V30 38829 C 3451.3 0.724506 -5.28759 0
M  V30 38830 O 3451.53 1.96217 -5.35589 0
M  V30 38831 O 3450.46 0.13946 -6.01738 0
M  V30 38832 H 3454.29 -0.934639 -2.88961 0
M  V30 38833 H 3451.87 -0.52186 -1.39989 0
M  V30 38834 H 3453.75 1.23796 -4.02806 0
M  V30 38835 H 3452.43 1.50961 -2.86343 0
M  V30 38836 H 3451.33 -0.658072 -3.68267 0
M  V30 38837 H 3452.67 -0.846431 -4.84867 0
M  V30 38838 N 3454.32 1.49102 -0.510519 0
M  V30 38839 C 3455.27 2.29299 0.262808 0
M  V30 38840 C 3456.24 1.36133 0.95169 0
M  V30 38841 O 3457.42 1.65093 0.956505 0
M  V30 38842 C 3454.56 3.1904 1.31559 0
M  V30 38843 C 3453.67 4.2727 0.637523 0
M  V30 38844 C 3452.81 5.04215 1.67156 0
M  V30 38845 C 3451.85 6.04271 0.975886 0
M  V30 38846 N 3450.99 6.74345 1.95456 0
M  V30 38847 H 3455.83 2.94921 -0.427297 0
M  V30 38848 H 3453.36 1.45407 -0.222564 0
M  V30 38849 H 3455.32 3.69452 1.93806 0
M  V30 38850 H 3453.95 2.55382 1.97433 0
M  V30 38851 H 3453 3.80273 -0.0984531 0
M  V30 38852 H 3454.31 4.98718 0.0903559 0
M  V30 38853 H 3453.47 5.58544 2.36883 0
M  V30 38854 H 3452.21 4.32561 2.2526 0
M  V30 38855 H 3451.21 5.49164 0.264438 0
M  V30 38856 H 3452.44 6.77914 0.401221 0
M  V30 38857 H 3450.38 6.05457 2.52504 0
M  V30 38858 H 3450.3 7.41801 1.45832 0
M  V30 38859 H 3451.57 7.33274 2.64443 0
M  V30 38860 N 3455.8 0.244768 1.55688 0
M  V30 38861 C 3456.75 -0.671941 2.22683 0
M  V30 38862 C 3457.74 -1.18176 1.21371 0
M  V30 38863 O 3458.95 -1.13889 1.39389 0
M  V30 38864 H 3455.32 -0.235168 0.714283 0
M  V30 38865 H 3457.29 -0.083718 2.98283 0
M  V30 38866 C 3456.04 -1.85888 2.93838 0
M  V30 38867 H 3455.36 -1.47573 3.71567 0
M  V30 38868 H 3456.8 -2.47758 3.44082 0
M  V30 38869 C 3455.26 -2.72871 1.97594 0
M  V30 38870 O 3455.79 -3.72335 1.50764 0
M  V30 38871 N 3454 -2.39393 1.64741 0
M  V30 38872 H 3453.55 -1.58561 2.03018 0
M  V30 38873 H 3453.5 -2.97867 1.0061 0
M  V30 38874 N 3457.28 -1.57574 -0.0283712 0
M  V30 38875 C 3458.19 -2.10005 -1.04571 0
M  V30 38876 C 3459.2 -1.03883 -1.39586 0
M  V30 38877 O 3460.38 -1.35622 -1.48891 0
M  V30 38878 C 3457.44 -2.56959 -2.3275 0
M  V30 38879 C 3456.5 -3.77566 -2.0431 0
M  V30 38880 C 3455.74 -4.22271 -3.26378 0
M  V30 38881 O 3455.96 -3.66498 -4.37076 0
M  V30 38882 O 3454.89 -5.147 -3.12037 0
M  V30 38883 H 3458.72 -2.97091 -0.630131 0
M  V30 38884 H 3456.3 -1.47371 -0.245397 0
M  V30 38885 H 3458.19 -2.87487 -3.08106 0
M  V30 38886 H 3456.86 -1.72984 -2.73602 0
M  V30 38887 H 3455.77 -3.52056 -1.2652 0
M  V30 38888 H 3457.1 -4.62527 -1.68313 0
M  V30 38889 N 3458.75 0.300654 -1.54706 0
M  V30 38890 C 3459.7 1.37081 -1.85681 0
M  V30 38891 C 3460.67 1.50361 -0.705756 0
M  V30 38892 O 3461.86 1.65214 -0.954415 0
M  V30 38893 C 3459 2.73081 -2.11 0
M  V30 38894 C 3458.11 2.68248 -3.38625 0
M  V30 38895 C 3457.24 3.96244 -3.53786 0
M  V30 38896 C 3456.28 3.8581 -4.75202 0
M  V30 38897 N 3455.42 5.05582 -4.87166 0
M  V30 38898 H 3460.26 1.09966 -2.76968 0
M  V30 38899 H 3457.8 0.531863 -1.37148 0
M  V30 38900 H 3459.75 3.52172 -2.23675 0
M  V30 38901 H 3458.38 2.98456 -1.22978 0
M  V30 38902 H 3457.44 1.81019 -3.34569 0
M  V30 38903 H 3458.75 2.56428 -4.27839 0
M  V30 38904 H 3457.9 4.83772 -3.66127 0
M  V30 38905 H 3456.64 4.10898 -2.62706 0
M  V30 38906 H 3455.65 2.96665 -4.62893 0
M  V30 38907 H 3456.87 3.72701 -5.67689 0
M  V30 38908 H 3454.82 5.20699 -3.9901 0
M  V30 38909 H 3454.73 4.96187 -5.70381 0
M  V30 38910 H 3456 5.94761 -5.03865 0
M  V30 38911 N 3460.23 1.47168 0.563863 0
M  V30 38912 C 3461.16 1.62028 1.68134 0
M  V30 38913 C 3462.14 0.469927 1.6348 0
M  V30 38914 O 3463.33 0.698464 1.81205 0
M  V30 38915 C 3460.46 1.62806 3.06776 0
M  V30 38916 C 3459.41 2.77002 3.26273 0
M  V30 38917 C 3458.74 2.62849 4.65633 0
M  V30 38918 C 3460.04 4.18657 3.12288 0
M  V30 38919 H 3461.73 2.55575 1.55954 0
M  V30 38920 H 3459.28 1.22997 0.748848 0
M  V30 38921 H 3461.23 1.71794 3.84792 0
M  V30 38922 H 3459.96 0.658153 3.199 0
M  V30 38923 H 3458.61 2.67514 2.50663 0
M  V30 38924 H 3458.26 1.639 4.75548 0
M  V30 38925 H 3457.96 3.39456 4.79629 0
M  V30 38926 H 3459.49 2.73756 5.45793 0
M  V30 38927 H 3460.9 4.29156 3.80128 0
M  V30 38928 H 3459.3 4.95998 3.37796 0
M  V30 38929 H 3460.37 4.3749 2.09119 0
M  V30 38930 N 3461.71 -0.810054 1.35188 0
M  V30 38931 C 3462.96 -1.56696 1.28267 0
M  V30 38932 C 3463.29 -1.93967 -0.143872 0
M  V30 38933 O 3462.54 -1.61293 -1.10829 0
M  V30 38934 C 3462.84 -2.8689 2.1314 0
M  V30 38935 C 3462.51 -2.68854 3.61979 0
M  V30 38936 C 3461.17 -2.63642 4.0255 0
M  V30 38937 C 3463.52 -2.51628 4.56435 0
M  V30 38938 C 3460.85 -2.39144 5.35749 0
M  V30 38939 C 3463.2 -2.2866 5.89828 0
M  V30 38940 C 3461.86 -2.21869 6.29548 0
M  V30 38941 H 3461.13 -0.573393 0.469363 0
M  V30 38942 H 3463.78 -0.936253 1.67053 0
M  V30 38943 H 3462.09 -3.54321 1.67224 0
M  V30 38944 H 3463.78 -3.44566 2.05123 0
M  V30 38945 H 3460.37 -2.73756 3.29782 0
M  V30 38946 H 3464.56 -2.54669 4.25978 0
M  V30 38947 H 3459.81 -2.32353 5.65528 0
M  V30 38948 H 3463.99 -2.14322 6.626 0
M  V30 38949 H 3461.61 -2.02648 7.32692 0
M  V30 38950 N 3463.19 -1.19129 -1.0318 0
M  V30 38951 C 3464.14 -0.926376 -2.11393 0
M  V30 38952 C 3465.11 0.137674 -1.65528 0
M  V30 38953 O 3466.29 -0.00385158 -1.908 0
M  V30 38954 C 3463.43 -0.467954 -3.41913 0
M  V30 38955 C 3462.54 -1.59844 -4.0134 0
M  V30 38956 C 3461.68 -1.09185 -5.19858 0
M  V30 38957 C 3460.72 -2.19642 -5.71335 0
M  V30 38958 N 3459.85 -1.70311 -6.8113 0
M  V30 38959 H 3464.69 -1.85292 -2.3339 0
M  V30 38960 H 3462.23 -0.923832 -1.14472 0
M  V30 38961 H 3464.19 -0.183586 -4.16796 0
M  V30 38962 H 3462.82 0.4216 -3.20035 0
M  V30 38963 H 3461.87 -1.99808 -3.23699 0
M  V30 38964 H 3463.18 -2.43075 -4.35564 0
M  V30 38965 H 3462.34 -0.762533 -6.01889 0
M  V30 38966 H 3461.08 -0.229225 -4.87161 0
M  V30 38967 H 3460.08 -2.53407 -4.87919 0
M  V30 38968 H 3461.31 -3.06355 -6.06072 0
M  V30 38969 H 3459.25 -0.863529 -6.50292 0
M  V30 38970 H 3459.17 -2.47134 -7.14465 0
M  V30 38971 H 3460.44 -1.40335 -7.66764 0
M  V30 38972 N 3464.67 1.2224 -0.994741 0
M  V30 38973 C 3465.61 2.26257 -0.5395 0
M  V30 38974 C 3466.61 1.64344 0.410767 0
M  V30 38975 O 3467.81 1.7776 0.283085 0
M  V30 38976 H 3464.19 0.735624 -0.156081 0
M  V30 38977 H 3466.16 2.62003 -1.42818 0
M  V30 38978 C 3464.91 3.47463 0.128359 0
M  V30 38979 H 3464.23 3.95366 -0.593797 0
M  V30 38980 H 3465.67 4.2201 0.410319 0
M  V30 38981 C 3464.13 3.08041 1.36428 0
M  V30 38982 O 3464.66 3.17604 2.45948 0
M  V30 38983 N 3462.87 2.62806 1.24021 0
M  V30 38984 H 3462.41 2.55224 0.349066 0
M  V30 38985 H 3462.37 2.36797 2.0682 0
M  V30 38986 N 3466.14 0.768172 1.37611 0
M  V30 38987 C 3467.37 0.341651 2.03756 0
M  V30 38988 C 3467.78 -1.03982 1.58065 0
M  V30 38989 O 3467.13 -1.67439 0.755638 0
M  V30 38990 C 3467.19 0.302095 3.58228 0
M  V30 38991 C 3466.85 1.62755 4.27036 0
M  V30 38992 C 3467.85 2.57936 4.51403 0
M  V30 38993 C 3465.53 1.901 4.64938 0
M  V30 38994 C 3467.53 3.78672 5.12725 0
M  V30 38995 C 3465.21 3.11107 5.25981 0
M  V30 38996 C 3466.21 4.05212 5.49811 0
M  V30 38997 O 3465.9 5.24089 6.09578 0
M  V30 38998 H 3465.63 0.141667 0.660989 0
M  V30 38999 H 3468.19 1.04214 1.76999 0
M  V30 39000 H 3466.42 -0.454744 3.84017 0
M  V30 39001 H 3468.11 -0.0968739 4.05784 0
M  V30 39002 H 3468.87 2.3809 4.22538 0
M  V30 39003 H 3464.75 1.17681 4.45726 0
M  V30 39004 H 3468.29 4.52138 5.31241 0
M  V30 39005 H 3464.19 3.3084 5.5427 0
M  V30 39006 H 3464.96 5.24866 6.28059 0
M  V30 39007 N 3467.62 -1.48829 0.518419 0
M  V30 39008 C 3468.55 -2.27388 -0.287602 0
M  V30 39009 C 3469.57 -1.34657 -0.91495 0
M  V30 39010 O 3470.76 -1.59801 -0.795345 0
M  V30 39011 C 3467.86 -3.0765 -1.42143 0
M  V30 39012 C 3467.03 -4.28079 -0.898163 0
M  V30 39013 C 3466.09 -4.90245 -1.91171 0
M  V30 39014 O 3465.11 -5.49803 -1.47327 0
M  V30 39015 N 3466.32 -4.81451 -3.24323 0
M  V30 39016 H 3469.08 -2.97203 0.386099 0
M  V30 39017 H 3466.64 -1.58026 0.35203 0
M  V30 39018 H 3468.63 -3.46109 -2.09739 0
M  V30 39019 H 3467.2 -2.40331 -1.99899 0
M  V30 39020 H 3466.42 -3.94172 -0.0465633 0
M  V30 39021 H 3467.71 -5.06061 -0.527249 0
M  V30 39022 H 3467.11 -4.34194 -3.62619 0
M  V30 39023 H 3465.67 -5.24044 -3.87584 0
M  V30 39024 N 3469.1 -0.253021 -1.55556 0
M  V30 39025 C 3470.33 0.373986 -2.03492 0
M  V30 39026 C 3470.74 1.51092 -1.1321 0
M  V30 39027 O 3470.1 1.81901 -0.147737 0
M  V30 39028 C 3470.15 0.875986 -3.50726 0
M  V30 39029 O 3469.87 -0.215651 -4.37569 0
M  V30 39030 C 3471.37 1.57306 -4.14451 0
M  V30 39031 H 3468.59 0.0881527 -0.665184 0
M  V30 39032 H 3471.14 -0.378671 -2.00964 0
M  V30 39033 H 3469.29 1.5788 -3.53769 0
M  V30 39034 H 3469.71 0.166532 -5.24236 0
M  V30 39035 H 3471.18 1.87596 -5.19145 0
M  V30 39036 H 3471.66 2.49712 -3.61304 0
M  V30 39037 H 3472.26 0.914662 -4.15348 0
M  V30 39038 N 3470.58 1.57587 0.0200142 0
M  V30 39039 C 3471.51 2.10183 1.01712 0
M  V30 39040 C 3472.49 1.00639 1.37134 0
M  V30 39041 O 3473.67 1.28213 1.4586 0
M  V30 39042 C 3470.8 2.58869 2.31526 0
M  V30 39043 C 3469.76 3.72759 2.1032 0
M  V30 39044 C 3469.08 4.07684 3.45974 0
M  V30 39045 C 3470.38 5.00833 1.48201 0
M  V30 39046 H 3472.08 2.93743 0.579255 0
M  V30 39047 H 3469.62 1.41307 0.277187 0
M  V30 39048 H 3471.58 2.94287 3.01618 0
M  V30 39049 H 3470.3 1.72404 2.77389 0
M  V30 39050 H 3468.96 3.37704 1.42659 0
M  V30 39051 H 3468.61 3.18272 3.89502 0
M  V30 39052 H 3468.31 4.84403 3.32608 0
M  V30 39053 H 3469.83 4.45644 4.17413 0
M  V30 39054 H 3471.25 5.3415 2.08222 0
M  V30 39055 H 3469.64 5.82223 1.45383 0
M  V30 39056 H 3470.71 4.82818 0.448857 0
M  V30 39057 N 3472.06 -0.292445 1.54863 0
M  V30 39058 C 3473 -1.36095 1.86405 0
M  V30 39059 C 3473.97 -1.49984 0.71372 0
M  V30 39060 O 3475.16 -1.64705 0.963163 0
M  V30 39061 C 3472.3 -2.71958 2.12445 0
M  V30 39062 C 3471.41 -2.66448 3.40043 0
M  V30 39063 C 3470.55 -3.94362 3.55882 0
M  V30 39064 C 3469.59 -3.83284 4.77241 0
M  V30 39065 N 3468.72 -5.02992 4.89841 0
M  V30 39066 H 3473.56 -1.08495 2.77548 0
M  V30 39067 H 3471.1 -0.524582 1.37428 0
M  V30 39068 H 3473.06 -3.50981 2.25539 0
M  V30 39069 H 3471.69 -2.978 1.2456 0
M  V30 39070 H 3470.74 -1.79242 3.35524 0
M  V30 39071 H 3472.05 -2.54156 4.29193 0
M  V30 39072 H 3471.21 -4.81824 3.68688 0
M  V30 39073 H 3469.94 -4.09499 2.64881 0
M  V30 39074 H 3468.95 -2.94206 4.6446 0
M  V30 39075 H 3470.17 -3.69685 5.69658 0
M  V30 39076 H 3468.12 -5.18575 4.01766 0
M  V30 39077 H 3468.04 -4.93155 5.73004 0
M  V30 39078 H 3469.31 -5.92081 5.07012 0
M  V30 39079 N 3473.53 -1.47465 -0.55605 0
M  V30 39080 C 3474.76 -1.57767 -1.33855 0
M  V30 39081 C 3475.18 -0.228283 -1.87415 0
M  V30 39082 O 3474.53 0.778645 -1.65056 0
M  V30 39083 C 3474.59 -2.60382 -2.50766 0
M  V30 39084 O 3474.31 -3.90081 -1.99419 0
M  V30 39085 C 3475.81 -2.80879 -3.42961 0
M  V30 39086 H 3473.03 -0.532712 -0.407994 0
M  V30 39087 H 3475.57 -1.93092 -0.673467 0
M  V30 39088 H 3473.73 -2.27987 -3.1321 0
M  V30 39089 H 3474.14 -4.46163 -2.75752 0
M  V30 39090 H 3475.61 -3.5654 -4.21406 0
M  V30 39091 H 3476.09 -1.88744 -3.96576 0
M  V30 39092 H 3476.7 -3.14476 -2.86331 0
M  V30 39093 N 3475.01 0.802873 -1.35616 0
M  V30 39094 C 3476.24 1.59657 -1.3238 0
M  V30 39095 C 3476.66 1.87858 0.0953905 0
M  V30 39096 O 3476.02 1.46843 1.06333 0
M  V30 39097 C 3476.07 2.90252 -2.13977 0
M  V30 39098 O 3475.17 3.83246 -1.52303 0
M  V30 39099 H 3474.51 0.484815 -0.453708 0
M  V30 39100 H 3477.04 0.996186 -1.7871 0
M  V30 39101 H 3477.05 3.39643 -2.26067 0
M  V30 39102 H 3475.73 2.69052 -3.1715 0
M  V30 39103 H 3474.31 3.41806 -1.49074 0
M  V30 39104 N 3476.49 1.19674 1.02547 0
M  V30 39105 C 3477.42 0.961326 2.12793 0
M  V30 39106 C 3478.4 -0.106546 1.69766 0
M  V30 39107 O 3479.59 0.0491699 1.94138 0
M  V30 39108 C 3476.72 0.502928 3.43639 0
M  V30 39109 C 3475.67 1.51303 4.00364 0
M  V30 39110 C 3475 0.911584 5.26872 0
M  V30 39111 C 3476.3 2.89424 4.34777 0
M  V30 39112 H 3477.99 1.88336 2.32745 0
M  V30 39113 H 3475.54 0.906941 1.11851 0
M  V30 39114 H 3477.49 0.32551 4.20141 0
M  V30 39115 H 3476.21 -0.454707 3.23419 0
M  V30 39116 H 3474.87 1.67765 3.25961 0
M  V30 39117 H 3474.52 -0.0537097 5.02971 0
M  V30 39118 H 3474.22 1.58612 5.65788 0
M  V30 39119 H 3475.75 0.745036 6.06038 0
M  V30 39120 H 3477.16 2.76524 5.02202 0
M  V30 39121 H 3475.56 3.53702 4.84783 0
M  V30 39122 H 3476.63 3.4182 3.43929 0
M  V30 39123 N 3477.97 -1.21711 1.00121 0
M  V30 39124 C 3478.93 -2.22166 0.563448 0
M  V30 39125 C 3479.93 -1.5676 -0.358162 0
M  V30 39126 O 3481.12 -1.73562 -0.148971 0
M  V30 39127 C 3478.25 -3.40428 -0.179305 0
M  V30 39128 H 3479.45 -2.6241 1.45193 0
M  V30 39129 H 3477 -1.34906 0.78931 0
M  V30 39130 H 3477.74 -3.05668 -1.0834 0
M  V30 39131 H 3477.52 -3.89119 0.48254 0
M  V30 39132 H 3479.01 -4.14907 -0.473464 0
M  V30 39133 N 3479.45 -0.775459 -1.37202 0
M  V30 39134 C 3480.67 -0.351772 -2.04395 0
M  V30 39135 C 3481.1 1.01911 -1.58101 0
M  V30 39136 O 3480.46 1.65378 -0.742961 0
M  V30 39137 C 3480.5 -0.408168 -3.58282 0
M  V30 39138 O 3479.61 0.590032 -4.08157 0
M  V30 39139 H 3478.95 -0.151658 -0.646449 0
M  V30 39140 H 3481.48 -1.05268 -1.75441 0
M  V30 39141 H 3481.49 -0.266783 -4.07127 0
M  V30 39142 H 3480.16 -1.40826 -3.91332 0
M  V30 39143 H 3478.74 0.411459 -3.70623 0
M  V30 39144 N 3480.93 1.48552 -0.526305 0
M  V30 39145 C 3482.17 2.02098 0.00911287 0
M  V30 39146 C 3482.49 1.40601 1.35116 0
M  V30 39147 O 3481.76 0.570098 1.87421 0
M  V30 39148 H 3480.34 0.746973 0.00635622 0
M  V30 39149 H 3483.01 1.82304 -0.689301 0
M  V30 39150 H 3482.1 3.11869 0.120157 0
M  V30 39151 N 3482.4 0.261267 1.55419 0
M  V30 39152 C 3483.37 -0.618972 2.20684 0
M  V30 39153 C 3484.37 -1.09189 1.18044 0
M  V30 39154 O 3485.56 -0.994295 1.43036 0
M  V30 39155 C 3482.69 -1.85237 2.86182 0
M  V30 39156 H 3483.88 -0.0493397 2.99859 0
M  V30 39157 H 3481.43 0.0117962 1.56296 0
M  V30 39158 H 3482.17 -2.46287 2.10982 0
M  V30 39159 H 3481.95 -1.52132 3.61384 0
M  V30 39160 H 3483.44 -2.47863 3.36086 0
M  V30 39161 N 3483.88 -1.57596 -0.0116567 0
M  V30 39162 C 3484.81 -2.04514 -1.03474 0
M  V30 39163 C 3485.83 -0.960968 -1.31412 0
M  V30 39164 O 3487.02 -1.23798 -1.28594 0
M  V30 39165 C 3484.12 -2.42023 -2.3723 0
M  V30 39166 C 3483.29 -3.73032 -2.28398 0
M  V30 39167 C 3482.35 -3.97538 -3.44746 0
M  V30 39168 O 3481.37 -4.68364 -3.23457 0
M  V30 39169 N 3482.58 -3.44526 -4.67206 0
M  V30 39170 H 3485.34 -2.92902 -0.634706 0
M  V30 39171 H 3482.9 -1.60669 -0.199272 0
M  V30 39172 H 3484.89 -2.55541 -3.13817 0
M  V30 39173 H 3483.46 -1.59215 -2.69016 0
M  V30 39174 H 3482.68 -3.69703 -1.36797 0
M  V30 39175 H 3483.97 -4.58942 -2.19658 0
M  V30 39176 H 3483.37 -2.87151 -4.87402 0
M  V30 39177 H 3481.93 -3.63394 -5.41099 0
M  V30 39178 N 3485.36 0.284228 -1.55016 0
M  V30 39179 C 3486.61 1.01881 -1.75351 0
M  V30 39180 C 3486.94 1.86341 -0.546858 0
M  V30 39181 O 3486.21 1.89084 0.455799 0
M  V30 39182 C 3486.5 1.91079 -3.05223 0
M  V30 39183 C 3486.35 1.09687 -4.36221 0
M  V30 39184 C 3487.67 2.89977 -3.31061 0
M  V30 39185 H 3484.79 0.368973 -0.637987 0
M  V30 39186 H 3487.43 0.292083 -1.87742 0
M  V30 39187 H 3485.58 2.53043 -2.94791 0
M  V30 39188 H 3487.25 0.498796 -4.58595 0
M  V30 39189 H 3485.49 0.400002 -4.31952 0
M  V30 39190 H 3486.17 1.7539 -5.23395 0
M  V30 39191 H 3488.64 2.38145 -3.41213 0
M  V30 39192 H 3487.52 3.49539 -4.23218 0
M  V30 39193 H 3487.78 3.64517 -2.5016 0
M  V30 39194 N 3486.84 1.47758 0.548222 0
M  V30 39195 C 3487.79 1.61338 1.6755 0
M  V30 39196 C 3488.78 0.480364 1.62447 0
M  V30 39197 O 3489.99 0.658474 1.67523 0
M  V30 39198 H 3486.36 0.507904 0.554561 0
M  V30 39199 H 3488.33 2.5605 1.53235 0
M  V30 39200 C 3487.08 1.65325 3.0588 0
M  V30 39201 H 3486.4 2.51861 3.10493 0
M  V30 39202 H 3487.84 1.78875 3.84421 0
M  V30 39203 C 3486.3 0.388297 3.34655 0
M  V30 39204 O 3486.83 -0.506746 3.98491 0
M  V30 39205 N 3485.04 0.265564 2.89384 0
M  V30 39206 H 3484.59 0.994861 2.37614 0
M  V30 39207 H 3484.54 -0.579834 3.09007 0
M  V30 39208 N 3488.32 -0.79567 1.3604 0
M  V30 39209 C 3489.73 -1.37042 1.26792 0
M  V30 39210 C 3490.08 -1.9597 -0.0949848 0
M  V30 39211 O 3489.2 -1.92102 -0.996278 0
M  V30 39212 C 3489.8 -2.49147 2.29589 0
M  V30 39213 C 3488.36 -3.02454 2.2405 0
M  V30 39214 C 3487.5 -1.75489 2.14706 0
M  V30 39215 H 3490.45 -0.597817 1.4701 0
M  V30 39216 H 3490.48 -3.27996 1.9287 0
M  V30 39217 H 3489.99 -2.06228 3.28773 0
M  V30 39218 H 3488.09 -3.49809 1.28313 0
M  V30 39219 H 3488.2 -3.59694 3.16476 0
M  V30 39220 H 3486.57 -1.97475 1.60859 0
M  V30 39221 H 3487.35 -1.34707 3.15767 0
M  V30 39222 N 3489.79 -1.20217 -1.0191 0
M  V30 39223 C 3491.02 -1.03634 -1.79074 0
M  V30 39224 C 3491.44 0.41455 -1.84193 0
M  V30 39225 O 3490.79 1.28786 -1.29308 0
M  V30 39226 C 3490.85 -1.61013 -3.23662 0
M  V30 39227 O 3490.57 -3.00424 -3.18868 0
M  V30 39228 C 3492.07 -1.49349 -4.17384 0
M  V30 39229 H 3489.29 -0.364702 -0.563235 0
M  V30 39230 H 3491.83 -1.59249 -1.28297 0
M  V30 39231 H 3489.99 -1.09524 -3.71595 0
M  V30 39232 H 3490.4 -3.27605 -4.09604 0
M  V30 39233 H 3491.87 -1.94262 -5.16688 0
M  V30 39234 H 3492.35 -0.44557 -4.36934 0
M  V30 39235 H 3492.96 -2.00017 -3.75331 0
M  V30 39236 N 3491.27 1.21178 -1.00765 0
M  V30 39237 C 3492.5 1.94308 -0.71078 0
M  V30 39238 C 3492.92 1.74239 0.727073 0
M  V30 39239 O 3492.27 1.05068 1.49221 0
M  V30 39240 C 3492.32 3.46644 -1.02568 0
M  V30 39241 O 3492.04 3.6605 -2.40705 0
M  V30 39242 C 3493.55 4.36934 -0.748594 0
M  V30 39243 H 3490.77 0.617854 -0.261721 0
M  V30 39244 H 3493.31 1.53922 -1.34641 0
M  V30 39245 H 3491.46 3.84943 -0.435605 0
M  V30 39246 H 3491.88 4.60121 -2.51772 0
M  V30 39247 H 3493.35 5.42511 -1.01908 0
M  V30 39248 H 3493.83 4.38052 0.317346 0
M  V30 39249 H 3494.44 4.04284 -1.3204 0
M  V30 39250 N 3492.75 0.782725 1.36789 0
M  V30 39251 C 3493.68 0.13455 2.28805 0
M  V30 39252 C 3494.7 -0.652312 1.4916 0
M  V30 39253 O 3495.88 -0.488596 1.71683 0
M  V30 39254 C 3492.98 -0.832744 3.2851 0
M  V30 39255 C 3492.16 -0.0973667 4.37292 0
M  V30 39256 C 3491.22 -0.979625 5.17001 0
M  V30 39257 O 3490.24 -0.439339 5.67502 0
M  V30 39258 N 3491.44 -2.30467 5.3279 0
M  V30 39259 H 3494.21 0.924923 2.85071 0
M  V30 39260 H 3491.77 0.636038 1.48883 0
M  V30 39261 H 3493.76 -1.42665 3.7872 0
M  V30 39262 H 3492.33 -1.52403 2.72932 0
M  V30 39263 H 3491.55 0.677551 3.88333 0
M  V30 39264 H 3492.84 0.410348 5.07143 0
M  V30 39265 H 3492.24 -2.76785 4.93363 0
M  V30 39266 H 3490.8 -2.84837 5.86269 0
M  V30 39267 N 3494.23 -1.48271 0.534176 0
M  V30 39268 C 3495.51 -1.95499 -0.0629837 0
M  V30 39269 C 3495.89 -1.47648 -1.50875 0
M  V30 39270 O 3495.23 -0.704868 -2.17357 0
M  V30 39271 C 3495.44 -3.48951 0.0586089 0
M  V30 39272 C 3496.79 -4.24486 -0.0985231 0
M  V30 39273 O 3497.82 -3.56197 -0.0149811 0
M  V30 39274 O 3496.67 -5.45811 -0.27426 0
M  V30 39275 H 3493.77 -0.82341 -0.0769697 0
M  V30 39276 H 3496.31 -1.58774 0.59907 0
M  V30 39277 H 3495.09 -3.76512 1.06555 0
M  V30 39278 H 3494.71 -3.92381 -0.642106 0
M  V30 39279 N 3495.71 -0.269505 -1.55279 0
M  V30 39280 C 3496.65 0.636429 -2.23724 0
M  V30 39281 C 3497.65 1.1623 -1.23236 0
M  V30 39282 O 3498.85 1.11657 -1.41183 0
M  V30 39283 H 3495.23 0.223775 -0.717934 0
M  V30 39284 H 3497.2 0.0362532 -2.98378 0
M  V30 39285 C 3495.95 1.8119 -2.96759 0
M  V30 39286 H 3495.27 1.41643 -3.73868 0
M  V30 39287 H 3496.71 2.42252 -3.4798 0
M  V30 39288 C 3495.17 2.69693 -2.0191 0
M  V30 39289 O 3495.7 3.69889 -1.56669 0
M  V30 39290 N 3493.91 2.36741 -1.68529 0
M  V30 39291 H 3493.45 1.55311 -2.05515 0
M  V30 39292 H 3493.41 2.96229 -1.05336 0
M  V30 39293 N 3497.18 1.576 0.00329885 0
M  V30 39294 C 3498.13 2.08214 0.995774 0
M  V30 39295 C 3499.1 0.976828 1.3434 0
M  V30 39296 O 3500.29 1.24905 1.44234 0
M  V30 39297 C 3497.43 2.58743 2.28355 0
M  V30 39298 C 3496.54 3.83163 1.99524 0
M  V30 39299 C 3495.67 4.22206 3.22359 0
M  V30 39300 C 3494.71 5.39472 2.892 0
M  V30 39301 N 3493.85 5.73824 4.04562 0
M  V30 39302 H 3498.69 2.92744 0.557218 0
M  V30 39303 H 3496.23 1.44721 0.263487 0
M  V30 39304 H 3498.19 2.86116 3.03634 0
M  V30 39305 H 3496.82 1.77092 2.69886 0
M  V30 39306 H 3495.87 3.62718 1.14628 0
M  V30 39307 H 3497.18 4.68543 1.71081 0
M  V30 39308 H 3496.33 4.50844 4.05986 0
M  V30 39309 H 3495.07 3.35528 3.53938 0
M  V30 39310 H 3494.08 5.10561 2.0398 0
M  V30 39311 H 3495.3 6.27823 2.58872 0
M  V30 39312 H 3493.25 4.90104 4.36044 0
M  V30 39313 H 3493.17 6.5377 3.79632 0
M  V30 39314 H 3494.43 6.07051 4.88988 0
M  V30 39315 N 3498.66 -0.276003 1.55164 0
M  V30 39316 C 3499.61 -1.36101 1.88625 0
M  V30 39317 C 3500.6 -1.51279 0.762291 0
M  V30 39318 O 3501.81 -1.531 0.946599 0
M  V30 39319 H 3498.19 -0.455122 0.598638 0
M  V30 39320 H 3500.16 -1.05129 2.79268 0
M  V30 39321 C 3498.91 -2.71504 2.17211 0
M  V30 39322 H 3498.23 -2.60614 3.03183 0
M  V30 39323 H 3499.67 -3.46371 2.44547 0
M  V30 39324 C 3498.13 -3.2237 0.978727 0
M  V30 39325 O 3498.66 -4.01141 0.211836 0
M  V30 39326 N 3496.86 -2.80013 0.777248 0
M  V30 39327 H 3496.41 -2.16069 1.40256 0
M  V30 39328 H 3496.37 -3.14394 -0.0196201 0
M  V30 39329 N 3500.14 -1.48046 -0.540378 0
M  V30 39330 C 3501.55 -1.49194 -1.12241 0
M  V30 39331 C 3501.9 -0.255929 -1.94524 0
M  V30 39332 O 3501.03 0.637819 -2.06787 0
M  V30 39333 C 3501.62 -2.70331 -2.04222 0
M  V30 39334 C 3500.18 -2.74384 -2.57663 0
M  V30 39335 C 3499.33 -2.42554 -1.34398 0
M  V30 39336 H 3502.28 -1.55313 -0.326138 0
M  V30 39337 H 3502.3 -2.48258 -2.88354 0
M  V30 39338 H 3501.81 -3.60273 -1.44308 0
M  V30 39339 H 3499.91 -1.88624 -3.21328 0
M  V30 39340 H 3500.03 -3.75535 -2.97507 0
M  V30 39341 H 3498.39 -1.9349 -1.65632 0
M  V30 39342 H 3499.17 -3.34725 -0.762512 0
M  V30 39343 N 3501.62 0.788444 -1.3646 0
M  V30 39344 C 3502.57 1.89089 -1.27394 0
M  V30 39345 C 3503.55 1.60049 -0.165229 0
M  V30 39346 O 3504.74 1.72464 -0.398128 0
M  V30 39347 C 3501.87 3.26316 -1.06645 0
M  V30 39348 C 3500.96 3.61362 -2.21987 0
M  V30 39349 N 3501.35 3.6771 -3.47308 0
M  V30 39350 C 3499.65 3.91429 -2.13774 0
M  V30 39351 C 3500.35 3.99024 -4.23267 0
M  V30 39352 N 3499.33 4.14057 -3.52218 0
M  V30 39353 H 3503.13 1.92225 -2.22321 0
M  V30 39354 H 3500.64 0.984017 -1.29193 0
M  V30 39355 H 3502.64 4.05161 -0.982363 0
M  V30 39356 H 3501.3 3.24455 -0.126186 0
M  V30 39357 H 3502.31 3.50331 -3.8143 0
M  V30 39358 H 3498.99 3.97488 -1.27709 0
M  V30 39359 H 3500.38 4.10851 -5.3165 0
M  V30 39360 N 3503.1 1.20755 1.01271 0
M  V30 39361 C 3504.34 1.02159 1.75189 0
M  V30 39362 C 3504.68 -0.444758 1.89038 0
M  V30 39363 O 3503.95 -1.33015 1.41906 0
M  V30 39364 C 3504.23 1.71036 3.16889 0
M  V30 39365 C 3504.09 3.25141 3.10811 0
M  V30 39366 C 3505.41 1.44662 4.15645 0
M  V30 39367 H 3502.52 0.372533 0.635915 0
M  V30 39368 H 3505.17 1.48824 1.18117 0
M  V30 39369 H 3503.32 1.31363 3.65617 0
M  V30 39370 H 3504.99 3.74133 2.69856 0
M  V30 39371 H 3503.23 3.55844 2.48107 0
M  V30 39372 H 3503.9 3.68494 4.10994 0
M  V30 39373 H 3506.38 1.79087 3.75589 0
M  V30 39374 H 3505.25 1.9538 5.1295 0
M  V30 39375 H 3505.52 0.375017 4.40507 0
M  V30 39376 N 3504.58 -1.20642 1.01406 0
M  V30 39377 C 3505.8 -1.93928 0.721075 0
M  V30 39378 C 3506.22 -1.74622 -0.717822 0
M  V30 39379 O 3505.58 -1.05858 -1.48662 0
M  V30 39380 C 3505.63 -3.46095 1.04405 0
M  V30 39381 O 3505.35 -3.64768 2.42643 0
M  V30 39382 C 3506.85 -4.3653 0.771755 0
M  V30 39383 H 3504.07 -0.616457 0.264994 0
M  V30 39384 H 3506.61 -1.53206 1.35456 0
M  V30 39385 H 3504.77 -3.84707 0.456013 0
M  V30 39386 H 3505.18 -4.58779 2.54209 0
M  V30 39387 H 3506.66 -5.41963 1.04784 0
M  V30 39388 H 3507.13 -4.38214 -0.294111 0
M  V30 39389 H 3507.74 -4.03578 1.34183 0
M  V30 39390 N 3506.05 -0.789968 -1.36372 0
M  V30 39391 C 3507.28 -0.373431 -2.0401 0
M  V30 39392 C 3507.7 1.00228 -1.59173 0
M  V30 39393 O 3507.06 1.6458 -0.76046 0
M  V30 39394 C 3507.11 -0.446146 -3.57829 0
M  V30 39395 O 3506.21 0.546708 -4.0876 0
M  V30 39396 H 3505.55 -0.158506 -0.644804 0
M  V30 39397 H 3508.08 -1.07123 -1.74315 0
M  V30 39398 H 3508.09 -0.309949 -4.06821 0
M  V30 39399 H 3506.77 -1.44969 -3.89816 0
M  V30 39400 H 3505.35 0.372126 -3.71039 0
M  V30 39401 N 3507.53 1.47986 -0.542031 0
M  V30 39402 C 3508.95 1.58333 -0.200719 0
M  V30 39403 C 3509.15 1.54258 1.29641 0
M  V30 39404 O 3508.2 1.43798 2.07553 0
M  V30 39405 C 3509.52 2.89475 -0.813929 0
M  V30 39406 C 3511.06 3.03028 -0.783764 0
M  V30 39407 C 3511.54 4.36849 -1.37577 0
M  V30 39408 N 3513.03 4.43446 -1.33827 0
M  V30 39409 C 3513.77 5.45524 -1.76611 0
M  V30 39410 N 3513.26 6.54493 -2.27181 0
M  V30 39411 N 3515.05 5.36478 -1.67774 0
M  V30 39412 H 3507.21 1.48877 -1.5149 0
M  V30 39413 H 3509.47 0.707627 -0.630847 0
M  V30 39414 H 3509.17 2.98148 -1.86549 0
M  V30 39415 H 3509.05 3.76021 -0.298045 0
M  V30 39416 H 3511.44 2.93961 0.259067 0
M  V30 39417 H 3511.52 2.18063 -1.33725 0
M  V30 39418 H 3511.16 4.46671 -2.41759 0
M  V30 39419 H 3511.09 5.20521 -0.797861 0
M  V30 39420 H 3513.58 3.65286 -0.968211 0
M  V30 39421 H 3513.89 7.28536 -2.5779 0
M  V30 39422 H 3512.24 6.55423 -2.31182 0
M  V30 39423 H 3515.43 4.50244 -1.28056 0
M  V30 39424 H 3515.6 6.15895 -2.01437 0
M  V30 39425 N 3509.01 0.277736 1.55133 0
M  V30 39426 C 3509.97 -0.595531 2.21328 0
M  V30 39427 C 3510.97 -1.07931 1.19195 0
M  V30 39428 O 3512.16 -0.979068 1.44083 0
M  V30 39429 C 3509.29 -1.82191 2.88131 0
M  V30 39430 H 3510.49 -0.0175328 2.99895 0
M  V30 39431 H 3508.04 0.0283728 1.56274 0
M  V30 39432 H 3508.78 -2.44035 2.13582 0
M  V30 39433 H 3508.56 -1.4829 3.62977 0
M  V30 39434 H 3510.05 -2.44285 3.38696 0
M  V30 39435 N 3510.49 -1.57599 0.00505908 0
M  V30 39436 C 3511.72 -1.9507 -0.689575 0
M  V30 39437 C 3512.13 -0.880212 -1.67026 0
M  V30 39438 O 3511.49 0.140375 -1.81959 0
M  V30 39439 C 3511.54 -3.3257 -1.41703 0
M  V30 39440 O 3511.26 -4.3551 -0.475669 0
M  V30 39441 C 3512.76 -3.8453 -2.20571 0
M  V30 39442 H 3509.98 -0.643022 -0.191739 0
M  V30 39443 H 3512.52 -2.04419 0.057682 0
M  V30 39444 H 3510.68 -3.24514 -2.11588 0
M  V30 39445 H 3511.09 -5.15082 -0.989483 0
M  V30 39446 H 3512.57 -4.83152 -2.6696 0
M  V30 39447 H 3513.04 -3.17503 -3.03461 0
M  V30 39448 H 3513.65 -3.95778 -1.55693 0
M  V30 39449 N 3511.97 0.267771 -1.55309 0
M  V30 39450 C 3512.9 1.35353 -1.84966 0
M  V30 39451 C 3513.91 1.4529 -0.734486 0
M  V30 39452 O 3515.1 1.47013 -1.01239 0
M  V30 39453 C 3512.2 2.73428 -2.00226 0
M  V30 39454 C 3511.37 2.86018 -3.30927 0
M  V30 39455 C 3510.43 4.04802 -3.36187 0
M  V30 39456 O 3509.46 3.95313 -4.09532 0
M  V30 39457 N 3510.66 5.17012 -2.63968 0
M  V30 39458 H 3513.42 1.10255 -2.78682 0
M  V30 39459 H 3510.99 0.457887 -1.5529 0
M  V30 39460 H 3512.98 3.51194 -2.01109 0
M  V30 39461 H 3511.55 2.91325 -1.13351 0
M  V30 39462 H 3510.77 1.95094 -3.42537 0
M  V30 39463 H 3512.06 2.91364 -4.17115 0
M  V30 39464 H 3511.45 5.27609 -2.04071 0
M  V30 39465 H 3510.01 5.92989 -2.70568 0
M  V30 39466 N 3513.44 1.48331 0.532519 0
M  V30 39467 C 3514.37 1.65558 1.6466 0
M  V30 39468 C 3515.35 0.504498 1.62446 0
M  V30 39469 O 3516.54 0.736743 1.79682 0
M  V30 39470 C 3513.67 1.69277 3.03253 0
M  V30 39471 C 3512.62 2.8386 3.20324 0
M  V30 39472 C 3511.95 2.72667 4.59953 0
M  V30 39473 C 3513.25 4.25187 3.03337 0
M  V30 39474 H 3514.94 2.58826 1.50498 0
M  V30 39475 H 3512.49 1.24558 0.72259 0
M  V30 39476 H 3514.44 1.79917 3.81061 0
M  V30 39477 H 3513.17 0.72586 3.18432 0
M  V30 39478 H 3511.83 2.72771 2.44932 0
M  V30 39479 H 3511.47 1.73951 4.71964 0
M  V30 39480 H 3511.17 3.49553 4.7232 0
M  V30 39481 H 3512.7 2.85271 5.39864 0
M  V30 39482 H 3514.11 4.37123 3.7094 0
M  V30 39483 H 3512.51 5.03051 3.27199 0
M  V30 39484 H 3513.58 4.41827 1.99792 0
M  V30 39485 N 3514.92 -0.781196 1.36876 0
M  V30 39486 C 3516.15 -1.57016 1.34735 0
M  V30 39487 C 3516.56 -1.88672 -0.0695091 0
M  V30 39488 O 3515.92 -1.50745 -1.0287 0
M  V30 39489 C 3515.97 -2.88619 2.17673 0
M  V30 39490 O 3515.69 -2.58324 3.53837 0
M  V30 39491 C 3517.19 -3.82891 2.23405 0
M  V30 39492 H 3514.41 -0.486746 0.461865 0
M  V30 39493 H 3516.96 -0.968957 1.80087 0
M  V30 39494 H 3515.11 -3.45187 1.75854 0
M  V30 39495 H 3515.53 -3.42531 3.97206 0
M  V30 39496 H 3517 -4.72266 2.85777 0
M  V30 39497 H 3517.48 -4.21338 1.2398 0
M  V30 39498 H 3518.08 -3.32254 2.65495 0
M  V30 39499 N 3516.4 -1.21291 -1.0063 0
M  V30 39500 C 3517.63 -1.05527 -1.77965 0
M  V30 39501 C 3518.04 0.394991 -1.84622 0
M  V30 39502 O 3517.4 1.27407 -1.30667 0
M  V30 39503 C 3517.45 -1.64437 -3.21936 0
M  V30 39504 O 3517.17 -3.03789 -3.15664 0
M  V30 39505 C 3518.67 -1.53767 -4.15777 0
M  V30 39506 H 3515.89 -0.370655 -0.559335 0
M  V30 39507 H 3518.44 -1.606 -1.26601 0
M  V30 39508 H 3516.59 -1.1346 -3.70413 0
M  V30 39509 H 3517.01 -3.31931 -4.06106 0
M  V30 39510 H 3518.48 -1.99731 -5.14598 0
M  V30 39511 H 3518.96 -0.491888 -4.36437 0
M  V30 39512 H 3519.56 -2.03986 -3.73189 0
M  V30 39513 N 3517.88 1.20103 -1.02045 0
M  V30 39514 C 3518.79 2.26698 -0.603764 0
M  V30 39515 C 3519.8 1.70224 0.360528 0
M  V30 39516 O 3520.98 2.00189 0.220517 0
M  V30 39517 C 3518.04 3.46667 0.0475379 0
M  V30 39518 C 3517.11 4.18355 -0.963185 0
M  V30 39519 C 3516.34 5.32598 -0.342869 0
M  V30 39520 O 3516.56 5.63934 0.85641 0
M  V30 39521 O 3515.5 5.92466 -1.06152 0
M  V30 39522 H 3519.32 2.64564 -1.4913 0
M  V30 39523 H 3516.91 1.26795 -0.790156 0
M  V30 39524 H 3518.79 4.1939 0.411103 0
M  V30 39525 H 3517.46 3.10669 0.909212 0
M  V30 39526 H 3516.37 3.47788 -1.37819 0
M  V30 39527 H 3517.7 4.58304 -1.79495 0
M  V30 39528 N 3519.36 0.797189 1.35951 0
M  V30 39529 C 3520.3 0.199035 2.2994 0
M  V30 39530 C 3521.27 -0.661565 1.52357 0
M  V30 39531 O 3522.46 -0.608618 1.80833 0
M  V30 39532 C 3519.6 -0.653974 3.38847 0
M  V30 39533 C 3518.71 0.226024 4.31408 0
M  V30 39534 C 3517.85 -0.634095 5.27402 0
M  V30 39535 C 3516.89 0.246881 6.11602 0
M  V30 39536 N 3516.02 -0.572667 6.99761 0
M  V30 39537 H 3520.86 1.00599 2.80507 0
M  V30 39538 H 3518.4 0.507641 1.38063 0
M  V30 39539 H 3520.36 -1.1636 4.00645 0
M  V30 39540 H 3518.99 -1.42628 2.89581 0
M  V30 39541 H 3518.04 0.853681 3.70697 0
M  V30 39542 H 3519.35 0.904502 4.90531 0
M  V30 39543 H 3518.51 -1.20922 5.94527 0
M  V30 39544 H 3517.24 -1.34617 4.68753 0
M  V30 39545 H 3516.25 0.834353 5.43432 0
M  V30 39546 H 3517.47 0.956677 6.72328 0
M  V30 39547 H 3515.42 -1.26889 6.43611 0
M  V30 39548 H 3515.34 0.0479631 7.55985 0
M  V30 39549 H 3516.61 -1.13138 7.71246 0
M  V30 39550 N 3520.83 -1.47696 0.549872 0
M  V30 39551 C 3522.08 -2.01689 0.0209778 0
M  V30 39552 C 3522.4 -1.43038 -1.33414 0
M  V30 39553 O 3523.6 -1.88649 -1.95253 0
M  V30 39554 C 3522.06 -3.59898 -0.0129539 0
M  V30 39555 C 3521.67 -4.27538 1.33848 0
M  V30 39556 C 3523.41 -4.21667 -0.489627 0
M  V30 39557 C 3521.32 -5.77733 1.26405 0
M  V30 39558 H 3520.25 -0.753989 0.00407211 0
M  V30 39559 H 3522.9 -1.69763 0.696628 0
M  V30 39560 H 3521.28 -3.88754 -0.7541 0
M  V30 39561 H 3522.45 -4.10332 2.09676 0
M  V30 39562 H 3520.77 -3.77726 1.75249 0
M  V30 39563 H 3523.37 -5.31721 -0.563591 0
M  V30 39564 H 3523.71 -3.88338 -1.49997 0
M  V30 39565 H 3524.24 -3.97315 0.196436 0
M  V30 39566 H 3520.98 -6.15669 2.25016 0
M  V30 39567 H 3520.5 -5.97296 0.547458 0
M  V30 39568 H 3522.18 -6.39793 0.963031 0
M  V30 39569 N 3522.31 -0.285959 -1.54984 0
M  V30 39570 C 3523.73 0.0678781 -1.59456 0
M  V30 39571 C 3523.93 1.53693 -1.30311 0
M  V30 39572 O 3522.98 2.28744 -1.06922 0
M  V30 39573 C 3524.3 -0.316522 -2.99029 0
M  V30 39574 C 3525.85 -0.264036 -3.11884 0
M  V30 39575 C 3526.32 -0.623035 -4.53743 0
M  V30 39576 N 3527.81 -0.574998 -4.59617 0
M  V30 39577 C 3528.55 -0.825439 -5.67428 0
M  V30 39578 N 3528.04 -1.14106 -6.83339 0
M  V30 39579 N 3529.84 -0.753508 -5.57027 0
M  V30 39580 H 3521.99 -1.24353 -1.72192 0
M  V30 39581 H 3524.25 -0.503128 -0.803471 0
M  V30 39582 H 3523.96 -1.33861 -3.25229 0
M  V30 39583 H 3523.83 0.337305 -3.75689 0
M  V30 39584 H 3526.22 0.748781 -2.85442 0
M  V30 39585 H 3526.3 -0.952275 -2.37414 0
M  V30 39586 H 3525.94 -1.63359 -4.80912 0
M  V30 39587 H 3525.87 0.0871113 -5.26528 0
M  V30 39588 H 3528.36 -0.341371 -3.76355 0
M  V30 39589 H 3528.68 -1.31854 -7.61469 0
M  V30 39590 H 3527.02 -1.17895 -6.84928 0
M  V30 39591 H 3530.21 -0.506693 -4.6535 0
M  V30 39592 H 3530.38 -0.952063 -6.40968 0
M  V30 39593 N 3523.79 1.57594 -0.0134169 0
M  V30 39594 C 3524.7 2.12704 0.989664 0
M  V30 39595 C 3525.72 1.07548 1.36783 0
M  V30 39596 O 3526.89 1.39522 1.45243 0
M  V30 39597 C 3523.96 2.6304 2.25856 0
M  V30 39598 C 3523.02 3.8285 1.94228 0
M  V30 39599 C 3522.25 4.30776 3.15067 0
M  V30 39600 O 3522.47 3.77958 4.27205 0
M  V30 39601 O 3521.41 5.22792 2.98281 0
M  V30 39602 H 3525.23 2.98657 0.551141 0
M  V30 39603 H 3522.82 1.4797 0.206238 0
M  V30 39604 H 3524.7 2.95555 3.00375 0
M  V30 39605 H 3523.38 1.80177 2.6892 0
M  V30 39606 H 3522.28 3.55287 1.17142 0
M  V30 39607 H 3523.62 4.66827 1.55991 0
M  V30 39608 N 3525.27 -0.259531 1.55448 0
M  V30 39609 C 3526.2 -1.32504 1.92262 0
M  V30 39610 C 3527.18 -1.50849 0.786039 0
M  V30 39611 O 3528.36 -1.63668 1.04529 0
M  V30 39612 C 3525.49 -2.68215 2.20631 0
M  V30 39613 C 3524.45 -2.64583 3.36422 0
M  V30 39614 C 3523.77 -4.03971 3.50303 0
M  V30 39615 C 3525.07 -2.22672 4.72456 0
M  V30 39616 H 3526.77 -1.01941 2.81511 0
M  V30 39617 H 3524.31 -0.488941 1.35445 0
M  V30 39618 H 3526.27 -3.42879 2.44974 0
M  V30 39619 H 3524.99 -3.00389 1.28196 0
M  V30 39620 H 3523.65 -1.92376 3.12069 0
M  V30 39621 H 3523.3 -4.33389 2.55309 0
M  V30 39622 H 3523 -4.02432 4.28162 0
M  V30 39623 H 3524.52 -4.80353 3.76952 0
M  V30 39624 H 3525.94 -2.87063 4.96254 0
M  V30 39625 H 3524.33 -2.32269 5.53327 0
M  V30 39626 H 3525.4 -1.17818 4.70369 0
M  V30 39627 N 3526.75 -1.48611 -0.524645 0
M  V30 39628 C 3527.66 -1.66223 -1.65551 0
M  V30 39629 C 3528.67 -0.544739 -1.65253 0
M  V30 39630 O 3529.85 -0.816487 -1.84107 0
M  V30 39631 C 3526.91 -1.70286 -3.02 0
M  V30 39632 C 3525.97 -2.93701 -3.13111 0
M  V30 39633 C 3525.21 -2.9756 -4.4305 0
M  V30 39634 O 3525.43 -2.09677 -5.30464 0
M  V30 39635 O 3524.36 -3.89787 -4.58639 0
M  V30 39636 H 3528.19 -2.61977 -1.53628 0
M  V30 39637 H 3525.78 -1.32075 -0.698331 0
M  V30 39638 H 3527.66 -1.75448 -3.8314 0
M  V30 39639 H 3526.33 -0.777057 -3.14235 0
M  V30 39640 H 3525.24 -2.94068 -2.31246 0
M  V30 39641 H 3526.57 -3.85683 -3.05794 0
M  V30 39642 N 3528.22 0.773926 -1.37289 0
M  V30 39643 C 3529.17 1.90853 -1.32959 0
M  V30 39644 C 3530.17 1.67982 -0.218725 0
M  V30 39645 O 3531.37 1.75799 -0.386625 0
M  V30 39646 H 3527.75 0.627583 -0.4143 0
M  V30 39647 H 3529.72 1.91622 -2.28744 0
M  V30 39648 C 3528.47 3.28087 -1.15127 0
M  V30 39649 H 3527.79 3.46261 -1.99858 0
M  V30 39650 H 3529.23 4.07782 -1.16147 0
M  V30 39651 C 3527.69 3.36595 0.143211 0
M  V30 39652 O 3528.22 3.8555 1.12756 0
M  V30 39653 N 3526.43 2.89957 0.193168 0
M  V30 39654 H 3525.97 2.5031 -0.608515 0
M  V30 39655 H 3525.93 2.96031 1.05891 0
M  V30 39656 N 3529.7 1.21823 0.99985 0
M  V30 39657 C 3530.93 1.06549 1.77938 0
M  V30 39658 C 3531.35 -0.380083 1.8422 0
M  V30 39659 O 3530.71 -1.27436 1.28957 0
M  V30 39660 C 3530.76 1.67328 3.19427 0
M  V30 39661 O 3529.86 0.922241 4.01956 0
M  V30 39662 H 3529.2 0.374668 0.548197 0
M  V30 39663 H 3531.73 1.61474 1.25647 0
M  V30 39664 H 3531.74 1.71763 3.70083 0
M  V30 39665 H 3530.42 2.72525 3.1417 0
M  V30 39666 H 3529 0.953373 3.60507 0
M  V30 39667 N 3531.18 -1.1956 1.0268 0
M  V30 39668 C 3532.11 -2.24941 0.626398 0
M  V30 39669 C 3533.09 -1.66169 -0.363583 0
M  V30 39670 O 3534.28 -1.92626 -0.246759 0
M  V30 39671 C 3531.41 -3.4729 -0.0257301 0
M  V30 39672 C 3530.36 -4.18723 0.886311 0
M  V30 39673 C 3529.69 -5.34608 0.099402 0
M  V30 39674 C 3530.99 -4.73748 2.19909 0
M  V30 39675 H 3532.68 -2.58688 1.50734 0
M  V30 39676 H 3530.23 -1.24347 0.726217 0
M  V30 39677 H 3532.18 -4.20202 -0.317471 0
M  V30 39678 H 3530.9 -3.12737 -0.941456 0
M  V30 39679 H 3529.56 -3.4769 1.16221 0
M  V30 39680 H 3529.21 -4.96299 -0.818293 0
M  V30 39681 H 3528.91 -5.83333 0.706878 0
M  V30 39682 H 3530.43 -6.10318 -0.185647 0
M  V30 39683 H 3531.85 -5.38426 1.96902 0
M  V30 39684 H 3530.25 -5.32952 2.75831 0
M  V30 39685 H 3531.32 -3.91929 2.85516 0
M  V30 39686 N 3532.66 -0.804387 -1.35526 0
M  V30 39687 C 3533.61 -0.18595 -2.2724 0
M  V30 39688 C 3534.59 0.63893 -1.4767 0
M  V30 39689 O 3535.78 0.496549 -1.69892 0
M  V30 39690 C 3532.91 0.666387 -3.3677 0
M  V30 39691 C 3532 -0.168102 -4.23767 0
M  V30 39692 N 3532.39 -1.23003 -4.90616 0
M  V30 39693 C 3530.69 0.0506304 -4.45971 0
M  V30 39694 C 3531.39 -1.7393 -5.55088 0
M  V30 39695 N 3530.37 -1.0461 -5.33439 0
M  V30 39696 H 3534.17 -0.998516 -2.76418 0
M  V30 39697 H 3531.68 -0.645327 -1.49028 0
M  V30 39698 H 3533.68 1.12547 -4.01421 0
M  V30 39699 H 3532.34 1.47733 -2.89146 0
M  V30 39700 H 3533.35 -1.61265 -4.92152 0
M  V30 39701 H 3530.03 0.830886 -4.09149 0
M  V30 39702 H 3531.42 -2.62669 -6.18429 0
M  V30 39703 N 3534.14 1.47403 -0.557697 0
M  V30 39704 C 3535.05 2.33806 0.192849 0
M  V30 39705 C 3536.06 1.48221 0.911398 0
M  V30 39706 O 3537.24 1.81148 0.880182 0
M  V30 39707 C 3534.3 3.24926 1.20931 0
M  V30 39708 C 3533.37 4.264 0.498134 0
M  V30 39709 C 3532.6 5.13166 1.46617 0
M  V30 39710 O 3532.82 5.02395 2.70102 0
M  V30 39711 O 3531.76 5.93696 0.990392 0
M  V30 39712 H 3535.58 2.99286 -0.515914 0
M  V30 39713 H 3533.17 1.4597 -0.318309 0
M  V30 39714 H 3535.05 3.81209 1.79604 0
M  V30 39715 H 3533.72 2.62073 1.89998 0
M  V30 39716 H 3532.63 3.73875 -0.129801 0
M  V30 39717 H 3533.96 4.91968 -0.151101 0
M  V30 39718 N 3535.62 0.294175 1.5483 0
M  V30 39719 C 3536.58 -0.572022 2.21947 0
M  V30 39720 C 3537.58 -1.06661 1.20333 0
M  V30 39721 O 3538.77 -0.963731 1.45113 0
M  V30 39722 C 3535.9 -1.79125 2.90047 0
M  V30 39723 H 3537.09 0.0142761 2.99897 0
M  V30 39724 H 3534.65 0.0449461 1.56235 0
M  V30 39725 H 3535.38 -2.41756 2.16159 0
M  V30 39726 H 3535.17 -1.44432 3.64529 0
M  V30 39727 H 3536.66 -2.40678 3.41268 0
M  V30 39728 N 3537.09 -1.57585 0.0217743 0
M  V30 39729 C 3538.04 -2.09772 -0.962523 0
M  V30 39730 C 3539.01 -0.998077 -1.32769 0
M  V30 39731 O 3540.2 -1.27184 -1.42229 0
M  V30 39732 C 3537.34 -2.62343 -2.2421 0
M  V30 39733 C 3536.45 -3.86289 -1.93403 0
M  V30 39734 C 3535.58 -4.27281 -3.15602 0
M  V30 39735 C 3534.62 -5.44004 -2.80581 0
M  V30 39736 N 3533.76 -5.80187 -3.95382 0
M  V30 39737 H 3538.6 -2.93593 -0.510575 0
M  V30 39738 H 3536.14 -1.45122 -0.24043 0
M  V30 39739 H 3538.09 -2.9091 -2.99043 0
M  V30 39740 H 3536.72 -1.81363 -2.67034 0
M  V30 39741 H 3535.78 -3.64496 -1.08843 0
M  V30 39742 H 3537.09 -4.71206 -1.63605 0
M  V30 39743 H 3536.24 -4.57246 -3.98762 0
M  V30 39744 H 3534.98 -3.41117 -3.48555 0
M  V30 39745 H 3533.99 -5.13741 -1.95831 0
M  V30 39746 H 3535.21 -6.31862 -2.48852 0
M  V30 39747 H 3533.16 -4.96979 -4.28191 0
M  V30 39748 H 3533.07 -6.59727 -3.69183 0
M  V30 39749 H 3534.34 -6.14754 -4.79268 0
M  V30 39750 N 3538.57 0.251283 -1.55584 0
M  V30 39751 C 3539.48 1.33263 -1.93075 0
M  V30 39752 C 3540.5 1.52893 -0.830639 0
M  V30 39753 O 3541.67 1.666 -1.13165 0
M  V30 39754 C 3538.74 2.66801 -2.214 0
M  V30 39755 C 3537.8 2.55731 -3.44819 0
M  V30 39756 C 3537.03 3.829 -3.71784 0
M  V30 39757 O 3537.26 4.84582 -3.00893 0
M  V30 39758 O 3536.19 3.81796 -4.65312 0
M  V30 39759 H 3540.02 1.0446 -2.8517 0
M  V30 39760 H 3537.6 0.451668 -1.42409 0
M  V30 39761 H 3539.48 3.45721 -2.40947 0
M  V30 39762 H 3538.16 2.95346 -1.32485 0
M  V30 39763 H 3537.06 1.75112 -3.30585 0
M  V30 39764 H 3538.4 2.32131 -4.34023 0
M  V30 39765 N 3540.05 1.48887 0.516757 0
M  V30 39766 C 3541.27 1.6152 1.301 0
M  V30 39767 C 3541.7 0.280583 1.85996 0
M  V30 39768 O 3541.06 -0.749642 1.65076 0
M  V30 39769 C 3541.11 2.67487 2.41833 0
M  V30 39770 O 3540.21 2.25565 3.45245 0
M  V30 39771 H 3539.55 0.541159 0.384764 0
M  V30 39772 H 3542.08 1.94968 0.62039 0
M  V30 39773 H 3542.09 2.8917 2.87827 0
M  V30 39774 H 3540.77 3.64373 2.00513 0
M  V30 39775 H 3539.34 2.14149 3.05278 0
M  V30 39776 N 3541.53 -0.766635 1.37697 0
M  V30 39777 C 3542.49 -1.8617 1.33692 0
M  V30 39778 C 3543.49 -1.59 0.23995 0
M  V30 39779 O 3544.68 -1.66987 0.496095 0
M  V30 39780 C 3541.81 -3.23403 1.07812 0
M  V30 39781 H 3543.01 -1.91132 2.31103 0
M  V30 39782 H 3540.56 -0.966939 1.22801 0
M  V30 39783 H 3541.29 -3.24115 0.109534 0
M  V30 39784 H 3541.08 -3.44516 1.87219 0
M  V30 39785 H 3542.57 -4.0348 1.07672 0
M  V30 39786 N 3543.01 -1.22351 -0.993375 0
M  V30 39787 C 3543.94 -0.93642 -2.08102 0
M  V30 39788 C 3544.92 0.120476 -1.62153 0
M  V30 39789 O 3546.1 -0.011005 -1.88497 0
M  V30 39790 C 3543.23 -0.408284 -3.3623 0
M  V30 39791 C 3542.27 -1.44978 -4.01103 0
M  V30 39792 S 3543.11 -3.02295 -4.42016 0
M  V30 39793 C 3544.26 -2.51118 -5.73315 0
M  V30 39794 H 3544.5 -1.85744 -2.32134 0
M  V30 39795 H 3542.03 -1.05453 -1.12779 0
M  V30 39796 H 3543.99 -0.110158 -4.10352 0
M  V30 39797 H 3542.65 0.491615 -3.10229 0
M  V30 39798 H 3541.84 -1.03011 -4.93361 0
M  V30 39799 H 3541.44 -1.69659 -3.33304 0
M  V30 39800 H 3543.73 -1.92329 -6.49628 0
M  V30 39801 H 3544.68 -3.41864 -6.20109 0
M  V30 39802 H 3545.09 -1.92419 -5.30693 0
M  V30 39803 N 3544.48 1.19014 -1.03313 0
M  V30 39804 C 3545.43 2.20284 -0.588115 0
M  V30 39805 C 3546.42 1.56696 0.365414 0
M  V30 39806 O 3547.61 1.76023 0.185694 0
M  V30 39807 C 3544.74 3.43255 0.0552875 0
M  V30 39808 C 3543.82 4.1398 -0.920936 0
M  V30 39809 N 3544.22 4.60825 -2.08503 0
M  V30 39810 C 3542.51 4.39729 -0.745297 0
M  V30 39811 C 3543.21 5.15185 -2.70109 0
M  V30 39812 N 3542.19 5.06242 -1.9804 0
M  V30 39813 H 3545.99 2.54187 -1.47534 0
M  V30 39814 H 3543.51 1.35135 -0.900687 0
M  V30 39815 H 3545.5 4.15055 0.391747 0
M  V30 39816 H 3544.16 3.10852 0.938145 0
M  V30 39817 H 3545.17 4.55516 -2.46426 0
M  V30 39818 H 3541.85 4.17407 0.0881086 0
M  V30 39819 H 3543.24 5.6169 -3.6872 0
M  V30 39820 N 3545.96 0.811563 1.35098 0
M  V30 39821 C 3546.91 0.223412 2.29716 0
M  V30 39822 C 3547.88 -0.645369 1.5305 0
M  V30 39823 O 3549.06 -0.589404 1.81468 0
M  V30 39824 C 3546.2 -0.617998 3.39521 0
M  V30 39825 C 3545.32 0.271768 4.31144 0
M  V30 39826 C 3544.45 -0.578121 5.28045 0
M  V30 39827 C 3543.49 0.311736 6.11306 0
M  V30 39828 N 3542.63 -0.498416 7.00329 0
M  V30 39829 H 3547.47 1.03568 2.79424 0
M  V30 39830 H 3545 0.522256 1.37517 0
M  V30 39831 H 3546.96 -1.12104 4.01856 0
M  V30 39832 H 3545.59 -1.39549 2.91077 0
M  V30 39833 H 3544.64 0.89295 3.69771 0
M  V30 39834 H 3545.96 0.956478 4.89544 0
M  V30 39835 H 3545.11 -1.1461 5.95776 0
M  V30 39836 H 3543.85 -1.29638 4.70155 0
M  V30 39837 H 3542.85 0.891945 5.42517 0
M  V30 39838 H 3544.08 1.02793 6.71275 0
M  V30 39839 H 3542.03 -1.20056 6.44921 0
M  V30 39840 H 3541.94 0.128143 7.55891 0
M  V30 39841 H 3543.21 -1.04951 7.72402 0
M  V30 39842 N 3547.44 -1.47105 0.565506 0
M  V30 39843 C 3548.35 -2.33905 -0.180447 0
M  V30 39844 C 3549.37 -1.48703 -0.903524 0
M  V30 39845 O 3550.54 -1.81613 -0.870563 0
M  V30 39846 C 3547.61 -3.25562 -1.19206 0
M  V30 39847 C 3546.67 -4.26658 -0.475514 0
M  V30 39848 C 3545.9 -5.13936 -1.43893 0
M  V30 39849 O 3546.12 -5.0382 -2.67434 0
M  V30 39850 O 3545.06 -5.94213 -0.958893 0
M  V30 39851 H 3548.88 -2.99008 0.531778 0
M  V30 39852 H 3546.47 -1.45799 0.326046 0
M  V30 39853 H 3548.35 -3.82156 -1.7758 0
M  V30 39854 H 3547.03 -2.63077 -1.88606 0
M  V30 39855 H 3545.93 -3.73801 0.149627 0
M  V30 39856 H 3547.27 -4.91881 0.177189 0
M  V30 39857 N 3548.92 -0.302382 -1.54672 0
M  V30 39858 C 3550.14 0.311855 -2.05042 0
M  V30 39859 C 3550.57 1.46632 -1.17816 0
M  V30 39860 O 3549.93 1.80379 -0.182549 0
M  V30 39861 C 3549.97 0.744427 -3.52832 0
M  V30 39862 O 3549.08 1.84906 -3.68624 0
M  V30 39863 H 3548.42 0.0602986 -0.661256 0
M  V30 39864 H 3550.95 -0.444628 -1.9971 0
M  V30 39865 H 3550.96 1.03286 -3.9471 0
M  V30 39866 H 3549.63 -0.100071 -4.1578 0
M  V30 39867 H 3548.21 1.56107 -3.38652 0
M  V30 39868 N 3550.4 1.57571 -0.0301311 0
M  V30 39869 C 3551.34 2.10279 0.951384 0
M  V30 39870 C 3552.31 1.0051 1.32238 0
M  V30 39871 O 3553.5 1.27936 1.41552 0
M  V30 39872 C 3550.64 2.63529 2.22815 0
M  V30 39873 C 3549.75 3.87309 1.91352 0
M  V30 39874 C 3548.89 4.28949 3.13331 0
M  V30 39875 C 3547.93 5.45485 2.77692 0
M  V30 39876 N 3547.06 5.82276 3.923 0
M  V30 39877 H 3551.9 2.9386 0.494998 0
M  V30 39878 H 3549.44 1.45247 0.232731 0
M  V30 39879 H 3551.4 2.92492 2.97497 0
M  V30 39880 H 3550.03 1.82777 2.66069 0
M  V30 39881 H 3549.08 3.65068 1.06909 0
M  V30 39882 H 3550.39 4.72067 1.61104 0
M  V30 39883 H 3549.55 4.59354 3.96332 0
M  V30 39884 H 3548.28 3.4296 3.46741 0
M  V30 39885 H 3547.29 5.14773 1.93104 0
M  V30 39886 H 3548.51 6.33173 2.45497 0
M  V30 39887 H 3546.46 4.99243 4.2555 0
M  V30 39888 H 3546.38 6.61676 3.65679 0
M  V30 39889 H 3547.65 6.17287 4.76001 0
M  V30 39890 N 3551.87 -0.243029 1.55715 0
M  V30 39891 C 3553.12 -0.968459 1.76929 0
M  V30 39892 C 3553.44 -1.86338 0.59478 0
M  V30 39893 O 3554.64 -2.62585 0.690027 0
M  V30 39894 C 3553.1 -1.77208 3.1325 0
M  V30 39895 C 3552.71 -0.924363 4.3836 0
M  V30 39896 C 3554.45 -2.49001 3.438 0
M  V30 39897 C 3552.36 -1.7241 5.65711 0
M  V30 39898 H 3551.29 -0.365334 0.659581 0
M  V30 39899 H 3553.94 -0.222994 1.8214 0
M  V30 39900 H 3552.32 -2.55964 3.02156 0
M  V30 39901 H 3553.49 -0.178855 4.60453 0
M  V30 39902 H 3551.81 -0.31958 4.15172 0
M  V30 39903 H 3554.41 -3.09296 4.36165 0
M  V30 39904 H 3554.75 -3.20812 2.65303 0
M  V30 39905 H 3555.28 -1.77252 3.56127 0
M  V30 39906 H 3552.02 -1.04966 6.47041 0
M  V30 39907 H 3551.54 -2.44478 5.47714 0
M  V30 39908 H 3553.22 -2.29025 6.05109 0
M  V30 39909 N 3553.35 -1.49159 -0.508854 0
M  V30 39910 C 3554.6 -1.57498 -1.26005 0
M  V30 39911 C 3554.91 -0.263315 -1.9382 0
M  V30 39912 O 3556.12 -0.225164 -2.70565 0
M  V30 39913 C 3554.58 -2.77854 -2.28747 0
M  V30 39914 C 3554.18 -4.15747 -1.66907 0
M  V30 39915 C 3555.93 -2.95518 -3.04745 0
M  V30 39916 C 3553.84 -5.27336 -2.67714 0
M  V30 39917 H 3552.77 -0.5864 -0.473974 0
M  V30 39918 H 3555.42 -1.75532 -0.534855 0
M  V30 39919 H 3553.8 -2.53297 -3.04395 0
M  V30 39920 H 3554.97 -4.50409 -0.973052 0
M  V30 39921 H 3553.29 -4.03376 -1.03329 0
M  V30 39922 H 3555.88 -3.76054 -3.80115 0
M  V30 39923 H 3556.23 -2.05777 -3.61886 0
M  V30 39924 H 3556.76 -3.20076 -2.36212 0
M  V30 39925 H 3553.5 -6.19111 -2.15364 0
M  V30 39926 H 3553.02 -4.97137 -3.35581 0
M  V30 39927 H 3554.7 -5.5634 -3.30294 0
M  V30 39928 N 3554.83 0.759322 -1.38102 0
M  V30 39929 C 3555.78 1.87294 -1.34869 0
M  V30 39930 C 3556.75 1.64739 -0.212168 0
M  V30 39931 O 3557.93 1.86485 -0.403497 0
M  V30 39932 C 3555.07 3.24521 -1.17389 0
M  V30 39933 C 3554.19 3.58946 -2.40379 0
M  V30 39934 C 3553.32 4.85447 -2.15673 0
M  V30 39935 C 3552.36 5.1264 -3.34464 0
M  V30 39936 N 3551.5 6.30334 -3.09231 0
M  V30 39937 H 3556.34 1.89392 -2.30076 0
M  V30 39938 H 3553.87 0.925768 -1.14315 0
M  V30 39939 H 3555.83 4.037 -1.05271 0
M  V30 39940 H 3554.46 3.21765 -0.258239 0
M  V30 39941 H 3553.51 2.74655 -2.6319 0
M  V30 39942 H 3554.83 3.74973 -3.28933 0
M  V30 39943 H 3553.98 5.72557 -2.00659 0
M  V30 39944 H 3552.72 4.71548 -1.24475 0
M  V30 39945 H 3551.72 4.24001 -3.50004 0
M  V30 39946 H 3552.95 5.2844 -4.2653 0
M  V30 39947 H 3550.89 6.17769 -2.20675 0
M  V30 39948 H 3550.81 6.46834 -3.91333 0
M  V30 39949 H 3552.08 7.20347 -2.9786 0
M  V30 39950 N 3556.31 1.22876 0.986873 0
M  V30 39951 C 3557.24 0.947443 2.07602 0
M  V30 39952 C 3558.22 -0.111875 1.62215 0
M  V30 39953 O 3559.4 0.0210013 1.88488 0
M  V30 39954 C 3556.53 0.426109 3.36009 0
M  V30 39955 C 3555.58 1.47104 4.00328 0
M  V30 39956 S 3556.41 3.04634 4.40407 0
M  V30 39957 C 3557.57 2.54155 5.71976 0
M  V30 39958 H 3557.8 1.86973 2.31146 0
M  V30 39959 H 3555.33 1.06049 1.12218 0
M  V30 39960 H 3557.29 0.131918 4.10288 0
M  V30 39961 H 3555.95 -0.475156 3.10485 0
M  V30 39962 H 3555.14 1.05626 4.92807 0
M  V30 39963 H 3554.75 1.71424 3.324 0
M  V30 39964 H 3557.04 1.95771 6.48598 0
M  V30 39965 H 3557.98 3.45148 6.18287 0
M  V30 39966 H 3558.39 1.95231 5.29665 0
M  V30 39967 N 3557.79 -1.18464 1.03942 0
M  V30 39968 C 3558.72 -2.21544 0.587452 0
M  V30 39969 C 3559.73 -1.59162 -0.342242 0
M  V30 39970 O 3560.92 -1.77974 -0.136957 0
M  V30 39971 C 3558.02 -3.38513 -0.16194 0
M  V30 39972 C 3557.19 -4.30474 0.775319 0
M  V30 39973 C 3556.25 -5.26154 0.0694451 0
M  V30 39974 O 3555.28 -5.64886 0.69947 0
M  V30 39975 N 3556.48 -5.68012 -1.19763 0
M  V30 39976 H 3559.25 -2.60945 1.47403 0
M  V30 39977 H 3556.81 -1.33237 0.919757 0
M  V30 39978 H 3558.8 -3.99544 -0.64397 0
M  V30 39979 H 3557.37 -2.97813 -0.950047 0
M  V30 39980 H 3556.59 -3.67066 1.43723 0
M  V30 39981 H 3557.88 -4.88816 1.41195 0
M  V30 39982 H 3557.27 -5.38596 -1.73004 0
M  V30 39983 H 3555.83 -6.31245 -1.62396 0
M  V30 39984 N 3559.26 -0.818716 -1.34665 0
M  V30 39985 C 3560.21 -0.235592 -2.29594 0
M  V30 39986 C 3561.18 0.637243 -1.5339 0
M  V30 39987 O 3562.37 0.579773 -1.81778 0
M  V30 39988 C 3559.51 0.599983 -3.39844 0
M  V30 39989 C 3558.62 -0.294629 -4.30994 0
M  V30 39990 C 3557.75 0.55011 -5.28344 0
M  V30 39991 C 3556.79 -0.34415 -6.11132 0
M  V30 39992 N 3555.93 0.461269 -7.00583 0
M  V30 39993 H 3560.77 -1.05049 -2.78871 0
M  V30 39994 H 3558.31 -0.529541 -1.37238 0
M  V30 39995 H 3560.27 1.09971 -4.02445 0
M  V30 39996 H 3558.9 1.38003 -2.91813 0
M  V30 39997 H 3557.95 -0.912548 -3.69292 0
M  V30 39998 H 3559.26 -0.982427 -4.89029 0
M  V30 39999 H 3558.41 1.11449 -5.96376 0
M  V30 40000 H 3557.15 1.27143 -4.70835 0
M  V30 40001 H 3556.16 -0.920703 -5.42036 0
M  V30 40002 H 3557.38 -1.06352 -6.70721 0
M  V30 40003 H 3555.33 1.16634 -6.45548 0
M  V30 40004 H 3555.25 -0.168228 -7.55813 0
M  V30 40005 H 3556.51 1.00853 -7.72948 0
M  V30 40006 N 3560.74 1.46803 -0.573299 0
M  V30 40007 C 3561.65 2.33997 0.16804 0
M  V30 40008 C 3562.67 1.4918 0.895625 0
M  V30 40009 O 3563.84 1.82072 0.860919 0
M  V30 40010 C 3560.91 3.2619 1.17478 0
M  V30 40011 C 3559.97 4.26905 0.452881 0
M  V30 40012 C 3559.2 5.14692 1.41166 0
M  V30 40013 O 3559.43 5.05232 2.64759 0
M  V30 40014 O 3558.36 5.94713 0.927367 0
M  V30 40015 H 3562.19 2.98722 -0.547628 0
M  V30 40016 H 3559.77 1.45624 -0.333773 0
M  V30 40017 H 3561.65 3.83093 1.7555 0
M  V30 40018 H 3560.33 2.64074 1.87208 0
M  V30 40019 H 3559.24 3.73716 -0.169449 0
M  V30 40020 H 3560.57 4.9178 -0.203272 0
M  V30 40021 N 3562.22 0.31058 1.54509 0
M  V30 40022 C 3563.15 -0.554204 2.26828 0
M  V30 40023 C 3564.13 -1.13007 1.27135 0
M  V30 40024 O 3565.32 -1.15762 1.55925 0
M  V30 40025 C 3562.45 -1.72154 3.01629 0
M  V30 40026 C 3561.4 -1.27559 4.0855 0
M  V30 40027 C 3560.73 -2.52885 4.71119 0
M  V30 40028 C 3562.03 -0.399863 5.20767 0
M  V30 40029 H 3563.72 0.0490001 2.9936 0
M  V30 40030 H 3561.27 0.025007 1.43978 0
M  V30 40031 H 3563.22 -2.3327 3.50946 0
M  V30 40032 H 3561.94 -2.35114 2.26692 0
M  V30 40033 H 3560.6 -0.687435 3.60097 0
M  V30 40034 H 3560.25 -3.14179 3.92811 0
M  V30 40035 H 3559.95 -2.23743 5.43335 0
M  V30 40036 H 3561.47 -3.14786 5.23204 0
M  V30 40037 H 3562.89 -0.916955 5.65919 0
M  V30 40038 H 3561.29 -0.201795 5.99761 0
M  V30 40039 H 3562.36 0.572621 4.81507 0
M  V30 40040 N 3563.7 -1.57553 0.0384871 0
M  V30 40041 C 3564.61 -2.14251 -0.955699 0
M  V30 40042 C 3565.63 -1.0971 -1.35054 0
M  V30 40043 O 3566.8 -1.41815 -1.43005 0
M  V30 40044 C 3563.87 -2.666 -2.21642 0
M  V30 40045 C 3562.93 -3.85892 -1.88112 0
M  V30 40046 C 3562.16 -4.35734 -3.08174 0
M  V30 40047 O 3562.38 -3.84706 -4.21138 0
M  V30 40048 O 3561.32 -5.27472 -2.89926 0
M  V30 40049 H 3565.14 -2.99496 -0.503558 0
M  V30 40050 H 3562.73 -1.48279 -0.182672 0
M  V30 40051 H 3564.61 -3.00296 -2.95635 0
M  V30 40052 H 3563.29 -1.84433 -2.66019 0
M  V30 40053 H 3562.19 -3.57105 -1.11475 0
M  V30 40054 H 3563.53 -4.6925 -1.48544 0
M  V30 40055 N 3565.18 0.234767 -1.55842 0
M  V30 40056 C 3566.42 0.962508 -1.78504 0
M  V30 40057 C 3566.76 1.84507 -0.605864 0
M  V30 40058 O 3566.03 1.90438 0.395413 0
M  V30 40059 C 3566.31 1.81272 -3.11147 0
M  V30 40060 C 3566.17 0.95753 -4.3949 0
M  V30 40061 C 3567.49 2.79298 -3.40119 0
M  V30 40062 H 3564.61 0.348489 -0.649403 0
M  V30 40063 H 3567.25 0.232207 -1.88576 0
M  V30 40064 H 3565.4 2.43536 -3.02692 0
M  V30 40065 H 3567.07 0.352645 -4.5995 0
M  V30 40066 H 3565.31 0.262378 -4.33006 0
M  V30 40067 H 3565.98 1.5865 -5.2871 0
M  V30 40068 H 3568.46 2.27169 -3.48616 0
M  V30 40069 H 3567.34 3.35898 -4.34124 0
M  V30 40070 H 3567.6 3.56374 -2.6163 0
M  V30 40071 N 3566.66 1.49427 0.500936 0
M  V30 40072 C 3567.88 1.62626 1.27908 0
M  V30 40073 C 3568.3 0.297684 1.86438 0
M  V30 40074 O 3567.66 -0.716849 1.67832 0
M  V30 40075 C 3567.71 2.6951 2.40929 0
M  V30 40076 O 3567.43 3.97214 1.84804 0
M  V30 40077 C 3568.93 2.93414 3.323 0
M  V30 40078 H 3566.15 0.547488 0.387941 0
M  V30 40079 H 3568.69 1.95459 0.601338 0
M  V30 40080 H 3566.85 2.39455 3.04533 0
M  V30 40081 H 3567.26 4.5609 2.59003 0
M  V30 40082 H 3568.74 3.71935 4.07883 0
M  V30 40083 H 3569.21 2.03332 3.89298 0
M  V30 40084 H 3569.82 3.24886 2.74462 0
M  V30 40085 N 3568.13 -0.751987 1.38502 0
M  V30 40086 C 3569.08 -1.88713 1.35978 0
M  V30 40087 C 3570.08 -1.67613 0.245421 0
M  V30 40088 O 3571.28 -1.75161 0.414544 0
M  V30 40089 H 3567.66 -0.620912 0.424232 0
M  V30 40090 H 3569.63 -1.87958 2.31763 0
M  V30 40091 C 3568.38 -3.26214 1.20332 0
M  V30 40092 H 3567.7 -3.43038 2.05342 0
M  V30 40093 H 3569.14 -4.05882 1.2262 0
M  V30 40094 C 3567.6 -3.36781 -0.0896437 0
M  V30 40095 O 3568.13 -3.87295 -1.06608 0
M  V30 40096 N 3566.33 -2.90228 -0.147014 0
M  V30 40097 H 3565.88 -2.4931 0.64826 0
M  V30 40098 H 3565.84 -2.97678 -1.01168 0
M  V30 40099 N 3569.61 -1.23398 -0.980343 0
M  V30 40100 C 3570.89 -0.974349 -1.69605 0
M  V30 40101 C 3571.27 0.507028 -2.04921 0
M  V30 40102 O 3570.62 1.47824 -1.74242 0
M  V30 40103 C 3570.83 -1.88462 -2.9374 0
M  V30 40104 C 3572.17 -2.14812 -3.66252 0
M  V30 40105 O 3573.2 -1.86013 -3.03773 0
M  V30 40106 O 3572.06 -2.63657 -4.78693 0
M  V30 40107 H 3569.15 -0.367475 -0.740872 0
M  V30 40108 H 3571.7 -1.3444 -1.03556 0
M  V30 40109 H 3570.47 -2.88606 -2.64239 0
M  V30 40110 H 3570.09 -1.51694 -3.67525 0
M  V30 40111 N 3571.09 1.17911 -1.04569 0
M  V30 40112 C 3572.34 1.87349 -0.747212 0
M  V30 40113 C 3572.65 1.81538 0.728242 0
M  V30 40114 O 3573.86 2.46387 1.14043 0
M  V30 40115 C 3572.31 3.36127 -1.28635 0
M  V30 40116 C 3571.92 3.50455 -2.79079 0
M  V30 40117 C 3573.67 4.10933 -1.06462 0
M  V30 40118 C 3571.57 4.9322 -3.26325 0
M  V30 40119 H 3570.5 0.70174 -0.275819 0
M  V30 40120 H 3573.15 1.33197 -1.26218 0
M  V30 40121 H 3571.54 3.89778 -0.699219 0
M  V30 40122 H 3572.71 3.07051 -3.43593 0
M  V30 40123 H 3571.02 2.89061 -2.99721 0
M  V30 40124 H 3573.62 5.16244 -1.39269 0
M  V30 40125 H 3573.96 4.163 -0.00208615 0
M  V30 40126 H 3574.5 3.6347 -1.61662 0
M  V30 40127 H 3571.24 4.93024 -4.31981 0
M  V30 40128 H 3570.76 5.37319 -2.66549 0
M  V30 40129 H 3572.44 5.6196 -3.20639 0
M  V30 40130 N 3572.57 0.825847 1.34229 0
M  V30 40131 C 3573.82 0.411696 1.97454 0
M  V30 40132 C 3574.13 -1.03144 1.66195 0
M  V30 40133 O 3575.34 -1.54964 2.22931 0
M  V30 40134 C 3573.79 0.685207 3.53317 0
M  V30 40135 C 3573.4 2.14215 3.93466 0
M  V30 40136 C 3575.14 0.337365 4.23157 0
M  V30 40137 C 3573.05 2.3604 5.42254 0
M  V30 40138 H 3571.98 0.150209 0.738887 0
M  V30 40139 H 3574.63 1.01261 1.53031 0
M  V30 40140 H 3573.01 0.0140874 3.95997 0
M  V30 40141 H 3574.19 2.85267 3.61883 0
M  V30 40142 H 3572.5 2.45171 3.36571 0
M  V30 40143 H 3575.1 0.478224 5.32557 0
M  V30 40144 H 3575.44 -0.718427 4.10054 0
M  V30 40145 H 3575.98 0.963181 3.85963 0
M  V30 40146 H 3572.71 3.40135 5.60346 0
M  V30 40147 H 3572.23 1.69535 5.75342 0
M  V30 40148 H 3573.91 2.18544 6.08973 0
M  V30 40149 N 3574.05 -1.46497 0.581077 0
M  V30 40150 C 3575.01 -2.28754 -0.142897 0
M  V30 40151 C 3576.01 -1.383 -0.820359 0
M  V30 40152 O 3577.2 -1.60693 -0.672564 0
M  V30 40153 C 3574.33 -3.18639 -1.2117 0
M  V30 40154 H 3575.52 -2.94239 0.579969 0
M  V30 40155 H 3573.08 -1.5258 0.338978 0
M  V30 40156 H 3573.81 -2.57898 -1.9662 0
M  V30 40157 H 3573.6 -3.85236 -0.730449 0
M  V30 40158 H 3575.09 -3.80555 -1.71952 0
M  V30 40159 N 3575.52 -0.31877 -1.54343 0
M  V30 40160 C 3576.47 0.549357 -2.24167 0
M  V30 40161 C 3577.44 1.11548 -1.2307 0
M  V30 40162 O 3578.63 1.15671 -1.51739 0
M  V30 40163 C 3575.77 1.70673 -2.99941 0
M  V30 40164 C 3574.88 1.1703 -4.15846 0
M  V30 40165 C 3574.01 2.29297 -4.79162 0
M  V30 40166 C 3573.05 1.72878 -5.8718 0
M  V30 40167 N 3572.19 2.78788 -6.44377 0
M  V30 40168 H 3577.03 -0.0526542 -2.97953 0
M  V30 40169 H 3574.57 -0.0377566 -1.47052 0
M  V30 40170 H 3576.52 2.38771 -3.42117 0
M  V30 40171 H 3575.15 2.2801 -2.28498 0
M  V30 40172 H 3574.21 0.381015 -3.78487 0
M  V30 40173 H 3575.52 0.717421 -4.93614 0
M  V30 40174 H 3574.67 3.05308 -5.24282 0
M  V30 40175 H 3573.41 2.77918 -4.00765 0
M  V30 40176 H 3572.42 0.953618 -5.41467 0
M  V30 40177 H 3573.64 1.25138 -6.67471 0
M  V30 40178 H 3571.59 3.2671 -5.68855 0
M  V30 40179 H 3571.5 2.38049 -7.17543 0
M  V30 40180 H 3572.77 3.54643 -6.94153 0
M  V30 40181 N 3577 1.5753 -0.0468419 0
M  V30 40182 C 3577.93 2.14308 0.927054 0
M  V30 40183 C 3578.91 1.06364 1.32743 0
M  V30 40184 O 3580.1 1.34284 1.40291 0
M  V30 40185 C 3577.23 2.68455 2.20338 0
M  V30 40186 C 3576.18 3.81344 1.94321 0
M  V30 40187 C 3575.51 4.21991 3.28371 0
M  V30 40188 C 3576.81 5.06668 1.26826 0
M  V30 40189 H 3578.5 2.95936 0.454147 0
M  V30 40190 H 3576.05 1.42356 0.217004 0
M  V30 40191 H 3578 3.06815 2.88865 0
M  V30 40192 H 3576.72 1.84014 2.69827 0
M  V30 40193 H 3575.38 3.43451 1.28208 0
M  V30 40194 H 3575.03 3.34506 3.75653 0
M  V30 40195 H 3574.73 4.98074 3.11763 0
M  V30 40196 H 3576.26 4.62947 3.98136 0
M  V30 40197 H 3577.67 5.42501 1.8538 0
M  V30 40198 H 3576.07 5.87865 1.20558 0
M  V30 40199 H 3577.14 4.84287 0.243674 0
M  V30 40200 N 3578.48 -0.226499 1.55964 0
M  V30 40201 C 3579.41 -1.30401 1.88489 0
M  V30 40202 C 3580.43 -1.43291 0.772748 0
M  V30 40203 O 3581.61 -1.44277 1.05102 0
M  V30 40204 C 3578.71 -2.68023 2.07405 0
M  V30 40205 C 3577.89 -2.77143 3.38394 0
M  V30 40206 C 3576.95 -3.95746 3.46802 0
M  V30 40207 O 3575.97 -3.84316 4.19869 0
M  V30 40208 N 3577.17 -5.09832 2.77582 0
M  V30 40209 H 3579.94 -1.02828 2.81508 0
M  V30 40210 H 3577.5 -0.416553 1.56449 0
M  V30 40211 H 3579.49 -3.45738 2.1035 0
M  V30 40212 H 3578.06 -2.88218 1.21035 0
M  V30 40213 H 3577.28 -1.85944 3.4759 0
M  V30 40214 H 3578.57 -2.80202 4.24693 0
M  V30 40215 H 3577.97 -5.22013 2.17988 0
M  V30 40216 H 3576.53 -5.85607 2.86195 0
M  V30 40217 N 3579.96 -1.4969 -0.493005 0
M  V30 40218 C 3580.92 -1.66423 -1.57595 0
M  V30 40219 C 3581.92 -0.535695 -1.51614 0
M  V30 40220 O 3583.11 -0.80231 -1.54624 0
M  V30 40221 C 3580.24 -1.66906 -2.97246 0
M  V30 40222 H 3581.44 -2.6302 -1.44085 0
M  V30 40223 H 3578.99 -1.38842 -0.717822 0
M  V30 40224 H 3579.72 -0.719219 -3.16224 0
M  V30 40225 H 3579.51 -2.4887 -3.02995 0
M  V30 40226 H 3581 -1.8188 -3.75911 0
M  V30 40227 N 3581.44 0.744631 -1.38899 0
M  V30 40228 C 3582.38 1.85853 -1.36848 0
M  V30 40229 C 3583.35 1.64505 -0.229629 0
M  V30 40230 O 3584.54 1.86046 -0.423253 0
M  V30 40231 C 3581.68 3.23258 -1.20824 0
M  V30 40232 C 3580.79 3.56376 -2.44172 0
M  V30 40233 C 3579.93 4.83132 -2.2081 0
M  V30 40234 C 3578.97 5.09064 -3.39883 0
M  V30 40235 N 3578.1 6.27019 -3.15899 0
M  V30 40236 H 3582.94 1.86941 -2.32071 0
M  V30 40237 H 3580.48 0.913591 -1.15291 0
M  V30 40238 H 3582.44 4.02561 -1.09547 0
M  V30 40239 H 3581.07 3.21473 -0.292352 0
M  V30 40240 H 3580.12 2.71848 -2.66088 0
M  V30 40241 H 3581.43 3.71463 -3.32892 0
M  V30 40242 H 3580.59 5.70396 -2.0672 0
M  V30 40243 H 3579.32 4.70201 -1.2947 0
M  V30 40244 H 3578.33 4.20265 -3.54482 0
M  V30 40245 H 3579.55 5.23886 -4.32111 0
M  V30 40246 H 3577.5 6.15394 -2.27214 0
M  V30 40247 H 3577.42 6.42648 -3.98171 0
M  V30 40248 H 3578.69 7.17147 -3.05483 0
M  V30 40249 N 3582.91 1.23916 0.973785 0
M  V30 40250 C 3584.16 1.07681 1.7185 0
M  V30 40251 C 3584.49 -0.384392 1.90358 0
M  V30 40252 O 3583.77 -1.28433 1.46066 0
M  V30 40253 C 3584.05 1.81031 3.11287 0
M  V30 40254 C 3583.9 3.34865 3.00309 0
M  V30 40255 C 3585.22 1.57812 4.10833 0
M  V30 40256 H 3582.34 0.392575 0.623742 0
M  V30 40257 H 3584.98 1.52506 1.13322 0
M  V30 40258 H 3583.13 1.42929 3.61253 0
M  V30 40259 H 3584.81 3.82529 2.57817 0
M  V30 40260 H 3583.05 3.63558 2.36661 0
M  V30 40261 H 3583.72 3.81383 3.99063 0
M  V30 40262 H 3586.2 1.90945 3.69701 0
M  V30 40263 H 3585.07 2.116 5.06475 0
M  V30 40264 H 3585.33 0.514971 4.3909 0
M  V30 40265 N 3584.39 -1.17355 1.05193 0
M  V30 40266 C 3585.34 -2.19321 0.623085 0
M  V30 40267 C 3586.33 -1.57257 -0.340439 0
M  V30 40268 O 3587.52 -1.76296 -0.157667 0
M  V30 40269 C 3584.65 -3.433 -0.000671545 0
M  V30 40270 C 3583.73 -4.12463 0.98668 0
M  V30 40271 N 3584.12 -4.5745 2.15808 0
M  V30 40272 C 3582.42 -4.38487 0.81516 0
M  V30 40273 C 3583.12 -5.10823 2.78271 0
M  V30 40274 N 3582.1 -5.03027 2.06069 0
M  V30 40275 H 3585.9 -2.51808 1.51559 0
M  V30 40276 H 3583.42 -1.33685 0.922072 0
M  V30 40277 H 3585.41 -4.15626 -0.325665 0
M  V30 40278 H 3584.07 -3.12305 -0.888572 0
M  V30 40279 H 3585.08 -4.51537 2.53642 0
M  V30 40280 H 3581.76 -4.17494 -0.0216916 0
M  V30 40281 H 3583.15 -5.55753 3.77609 0
M  V30 40282 N 3585.87 -0.832954 -1.3379 0
M  V30 40283 C 3586.78 -0.264209 -2.33107 0
M  V30 40284 C 3587.8 0.606666 -1.63081 0
M  V30 40285 O 3588.97 0.51219 -1.94778 0
M  V30 40286 C 3586.04 0.556255 -3.42209 0
M  V30 40287 C 3585.1 -0.338198 -4.27966 0
M  V30 40288 C 3584.33 0.443203 -5.31857 0
M  V30 40289 O 3584.55 1.6755 -5.45237 0
M  V30 40290 O 3583.49 -0.179705 -6.01632 0
M  V30 40291 H 3587.31 -1.0865 -2.836 0
M  V30 40292 H 3584.9 -0.595331 -1.37026 0
M  V30 40293 H 3586.78 1.0227 -4.08802 0
M  V30 40294 H 3585.46 1.3557 -2.93943 0
M  V30 40295 H 3584.36 -0.852357 -3.6426 0
M  V30 40296 H 3585.7 -1.10226 -4.79699 0
M  V30 40297 N 3587.35 1.46186 -0.588837 0
M  V30 40298 C 3588.57 2.07243 -0.0806936 0
M  V30 40299 C 3589 1.43371 1.21764 0
M  V30 40300 O 3588.36 0.519671 1.73693 0
M  V30 40301 C 3588.4 3.60541 0.0652036 0
M  V30 40302 O 3587.51 3.96895 1.12019 0
M  V30 40303 H 3586.85 0.660754 -0.0655739 0
M  V30 40304 H 3589.38 1.87731 -0.813522 0
M  V30 40305 H 3589.39 4.07109 0.269422 0
M  V30 40306 H 3588.06 4.0642 -0.882911 0
M  V30 40307 H 3586.64 3.62027 0.893936 0
M  V30 40308 N 3588.83 0.32695 1.54171 0
M  V30 40309 C 3589.77 -0.552956 2.25932 0
M  V30 40310 C 3590.77 -1.11576 1.27465 0
M  V30 40311 O 3591.97 -1.06341 1.4523 0
M  V30 40312 H 3588.35 -0.196975 0.725744 0
M  V30 40313 H 3590.32 0.0745128 2.98307 0
M  V30 40314 C 3589.07 -1.70051 3.03279 0
M  V30 40315 H 3588.39 -1.2767 3.78867 0
M  V30 40316 H 3589.83 -2.2917 3.56731 0
M  V30 40317 C 3588.29 -2.62013 2.1178 0
M  V30 40318 O 3588.82 -3.63819 1.70289 0
M  V30 40319 N 3587.03 -2.30323 1.77199 0
M  V30 40320 H 3586.57 -1.47576 2.11137 0
M  V30 40321 H 3586.53 -2.92115 1.16258 0
M  V30 40322 N 3590.3 -1.57503 0.0551955 0
M  V30 40323 C 3591.25 -2.11766 -0.91781 0
M  V30 40324 C 3592.22 -1.02601 -1.30622 0
M  V30 40325 O 3593.41 -1.30172 -1.39499 0
M  V30 40326 C 3590.55 -2.6704 -2.18595 0
M  V30 40327 C 3589.66 -3.90304 -1.85166 0
M  V30 40328 C 3588.79 -4.33879 -3.06467 0
M  V30 40329 C 3587.83 -5.49834 -2.68979 0
M  V30 40330 N 3586.97 -5.88443 -3.82987 0
M  V30 40331 H 3591.81 -2.9461 -0.448184 0
M  V30 40332 H 3589.35 -1.45599 -0.209594 0
M  V30 40333 H 3591.31 -2.97188 -2.92806 0
M  V30 40334 H 3589.94 -1.86987 -2.63127 0
M  V30 40335 H 3588.99 -3.66723 -1.01087 0
M  V30 40336 H 3590.3 -4.7457 -1.53574 0
M  V30 40337 H 3589.45 -4.65601 -3.88974 0
M  V30 40338 H 3588.19 -3.48433 -3.41241 0
M  V30 40339 H 3587.2 -5.1778 -1.8489 0
M  V30 40340 H 3588.42 -6.36998 -2.35393 0
M  V30 40341 H 3586.37 -5.0595 -4.17553 0
M  V30 40342 H 3586.29 -6.6741 -3.55106 0
M  V30 40343 H 3587.55 -6.24782 -4.6612 0
M  V30 40344 N 3591.78 0.218225 -1.56082 0
M  V30 40345 C 3593.02 0.949156 -1.81026 0
M  V30 40346 C 3593.39 1.81397 -0.62921 0
M  V30 40347 O 3594.59 2.5789 -0.758027 0
M  V30 40348 C 3592.86 1.76316 -3.10882 0
M  V30 40349 S 3594.42 2.54928 -3.57152 0
M  V30 40350 H 3591.24 0.318774 -0.635535 0
M  V30 40351 H 3593.84 0.214449 -1.9432 0
M  V30 40352 H 3592.54 1.11804 -3.94877 0
M  V30 40353 H 3592.07 2.54011 -3.00403 0
M  V30 40354 H 3594.09 3.78592 -3.20753 0
M  V30 40355 N 3593.26 1.4995 0.485059 0
M  V30 40356 C 3594.19 1.70713 1.59309 0
M  V30 40357 C 3595.17 0.555924 1.60759 0
M  V30 40358 O 3596.36 0.793535 1.77247 0
M  V30 40359 C 3593.49 1.78839 2.97714 0
M  V30 40360 C 3592.44 2.93907 3.11131 0
M  V30 40361 C 3591.77 2.87162 4.51046 0
M  V30 40362 C 3593.07 4.34622 2.89657 0
M  V30 40363 H 3594.76 2.63483 1.42187 0
M  V30 40364 H 3592.31 1.26794 0.682598 0
M  V30 40365 H 3594.26 1.9195 3.75144 0
M  V30 40366 H 3592.98 0.8268 3.15961 0
M  V30 40367 H 3591.64 2.80425 2.3613 0
M  V30 40368 H 3591.29 1.88878 4.66191 0
M  V30 40369 H 3590.99 3.64402 4.60961 0
M  V30 40370 H 3592.52 3.02302 5.30515 0
M  V30 40371 H 3593.93 4.48703 3.56845 0
M  V30 40372 H 3592.33 5.13206 3.1103 0
M  V30 40373 H 3593.4 4.4796 1.85634 0
M  V30 40374 N 3594.74 -0.737255 1.39292 0
M  V30 40375 C 3595.65 -1.88172 1.40101 0
M  V30 40376 C 3596.67 -1.71462 0.296083 0
M  V30 40377 O 3597.84 -1.94104 0.537187 0
M  V30 40378 C 3594.91 -3.23737 1.24077 0
M  V30 40379 C 3593.97 -3.52857 2.44521 0
M  V30 40380 C 3593.2 -4.81954 2.29251 0
M  V30 40381 O 3593.42 -5.5551 1.2948 0
M  V30 40382 O 3592.36 -5.10921 3.18187 0
M  V30 40383 H 3596.18 -1.90445 2.36568 0
M  V30 40384 H 3593.77 -0.884765 1.20384 0
M  V30 40385 H 3595.65 -4.04756 1.17264 0
M  V30 40386 H 3594.33 -3.22241 0.307037 0
M  V30 40387 H 3593.23 -2.71934 2.5691 0
M  V30 40388 H 3594.57 -3.59131 3.3658 0
M  V30 40389 N 3596.22 -1.24431 -0.967199 0
M  V30 40390 C 3597.16 -1.03713 -2.06185 0
M  V30 40391 C 3598.13 0.0497373 -1.66026 0
M  V30 40392 O 3599.32 -0.104985 -1.90511 0
M  V30 40393 C 3596.46 -0.648537 -3.38951 0
M  V30 40394 C 3595.57 -1.80893 -3.92303 0
M  V30 40395 C 3594.71 -1.36588 -5.13339 0
M  V30 40396 C 3593.75 -2.49619 -5.58889 0
M  V30 40397 N 3592.88 -2.06177 -6.71145 0
M  V30 40398 H 3597.72 -1.97403 -2.2324 0
M  V30 40399 H 3595.26 -0.983212 -1.09414 0
M  V30 40400 H 3597.22 -0.404263 -4.15237 0
M  V30 40401 H 3595.85 0.251364 -3.2182 0
M  V30 40402 H 3594.9 -2.16686 -3.12652 0
M  V30 40403 H 3596.21 -2.65822 -4.22066 0
M  V30 40404 H 3595.37 -1.08051 -5.97001 0
M  V30 40405 H 3594.11 -0.487137 -4.85261 0
M  V30 40406 H 3593.11 -2.78915 -4.738 0
M  V30 40407 H 3594.34 -3.38051 -5.88981 0
M  V30 40408 H 3592.28 -1.20702 -6.448 0
M  V30 40409 H 3592.2 -2.84659 -7.00361 0
M  V30 40410 H 3593.47 -1.80782 -7.58247 0
M  V30 40411 N 3597.7 1.16795 -1.05814 0
M  V30 40412 C 3598.92 1.91118 -0.792553 0
M  V30 40413 C 3599.34 1.77166 0.652518 0
M  V30 40414 O 3598.7 1.11302 1.44631 0
M  V30 40415 C 3598.75 3.41982 -1.17178 0
M  V30 40416 O 3598.47 3.55512 -2.56014 0
M  V30 40417 C 3599.97 4.33365 -0.933239 0
M  V30 40418 H 3597.19 0.606197 -0.287691 0
M  V30 40419 H 3599.73 1.48073 -1.41049 0
M  V30 40420 H 3597.89 3.82749 -0.598481 0
M  V30 40421 H 3598.3 4.49028 -2.71061 0
M  V30 40422 H 3599.78 5.37701 -1.24826 0
M  V30 40423 H 3600.25 4.39004 0.131268 0
M  V30 40424 H 3600.86 3.9832 -1.49069 0
M  V30 40425 N 3599.17 0.840037 1.33346 0
M  V30 40426 C 3600.12 0.272088 2.29191 0
M  V30 40427 C 3601.09 -0.612759 1.54384 0
M  V30 40428 O 3602.28 -0.55078 1.82677 0
M  V30 40429 C 3599.42 -0.545841 3.40756 0
M  V30 40430 C 3598.53 0.363159 4.30471 0
M  V30 40431 C 3597.66 -0.465985 5.29152 0
M  V30 40432 C 3596.7 0.441332 6.10507 0
M  V30 40433 N 3595.84 -0.349754 7.01228 0
M  V30 40434 H 3600.68 1.09472 2.77164 0
M  V30 40435 H 3598.22 0.551308 1.36378 0
M  V30 40436 H 3600.17 -1.03555 4.04144 0
M  V30 40437 H 3598.8 -1.33343 2.93972 0
M  V30 40438 H 3597.86 0.971183 3.67794 0
M  V30 40439 H 3599.17 1.0601 4.87405 0
M  V30 40440 H 3598.32 -1.01947 5.98073 0
M  V30 40441 H 3597.06 -1.19636 4.72799 0
M  V30 40442 H 3596.07 1.00682 5.40503 0
M  V30 40443 H 3597.29 1.17009 6.68944 0
M  V30 40444 H 3595.24 -1.06349 6.47322 0
M  V30 40445 H 3595.15 0.28845 7.5545 0
M  V30 40446 H 3596.42 -0.885437 7.74455 0
M  V30 40447 N 3600.65 -1.45872 0.596582 0
M  V30 40448 C 3601.56 -2.34235 -0.130791 0
M  V30 40449 C 3602.58 -1.50586 -0.871779 0
M  V30 40450 O 3603.75 -1.83418 -0.831844 0
M  V30 40451 C 3600.82 -3.28018 -1.12273 0
M  V30 40452 C 3599.88 -4.27571 -0.384907 0
M  V30 40453 C 3599.11 -5.16873 -1.3296 0
M  V30 40454 O 3599.34 -5.0938 -2.56687 0
M  V30 40455 O 3598.27 -5.96113 -0.832636 0
M  V30 40456 H 3602.1 -2.97813 0.595083 0
M  V30 40457 H 3599.68 -1.45074 0.356898 0
M  V30 40458 H 3601.56 -3.85837 -1.69434 0
M  V30 40459 H 3600.24 -2.67019 -1.82983 0
M  V30 40460 H 3599.14 -3.73399 0.228882 0
M  V30 40461 H 3600.48 -4.91394 0.281485 0
M  V30 40462 N 3602.13 -0.335122 -1.53996 0
M  V30 40463 C 3603.36 0.265594 -2.05188 0
M  V30 40464 C 3603.77 1.44879 -1.2106 0
M  V30 40465 O 3603.13 1.80862 -0.243951 0
M  V30 40466 C 3603.18 0.688842 -3.54876 0
M  V30 40467 O 3602.9 -0.447293 -4.35811 0
M  V30 40468 C 3604.4 1.35116 -4.22207 0
M  V30 40469 H 3601.62 0.0527688 -0.668922 0
M  V30 40470 H 3604.17 -0.484665 -1.98674 0
M  V30 40471 H 3602.32 1.38906 -3.61641 0
M  V30 40472 H 3602.74 -0.111588 -5.24381 0
M  V30 40473 H 3604.21 1.59814 -5.28359 0
M  V30 40474 H 3604.69 2.30209 -3.74033 0
M  V30 40475 H 3605.29 0.693209 -4.19613 0
M  V30 40476 N 3603.61 1.57472 -0.0635475 0
M  V30 40477 C 3604.86 1.9235 0.606975 0
M  V30 40478 C 3605.17 0.944836 1.71266 0
M  V30 40479 O 3606.38 1.18613 2.44219 0
M  V30 40480 C 3604.83 3.41668 1.13099 0
M  V30 40481 C 3604.44 4.47964 0.0567468 0
M  V30 40482 C 3606.18 3.8556 1.77605 0
M  V30 40483 C 3604.09 5.88406 0.59434 0
M  V30 40484 H 3603.02 0.717906 0.230493 0
M  V30 40485 H 3605.67 1.83007 -0.134445 0
M  V30 40486 H 3604.05 3.46057 1.92511 0
M  V30 40487 H 3605.23 4.5518 -0.717452 0
M  V30 40488 H 3603.54 4.13488 -0.491589 0
M  V30 40489 H 3606.14 4.87865 2.18843 0
M  V30 40490 H 3606.48 3.22478 2.63274 0
M  V30 40491 H 3607.02 3.8374 1.04827 0
M  V30 40492 H 3603.75 6.55114 -0.225008 0
M  V30 40493 H 3603.27 5.84726 1.33625 0
M  V30 40494 H 3604.95 6.38035 1.07335 0
M  V30 40495 N 3605.09 -0.209945 1.56195 0
M  V30 40496 C 3606.02 -1.28395 1.89862 0
M  V30 40497 C 3607.03 -1.42464 0.787903 0
M  V30 40498 O 3608.22 -1.43154 1.06626 0
M  V30 40499 C 3605.32 -2.65808 2.10236 0
M  V30 40500 C 3604.49 -2.73539 3.41314 0
M  V30 40501 C 3603.55 -3.92046 3.5098 0
M  V30 40502 O 3602.58 -3.79841 4.23921 0
M  V30 40503 N 3603.78 -5.06859 2.82974 0
M  V30 40504 H 3606.54 -0.998361 2.82582 0
M  V30 40505 H 3604.11 -0.399936 1.56883 0
M  V30 40506 H 3606.1 -3.43488 2.14005 0
M  V30 40507 H 3604.67 -2.86918 1.24085 0
M  V30 40508 H 3603.89 -1.82247 3.49542 0
M  V30 40509 H 3605.18 -2.75682 4.27641 0
M  V30 40510 H 3604.57 -5.19672 2.23513 0
M  V30 40511 H 3603.13 -5.82539 2.9239 0
M  V30 40512 N 3606.56 -1.50205 -0.4771 0
M  V30 40513 C 3607.81 -1.61132 -1.23144 0
M  V30 40514 C 3608.14 -0.307943 -1.91743 0
M  V30 40515 O 3607.42 0.690191 -1.81842 0
M  V30 40516 C 3607.7 -2.78742 -2.2798 0
M  V30 40517 C 3607.55 -4.18944 -1.63725 0
M  V30 40518 C 3608.87 -2.91926 -3.29344 0
M  V30 40519 H 3605.99 -0.586466 -0.446348 0
M  V30 40520 H 3608.63 -1.82571 -0.526088 0
M  V30 40521 H 3606.78 -2.60593 -2.88138 0
M  V30 40522 H 3608.46 -4.48669 -1.07211 0
M  V30 40523 H 3606.7 -4.23481 -0.940559 0
M  V30 40524 H 3607.37 -4.97154 -2.39879 0
M  V30 40525 H 3609.85 -3.08521 -2.79202 0
M  V30 40526 H 3608.72 -3.75852 -4.00033 0
M  V30 40527 H 3608.98 -2.02284 -3.93107 0
M  V30 40528 N 3608.04 0.729857 -1.39681 0
M  V30 40529 C 3608.97 1.85702 -1.41552 0
M  V30 40530 C 3609.95 1.67809 -0.278216 0
M  V30 40531 O 3611.14 1.88052 -0.484782 0
M  V30 40532 C 3608.27 3.23508 -1.26333 0
M  V30 40533 C 3607.22 3.56047 -2.37517 0
M  V30 40534 C 3606.55 4.92845 -2.07384 0
M  V30 40535 C 3607.85 3.58496 -3.7984 0
M  V30 40536 H 3609.54 1.84393 -2.3588 0
M  V30 40537 H 3607.09 0.885727 -1.13538 0
M  V30 40538 H 3609.04 4.0204 -1.26261 0
M  V30 40539 H 3607.77 3.25356 -0.284754 0
M  V30 40540 H 3606.42 2.79848 -2.36814 0
M  V30 40541 H 3606.07 4.91279 -1.07952 0
M  V30 40542 H 3605.77 5.15583 -2.81864 0
M  V30 40543 H 3607.3 5.73728 -2.08971 0
M  V30 40544 H 3608.71 4.27094 -3.82444 0
M  V30 40545 H 3607.11 3.92755 -4.53722 0
M  V30 40546 H 3608.18 2.58187 -4.10448 0
M  V30 40547 N 3609.52 1.24942 0.960587 0
M  V30 40548 C 3610.45 1.00592 2.05946 0
M  V30 40549 C 3611.47 -0.0270975 1.62777 0
M  V30 40550 O 3612.65 0.21077 1.77251 0
M  V30 40551 C 3609.75 0.497579 3.35227 0
M  V30 40552 C 3608.93 1.59538 4.07267 0
M  V30 40553 C 3607.99 1.08845 5.1482 0
M  V30 40554 O 3607.01 1.78162 5.40599 0
M  V30 40555 N 3608.21 -0.0734046 5.80454 0
M  V30 40556 H 3610.98 1.95208 2.27407 0
M  V30 40557 H 3608.54 1.16067 1.12872 0
M  V30 40558 H 3610.53 0.14305 4.04447 0
M  V30 40559 H 3609.1 -0.354491 3.10584 0
M  V30 40560 H 3608.32 2.12177 3.32227 0
M  V30 40561 H 3609.61 2.33307 4.52157 0
M  V30 40562 H 3609.01 -0.652749 5.61921 0
M  V30 40563 H 3607.57 -0.369017 6.50755 0
M  V30 40564 N 3611 -1.16233 1.06432 0
M  V30 40565 C 3612.28 -1.82825 0.695288 0
M  V30 40566 C 3612.66 -1.94388 -0.823207 0
M  V30 40567 O 3612 -1.48807 -1.73404 0
M  V30 40568 C 3612.21 -3.19739 1.39886 0
M  V30 40569 C 3613.56 -3.95495 1.54496 0
M  V30 40570 O 3614.59 -3.29261 1.35888 0
M  V30 40571 O 3613.44 -5.14222 1.85036 0
M  V30 40572 H 3610.54 -0.789472 0.246299 0
M  V30 40573 H 3613.08 -1.23423 1.16468 0
M  V30 40574 H 3611.86 -3.06366 2.43424 0
M  V30 40575 H 3611.48 -3.86818 0.919638 0
M  V30 40576 N 3612.48 -0.847097 -1.32899 0
M  V30 40577 C 3613.42 -0.284239 -2.29043 0
M  V30 40578 C 3614.39 0.604564 -1.54707 0
M  V30 40579 O 3615.58 0.541084 -1.82967 0
M  V30 40580 C 3612.72 0.527762 -3.41041 0
M  V30 40581 C 3611.83 -0.385983 -4.30272 0
M  V30 40582 C 3610.97 0.437916 -5.29392 0
M  V30 40583 C 3610.01 -0.473703 -6.10264 0
M  V30 40584 N 3609.14 0.312561 -7.01404 0
M  V30 40585 H 3613.98 -1.1094 -2.7658 0
M  V30 40586 H 3611.52 -0.558532 -1.36084 0
M  V30 40587 H 3613.48 1.0141 -4.04687 0
M  V30 40588 H 3612.11 1.31782 -2.94675 0
M  V30 40589 H 3611.16 -0.990675 -3.67273 0
M  V30 40590 H 3612.47 -1.08594 -4.86836 0
M  V30 40591 H 3611.63 0.987737 -5.98606 0
M  V30 40592 H 3610.36 1.17127 -4.73426 0
M  V30 40593 H 3609.37 -1.03547 -5.39961 0
M  V30 40594 H 3610.59 -1.20555 -6.68314 0
M  V30 40595 H 3608.54 1.02915 -6.47877 0
M  V30 40596 H 3608.46 -0.328509 -7.55286 0
M  V30 40597 H 3609.73 0.844353 -7.74913 0
M  V30 40598 N 3613.95 1.45554 -0.604309 0
M  V30 40599 C 3615.2 2.02561 -0.0983672 0
M  V30 40600 C 3615.53 1.47214 1.26656 0
M  V30 40601 O 3614.81 0.645551 1.83475 0
M  V30 40602 C 3615.09 3.60057 -0.0558981 0
M  V30 40603 C 3614.94 4.25745 -1.45126 0
M  V30 40604 C 3616.26 4.35515 0.633631 0
M  V30 40605 H 3613.38 0.73606 -0.03722 0
M  V30 40606 H 3616.02 1.73446 -0.775653 0
M  V30 40607 H 3614.17 3.84992 0.520868 0
M  V30 40608 H 3615.85 4.12004 -2.07485 0
M  V30 40609 H 3614.09 3.84272 -2.0129 0
M  V30 40610 H 3614.76 5.34631 -1.37382 0
M  V30 40611 H 3617.24 4.15853 0.143428 0
M  V30 40612 H 3616.11 5.45244 0.632442 0
M  V30 40613 H 3616.37 4.08146 1.6991 0
M  V30 40614 N 3615.43 0.343284 1.53816 0
M  V30 40615 C 3616.4 -0.501122 2.23655 0
M  V30 40616 C 3617.4 -1.02779 1.23666 0
M  V30 40617 O 3618.59 -0.917077 1.48106 0
M  V30 40618 C 3615.72 -1.69806 2.95599 0
M  V30 40619 H 3616.91 0.109679 2.99699 0
M  V30 40620 H 3614.46 0.0946285 1.56013 0
M  V30 40621 H 3615.2 -2.34757 2.23741 0
M  V30 40622 H 3614.98 -1.32762 3.6894 0
M  V30 40623 H 3616.47 -2.29699 3.48752 0
M  V30 40624 N 3616.91 -1.57436 0.0718977 0
M  V30 40625 C 3617.84 -2.15756 -0.892842 0
M  V30 40626 C 3618.82 -1.08463 -1.31034 0
M  V30 40627 O 3620.01 -1.36499 -1.38137 0
M  V30 40628 C 3617.14 -2.71927 -2.16039 0
M  V30 40629 C 3616.09 -3.84387 -1.8823 0
M  V30 40630 C 3615.42 -4.27162 -3.21616 0
M  V30 40631 C 3616.72 -5.08622 -1.18749 0
M  V30 40632 H 3618.41 -2.96621 -0.407009 0
M  V30 40633 H 3615.96 -1.42683 -0.194329 0
M  V30 40634 H 3617.91 -3.11371 -2.83947 0
M  V30 40635 H 3616.63 -1.88283 -2.66865 0
M  V30 40636 H 3615.29 -3.45447 -1.22728 0
M  V30 40637 H 3614.94 -3.4044 -3.70283 0
M  V30 40638 H 3614.64 -5.02971 -3.038 0
M  V30 40639 H 3616.16 -4.69222 -3.90721 0
M  V30 40640 H 3617.58 -5.45381 -1.76726 0
M  V30 40641 H 3615.98 -5.89709 -1.11191 0
M  V30 40642 H 3617.05 -4.84614 -0.166597 0
M  V30 40643 N 3618.39 0.201658 -1.56305 0
M  V30 40644 C 3619.64 0.921238 -1.79882 0
M  V30 40645 C 3619.96 1.84064 -0.643841 0
M  V30 40646 O 3619.23 1.92958 0.338205 0
M  V30 40647 H 3617.81 0.343164 -0.663512 0
M  V30 40648 H 3620.47 0.208741 -1.93779 0
M  V30 40649 H 3619.57 1.51626 -2.72793 0
M  V30 40650 N 3619.87 1.50456 0.469128 0
M  V30 40651 C 3620.83 1.68909 1.54927 0
M  V30 40652 C 3621.83 0.559747 1.50743 0
M  V30 40653 O 3623.02 0.826808 1.53328 0
M  V30 40654 C 3620.15 1.71614 2.94553 0
M  V30 40655 H 3621.34 2.65279 1.39883 0
M  V30 40656 H 3618.9 1.39966 0.695643 0
M  V30 40657 H 3619.63 0.769437 3.1504 0
M  V30 40658 H 3619.42 2.53659 2.98997 0
M  V30 40659 H 3620.91 1.87838 3.7297 0
M  V30 40660 N 3621.34 -0.722439 1.40066 0
M  V30 40661 C 3622.29 -1.83652 1.39788 0
M  V30 40662 C 3623.26 -1.64119 0.255771 0
M  V30 40663 O 3624.45 -1.85349 0.452798 0
M  V30 40664 C 3621.59 -3.21295 1.25951 0
M  V30 40665 C 3620.7 -3.52447 2.49811 0
M  V30 40666 C 3619.83 -4.79558 2.28468 0
M  V30 40667 C 3618.87 -5.03592 3.47939 0
M  V30 40668 N 3618.01 -6.21914 3.25834 0
M  V30 40669 H 3622.85 -1.83225 2.35016 0
M  V30 40670 H 3620.39 -0.895134 1.16729 0
M  V30 40671 H 3622.35 -4.00767 1.15938 0
M  V30 40672 H 3620.98 -3.20968 0.343458 0
M  V30 40673 H 3620.03 -2.6758 2.70379 0
M  V30 40674 H 3621.34 -3.6612 3.38759 0
M  V30 40675 H 3620.49 -5.67035 2.15768 0
M  V30 40676 H 3619.23 -4.68082 1.36934 0
M  V30 40677 H 3618.24 -4.14572 3.61123 0
M  V30 40678 H 3619.46 -5.16946 4.40391 0
M  V30 40679 H 3617.41 -6.11701 2.36976 0
M  V30 40680 H 3617.33 -6.36232 4.08345 0
M  V30 40681 H 3618.59 -7.12197 3.16854 0
M  V30 40682 N 3622.82 -1.2545 -0.953947 0
M  V30 40683 C 3624.23 -1.09337 -1.51335 0
M  V30 40684 C 3624.59 0.330664 -1.93394 0
M  V30 40685 O 3623.71 1.22071 -1.78683 0
M  V30 40686 C 3624.31 -1.97862 -2.7502 0
M  V30 40687 C 3622.86 -1.85933 -3.2727 0
M  V30 40688 C 3622.01 -1.91972 -2.00105 0
M  V30 40689 H 3624.96 -1.38726 -0.770771 0
M  V30 40690 H 3624.98 -1.519 -3.48865 0
M  V30 40691 H 3624.5 -3.01498 -2.44378 0
M  V30 40692 H 3622.6 -0.851831 -3.62732 0
M  V30 40693 H 3622.71 -2.7078 -3.9524 0
M  V30 40694 H 3621.07 -1.35866 -2.15436 0
M  V30 40695 H 3621.86 -2.97214 -1.7181 0
M  V30 40696 N 3624.3 1.15667 -1.07047 0
M  V30 40697 C 3625.53 1.89991 -0.811601 0
M  V30 40698 C 3625.94 1.78097 0.638596 0
M  V30 40699 O 3625.28 1.12849 1.44951 0
M  V30 40700 C 3625.34 3.41056 -1.13671 0
M  V30 40701 C 3625.01 3.76735 -2.58688 0
M  V30 40702 C 3626.01 3.78017 -3.5693 0
M  V30 40703 C 3623.69 4.07137 -2.94185 0
M  V30 40704 C 3625.68 4.092 -4.88706 0
M  V30 40705 C 3623.37 4.37985 -4.2616 0
M  V30 40706 C 3624.37 4.38998 -5.2323 0
M  V30 40707 O 3624.06 4.69109 -6.52834 0
M  V30 40708 H 3623.79 0.60908 -0.293254 0
M  V30 40709 H 3626.34 1.475 -1.42944 0
M  V30 40710 H 3624.57 3.83932 -0.46183 0
M  V30 40711 H 3626.26 3.96666 -0.860878 0
M  V30 40712 H 3627.03 3.54633 -3.30848 0
M  V30 40713 H 3622.91 4.05509 -2.19279 0
M  V30 40714 H 3626.45 4.09906 -5.64467 0
M  V30 40715 H 3622.35 4.60836 -4.51996 0
M  V30 40716 H 3623.12 4.86887 -6.57939 0
M  V30 40717 N 3625.78 0.854133 1.32447 0
M  V30 40718 C 3626.73 0.296382 2.28889 0
M  V30 40719 C 3627.7 -0.596351 1.55025 0
M  V30 40720 O 3628.88 -0.531373 1.83251 0
M  V30 40721 C 3626.02 -0.509669 3.41316 0
M  V30 40722 C 3625.13 0.408796 4.30061 0
M  V30 40723 C 3624.27 -0.409835 5.29617 0
M  V30 40724 C 3623.31 0.50606 6.10004 0
M  V30 40725 N 3622.45 -0.27536 7.0156 0
M  V30 40726 H 3627.29 1.12405 2.75987 0
M  V30 40727 H 3624.82 0.565741 1.35786 0
M  V30 40728 H 3626.78 -0.992625 4.05219 0
M  V30 40729 H 3625.41 -1.30217 2.9537 0
M  V30 40730 H 3624.46 1.01014 3.66743 0
M  V30 40731 H 3625.77 1.11174 4.86253 0
M  V30 40732 H 3624.93 -0.955978 5.99121 0
M  V30 40733 H 3623.67 -1.14615 4.74041 0
M  V30 40734 H 3622.67 1.06409 5.39404 0
M  V30 40735 H 3623.9 1.24097 6.67665 0
M  V30 40736 H 3621.84 -0.994773 6.48414 0
M  V30 40737 H 3621.76 0.368559 7.55101 0
M  V30 40738 H 3623.03 -0.803245 7.7535 0
M  V30 40739 N 3627.26 -1.45231 0.61202 0
M  V30 40740 C 3628.17 -2.34361 -0.10594 0
M  V30 40741 C 3629.18 -1.51502 -0.855758 0
M  V30 40742 O 3630.36 -1.8429 -0.812344 0
M  V30 40743 C 3627.42 -3.2919 -1.08788 0
M  V30 40744 C 3626.49 -4.27955 -0.339535 0
M  V30 40745 C 3625.72 -5.18254 -1.2747 0
M  V30 40746 O 3625.94 -5.12074 -2.5127 0
M  V30 40747 O 3624.88 -5.96963 -0.769364 0
M  V30 40748 H 3628.7 -2.97165 0.626636 0
M  V30 40749 H 3626.29 -1.44688 0.372265 0
M  V30 40750 H 3628.17 -3.87612 -1.65332 0
M  V30 40751 H 3626.84 -2.68944 -1.80141 0
M  V30 40752 H 3625.75 -3.73135 0.268473 0
M  V30 40753 H 3627.08 -4.91068 0.333588 0
M  V30 40754 N 3628.74 -0.351436 -1.53632 0
M  V30 40755 C 3629.65 0.509945 -2.28991 0
M  V30 40756 C 3630.66 1.10505 -1.34405 0
M  V30 40757 O 3631.84 1.11903 -1.6745 0
M  V30 40758 C 3628.9 1.64119 -3.05395 0
M  V30 40759 C 3627.96 1.07506 -4.15621 0
M  V30 40760 C 3627.2 2.1524 -4.88372 0
M  V30 40761 O 3627.42 3.36102 -4.6086 0
M  V30 40762 O 3626.35 1.7909 -5.74639 0
M  V30 40763 H 3630.18 -0.102883 -3.03526 0
M  V30 40764 H 3627.76 -0.11624 -1.48947 0
M  V30 40765 H 3629.65 2.2992 -3.5315 0
M  V30 40766 H 3628.32 2.23968 -2.33709 0
M  V30 40767 H 3627.23 0.381355 -3.72151 0
M  V30 40768 H 3628.56 0.521327 -4.89431 0
M  V30 40769 N 3630.21 1.57396 -0.0802459 0
M  V30 40770 C 3631.46 1.92983 0.586539 0
M  V30 40771 C 3631.78 0.962948 1.70255 0
M  V30 40772 O 3632.98 1.21197 2.42948 0
M  V30 40773 C 3631.44 3.42848 1.09469 0
M  V30 40774 C 3631.05 4.47999 0.00923105 0
M  V30 40775 C 3632.79 3.87422 1.73505 0
M  V30 40776 C 3630.7 5.89003 0.531898 0
M  V30 40777 H 3629.63 0.72031 0.222866 0
M  V30 40778 H 3632.28 1.82854 -0.153848 0
M  V30 40779 H 3630.66 3.48079 1.8883 0
M  V30 40780 H 3631.83 4.54394 -0.765689 0
M  V30 40781 H 3630.15 4.12943 -0.535418 0
M  V30 40782 H 3632.75 4.90158 2.13656 0
M  V30 40783 H 3633.09 3.25253 2.59839 0
M  V30 40784 H 3633.62 3.8483 1.00751 0
M  V30 40785 H 3630.36 6.54838 -0.294479 0
M  V30 40786 H 3629.88 5.8611 1.27415 0
M  V30 40787 H 3631.56 6.39137 1.00562 0
M  V30 40788 N 3631.69 -0.193366 1.56409 0
M  V30 40789 C 3632.6 -1.26005 1.97888 0
M  V30 40790 C 3633.62 -1.49705 0.886812 0
M  V30 40791 O 3634.79 -1.62286 1.1927 0
M  V30 40792 C 3631.86 -2.584 2.3115 0
M  V30 40793 C 3630.92 -2.42757 3.54073 0
M  V30 40794 C 3630.15 -3.68838 3.85739 0
M  V30 40795 O 3630.38 -4.73081 3.1867 0
M  V30 40796 O 3629.31 -3.64264 4.79161 0
M  V30 40797 H 3633.14 -0.938037 2.8885 0
M  V30 40798 H 3630.72 -0.398503 1.43987 0
M  V30 40799 H 3632.6 -3.3654 2.53612 0
M  V30 40800 H 3631.28 -2.90226 1.43356 0
M  V30 40801 H 3630.18 -1.62722 3.36857 0
M  V30 40802 H 3631.52 -2.15863 4.42339 0
M  V30 40803 N 3633.17 -1.50702 -0.461142 0
M  V30 40804 C 3634.45 -1.52713 -1.22222 0
M  V30 40805 C 3634.83 -0.277526 -2.09268 0
M  V30 40806 O 3634.17 0.738604 -2.16233 0
M  V30 40807 C 3634.38 -2.82832 -2.04467 0
M  V30 40808 C 3635.73 -3.33876 -2.6232 0
M  V30 40809 O 3636.76 -2.84222 -2.14701 0
M  V30 40810 O 3635.62 -4.20459 -3.49109 0
M  V30 40811 H 3632.71 -0.612968 -0.555157 0
M  V30 40812 H 3635.26 -1.62999 -0.472151 0
M  V30 40813 H 3634.03 -3.6525 -1.40386 0
M  V30 40814 H 3633.65 -2.75596 -2.86588 0
M  V30 40815 N 3634.65 0.715001 -1.40447 0
M  V30 40816 C 3635.58 1.8419 -1.43514 0
M  V30 40817 C 3636.56 1.67505 -0.295998 0
M  V30 40818 O 3637.74 1.87527 -0.5047 0
M  V30 40819 C 3634.87 3.2215 -1.29757 0
M  V30 40820 C 3633.83 3.53508 -2.4128 0
M  V30 40821 C 3633.15 4.90618 -2.12599 0
M  V30 40822 C 3634.45 3.54447 -3.83621 0
M  V30 40823 H 3636.15 1.81881 -2.37823 0
M  V30 40824 H 3633.69 0.873635 -1.14471 0
M  V30 40825 H 3635.65 4.00678 -1.30519 0
M  V30 40826 H 3634.37 3.25036 -0.319247 0
M  V30 40827 H 3633.03 2.7732 -2.39769 0
M  V30 40828 H 3632.68 4.90107 -1.13156 0
M  V30 40829 H 3632.38 5.12565 -2.87317 0
M  V30 40830 H 3633.9 5.71479 -2.15044 0
M  V30 40831 H 3635.32 4.23014 -3.86952 0
M  V30 40832 H 3633.71 3.87921 -4.57862 0
M  V30 40833 H 3634.78 2.53819 -4.13163 0
M  V30 40834 N 3636.13 1.25954 0.947281 0
M  V30 40835 C 3637.07 1.0698 2.04509 0
M  V30 40836 C 3638.04 -0.0233178 1.66084 0
M  V30 40837 O 3639.23 0.13528 1.9032 0
M  V30 40838 C 3636.37 0.702379 3.37877 0
M  V30 40839 C 3635.48 1.87112 3.89375 0
M  V30 40840 C 3634.62 1.44737 5.11101 0
M  V30 40841 C 3633.65 2.58479 5.54847 0
M  V30 40842 N 3632.79 2.16829 6.6778 0
M  V30 40843 H 3637.63 2.00929 2.20071 0
M  V30 40844 H 3635.17 1.00049 1.07836 0
M  V30 40845 H 3637.13 0.470272 4.14541 0
M  V30 40846 H 3635.76 -0.200133 3.22179 0
M  V30 40847 H 3634.81 2.21633 3.09165 0
M  V30 40848 H 3636.12 2.72503 4.17784 0
M  V30 40849 H 3635.27 1.17535 5.95206 0
M  V30 40850 H 3634.01 0.564276 4.84425 0
M  V30 40851 H 3633.02 2.86417 4.69303 0
M  V30 40852 H 3634.24 3.47378 5.83528 0
M  V30 40853 H 3632.19 1.30945 6.42798 0
M  V30 40854 H 3632.11 2.95765 6.95743 0
M  V30 40855 H 3633.37 1.92822 7.55275 0
M  V30 40856 N 3637.6 -1.15097 1.07659 0
M  V30 40857 C 3638.54 -2.18929 0.643829 0
M  V30 40858 C 3639.52 -1.58994 -0.340518 0
M  V30 40859 O 3640.7 -1.86885 -0.246197 0
M  V30 40860 C 3637.83 -3.38657 -0.0541306 0
M  V30 40861 C 3636.87 -4.17129 0.889154 0
M  V30 40862 S 3637.71 -4.79117 2.39181 0
M  V30 40863 C 3638.86 -6.02209 1.70574 0
M  V30 40864 H 3639.09 -2.55299 1.52347 0
M  V30 40865 H 3636.63 -1.26108 0.890846 0
M  V30 40866 H 3638.59 -4.0802 -0.450569 0
M  V30 40867 H 3637.25 -3.00624 -0.910156 0
M  V30 40868 H 3636.44 -5.028 0.347572 0
M  V30 40869 H 3636.04 -3.5333 1.22613 0
M  V30 40870 H 3638.33 -6.69789 1.01926 0
M  V30 40871 H 3639.28 -6.60942 2.5409 0
M  V30 40872 H 3639.68 -5.51978 1.18237 0
M  V30 40873 N 3639.08 -0.861145 -1.31993 0
M  V30 40874 C 3640.03 -0.308516 -2.28729 0
M  V30 40875 C 3641 0.588121 -1.55339 0
M  V30 40876 O 3642.18 0.521648 -1.83531 0
M  V30 40877 C 3639.32 0.491561 -3.41581 0
M  V30 40878 C 3638.44 -0.431598 -4.29839 0
M  V30 40879 C 3637.57 0.381743 -5.29827 0
M  V30 40880 C 3636.61 -0.538403 -6.09728 0
M  V30 40881 N 3635.75 0.23815 -7.01696 0
M  V30 40882 H 3640.59 -1.13867 -2.75387 0
M  V30 40883 H 3638.13 -0.572934 -1.35484 0
M  V30 40884 H 3640.08 0.971122 -4.0574 0
M  V30 40885 H 3638.71 1.28649 -2.96056 0
M  V30 40886 H 3637.77 -1.02957 -3.66202 0
M  V30 40887 H 3639.08 -1.13751 -4.85656 0
M  V30 40888 H 3638.23 0.924191 -5.9962 0
M  V30 40889 H 3636.97 1.12099 -4.74642 0
M  V30 40890 H 3635.98 -1.09268 -5.38833 0
M  V30 40891 H 3637.2 -1.27636 -6.66998 0
M  V30 40892 H 3635.15 0.960372 -6.48932 0
M  V30 40893 H 3635.06 -0.408599 -7.54895 0
M  V30 40894 H 3636.33 0.762115 -7.75765 0
M  V30 40895 N 3640.56 1.44905 -0.619713 0
M  V30 40896 C 3641.49 2.33366 0.0790711 0
M  V30 40897 C 3642.47 1.47542 0.846477 0
M  V30 40898 O 3643.66 1.76288 0.814626 0
M  V30 40899 C 3640.79 3.3044 1.06896 0
M  V30 40900 C 3639.74 4.25993 0.413955 0
M  V30 40901 C 3639.07 5.12849 1.51294 0
M  V30 40902 C 3640.37 5.17951 -0.672574 0
M  V30 40903 H 3642.06 2.92044 -0.659602 0
M  V30 40904 H 3639.61 1.4043 -0.318648 0
M  V30 40905 H 3641.56 3.91203 1.56646 0
M  V30 40906 H 3640.28 2.69947 1.83838 0
M  V30 40907 H 3638.94 3.66546 -0.0627959 0
M  V30 40908 H 3638.59 4.48716 2.27295 0
M  V30 40909 H 3638.29 5.77587 1.08012 0
M  V30 40910 H 3639.81 5.76482 2.01248 0
M  V30 40911 H 3641.23 5.72716 -0.258643 0
M  V30 40912 H 3639.63 5.91232 -1.02786 0
M  V30 40913 H 3640.7 4.5965 -1.54433 0
M  V30 40914 N 3642.04 0.359579 1.53443 0
M  V30 40915 C 3643.28 -0.232331 2.01465 0
M  V30 40916 C 3643.62 -1.48909 1.24658 0
M  V30 40917 O 3642.89 -1.9153 0.338607 0
M  V30 40918 C 3643.18 -0.53034 3.56173 0
M  V30 40919 C 3643.03 0.739634 4.43677 0
M  V30 40920 C 3644.35 -1.3334 4.19415 0
M  V30 40921 H 3641.47 -0.0829673 0.732315 0
M  V30 40922 H 3644.11 0.483285 1.83751 0
M  V30 40923 H 3642.26 -1.13998 3.71398 0
M  V30 40924 H 3643.93 1.37727 4.4026 0
M  V30 40925 H 3642.17 1.36124 4.11889 0
M  V30 40926 H 3642.84 0.486158 5.49855 0
M  V30 40927 H 3645.32 -0.817745 4.07985 0
M  V30 40928 H 3644.2 -1.51066 5.27703 0
M  V30 40929 H 3644.46 -2.34018 3.75084 0
M  V30 40930 N 3643.52 -1.57351 0.0885919 0
M  V30 40931 C 3644.46 -2.13665 -0.872685 0
M  V30 40932 C 3645.43 -1.05349 -1.28416 0
M  V30 40933 O 3646.62 -1.33102 -1.36706 0
M  V30 40934 C 3643.76 -2.71617 -2.12881 0
M  V30 40935 C 3642.87 -3.94144 -1.76845 0
M  V30 40936 C 3642.01 -4.40282 -2.97195 0
M  V30 40937 C 3641.05 -5.55415 -2.57255 0
M  V30 40938 N 3640.18 -5.96435 -3.70419 0
M  V30 40939 H 3645.02 -2.95495 -0.385592 0
M  V30 40940 H 3642.56 -1.46011 -0.178663 0
M  V30 40941 H 3644.52 -3.03332 -2.86436 0
M  V30 40942 H 3643.15 -1.92526 -2.59102 0
M  V30 40943 H 3642.2 -3.68784 -0.932856 0
M  V30 40944 H 3643.51 -4.77721 -1.43473 0
M  V30 40945 H 3642.67 -4.73747 -3.7901 0
M  V30 40946 H 3641.4 -3.55593 -3.33774 0
M  V30 40947 H 3640.41 -5.21585 -1.73866 0
M  V30 40948 H 3641.63 -6.41848 -2.21828 0
M  V30 40949 H 3639.58 -5.14693 -4.06727 0
M  V30 40950 H 3639.5 -6.74792 -3.40869 0
M  V30 40951 H 3640.77 -6.34528 -4.52763 0
M  V30 40952 N 3644.99 0.185069 -1.5651 0
M  V30 40953 C 3646.24 0.902126 -1.80401 0
M  V30 40954 C 3646.56 1.84002 -0.663529 0
M  V30 40955 O 3647.76 2.59843 -0.787009 0
M  V30 40956 C 3646.22 1.6546 -3.19611 0
M  V30 40957 C 3645.83 0.761032 -4.41489 0
M  V30 40958 C 3647.57 2.3607 -3.52805 0
M  V30 40959 C 3645.48 1.51295 -5.7172 0
M  V30 40960 H 3644.41 0.340603 -0.672686 0
M  V30 40961 H 3647.06 0.15524 -1.82842 0
M  V30 40962 H 3645.44 2.44574 -3.11448 0
M  V30 40963 H 3646.61 0.00783778 -4.60799 0
M  V30 40964 H 3644.93 0.165271 -4.16072 0
M  V30 40965 H 3647.53 2.92895 -4.47344 0
M  V30 40966 H 3647.87 3.10744 -2.77026 0
M  V30 40967 H 3648.4 1.63913 -3.6246 0
M  V30 40968 H 3645.14 0.808793 -6.50491 0
M  V30 40969 H 3644.66 2.23982 -5.5641 0
M  V30 40970 H 3646.34 2.06409 -6.13192 0
M  V30 40971 N 3646.47 1.50945 0.453144 0
M  V30 40972 C 3647.75 1.53359 1.2141 0
M  V30 40973 C 3648.13 0.28862 2.09118 0
M  V30 40974 O 3647.48 -0.727126 2.16622 0
M  V30 40975 C 3647.69 2.83913 2.02964 0
M  V30 40976 C 3649.04 3.35263 2.60546 0
M  V30 40977 O 3650.06 2.85356 2.13191 0
M  V30 40978 O 3648.92 4.22304 3.46874 0
M  V30 40979 H 3646.01 0.615904 0.551898 0
M  V30 40980 H 3648.56 1.63248 0.463501 0
M  V30 40981 H 3647.33 3.65989 1.38447 0
M  V30 40982 H 3646.95 2.77112 2.85122 0
M  V30 40983 N 3647.95 -0.707543 1.40825 0
M  V30 40984 C 3648.88 -1.83426 1.44489 0
M  V30 40985 C 3649.86 -1.67345 0.304878 0
M  V30 40986 O 3651.05 -1.87257 0.514638 0
M  V30 40987 C 3648.18 -3.21457 1.31464 0
M  V30 40988 C 3647.13 -3.52224 2.43151 0
M  V30 40989 C 3646.46 -4.89483 2.15198 0
M  V30 40990 C 3647.76 -3.52407 3.85495 0
M  V30 40991 H 3649.45 -1.80617 2.38784 0
M  V30 40992 H 3647 -0.867552 1.14933 0
M  V30 40993 H 3648.95 -3.9998 1.32642 0
M  V30 40994 H 3647.67 -3.24862 0.336479 0
M  V30 40995 H 3646.33 -2.76045 2.41236 0
M  V30 40996 H 3645.98 -4.895 1.15754 0
M  V30 40997 H 3645.68 -5.11034 2.90031 0
M  V30 40998 H 3647.2 -5.70331 2.18072 0
M  V30 40999 H 3648.62 -4.20956 3.8919 0
M  V30 41000 H 3647.02 -3.85487 4.59913 0
M  V30 41001 H 3648.09 -2.51625 4.14503 0
M  V30 41002 N 3649.43 -1.26454 -0.940588 0
M  V30 41003 C 3650.34 -1.09842 -2.07297 0
M  V30 41004 C 3651.35 -0.0317783 -1.73971 0
M  V30 41005 O 3652.53 -0.23563 -2.00017 0
M  V30 41006 C 3649.6 -0.733796 -3.38846 0
M  V30 41007 C 3648.66 -1.87992 -3.8595 0
M  V30 41008 C 3647.89 -1.53259 -5.11221 0
M  V30 41009 O 3648.11 -0.434591 -5.68742 0
M  V30 41010 O 3647.05 -2.36753 -5.53382 0
M  V30 41011 H 3650.87 -2.04841 -2.24219 0
M  V30 41012 H 3648.46 -1.05522 -1.05761 0
M  V30 41013 H 3650.34 -0.543204 -4.17884 0
M  V30 41014 H 3649.01 0.186786 -3.23161 0
M  V30 41015 H 3647.92 -2.12547 -3.07854 0
M  V30 41016 H 3649.25 -2.78024 -4.06157 0
M  V30 41017 N 3650.91 1.14525 -1.08268 0
M  V30 41018 C 3651.85 2.19564 -0.71137 0
M  V30 41019 C 3652.82 1.63336 0.301745 0
M  V30 41020 O 3654.01 1.8989 0.186076 0
M  V30 41021 C 3651.15 3.44872 -0.125315 0
M  V30 41022 C 3650.26 4.15257 -1.19104 0
M  V30 41023 C 3649.4 5.28144 -0.568994 0
M  V30 41024 C 3648.44 5.90359 -1.61685 0
M  V30 41025 N 3647.57 6.947 -1.01671 0
M  V30 41026 H 3652.41 2.50674 -1.61142 0
M  V30 41027 H 3649.95 1.23098 -0.805307 0
M  V30 41028 H 3651.91 4.16553 0.232174 0
M  V30 41029 H 3650.54 3.14249 0.738046 0
M  V30 41030 H 3649.59 3.41979 -1.66597 0
M  V30 41031 H 3650.9 4.57595 -1.98516 0
M  V30 41032 H 3650.06 6.0649 -0.159669 0
M  V30 41033 H 3648.79 4.87023 0.256798 0
M  V30 41034 H 3647.8 5.10718 -2.03585 0
M  V30 41035 H 3649.02 6.33555 -2.44509 0
M  V30 41036 H 3646.97 6.55657 -0.211987 0
M  V30 41037 H 3646.89 7.35515 -1.74794 0
M  V30 41038 H 3648.16 7.76924 -0.633197 0
M  V30 41039 N 3652.39 0.868133 1.31534 0
M  V30 41040 C 3653.32 0.26724 2.2663 0
M  V30 41041 C 3654.3 -0.602547 1.51024 0
M  V30 41042 O 3655.48 -0.556377 1.80102 0
M  V30 41043 C 3652.61 -0.621772 3.32944 0
M  V30 41044 C 3651.65 0.176423 4.26135 0
M  V30 41045 S 3652.49 1.55372 5.12464 0
M  V30 41046 C 3653.64 0.670782 6.22295 0
M  V30 41047 H 3653.88 1.07336 2.77248 0
M  V30 41048 H 3651.41 0.666545 1.39271 0
M  V30 41049 H 3653.37 -1.12901 3.94669 0
M  V30 41050 H 3652.03 -1.40182 2.81083 0
M  V30 41051 H 3651.22 -0.50127 5.01501 0
M  V30 41052 H 3650.82 0.615695 3.68897 0
M  V30 41053 H 3653.11 -0.119389 6.77395 0
M  V30 41054 H 3654.06 1.39551 6.94213 0
M  V30 41055 H 3654.47 0.239147 5.63993 0
M  V30 41056 N 3653.86 -1.44574 0.627389 0
M  V30 41057 C 3654.81 -2.30662 -0.0797639 0
M  V30 41058 C 3655.78 -1.43265 -0.840503 0
M  V30 41059 O 3656.97 -1.72172 -0.822289 0
M  V30 41060 C 3654.11 -3.28485 -1.0579 0
M  V30 41061 C 3653.22 -4.30985 -0.295976 0
M  V30 41062 C 3652.35 -5.15903 -1.2656 0
M  V30 41063 C 3651.39 -6.10115 -0.492615 0
M  V30 41064 N 3650.53 -6.87744 -1.41251 0
M  V30 41065 H 3655.37 -2.90592 0.660305 0
M  V30 41066 H 3652.91 -1.43178 0.337408 0
M  V30 41067 H 3654.86 -3.83685 -1.63835 0
M  V30 41068 H 3653.49 -2.70263 -1.76515 0
M  V30 41069 H 3652.55 -3.78288 0.400326 0
M  V30 41070 H 3653.86 -4.97859 0.306237 0
M  V30 41071 H 3653.01 -5.75601 -1.9175 0
M  V30 41072 H 3651.75 -4.49094 -1.90174 0
M  V30 41073 H 3650.76 -5.49528 0.172792 0
M  V30 41074 H 3651.98 -6.78958 0.138753 0
M  V30 41075 H 3649.93 -6.23607 -2.03593 0
M  V30 41076 H 3649.84 -7.51044 -0.86423 0
M  V30 41077 H 3651.11 -7.51969 -2.05337 0
M  V30 41078 N 3655.34 -0.367711 -1.5325 0
M  V30 41079 C 3656.29 0.49286 -2.27318 0
M  V30 41080 C 3657.28 1.08157 -1.30378 0
M  V30 41081 O 3658.49 1.02453 -1.47998 0
M  V30 41082 H 3654.86 0.177664 -0.730712 0
M  V30 41083 H 3656.84 -0.153577 -2.98005 0
M  V30 41084 C 3655.58 1.6195 -3.07681 0
M  V30 41085 H 3654.91 1.1758 -3.82119 0
M  V30 41086 H 3656.35 2.19632 -3.62682 0
M  V30 41087 C 3654.81 2.56306 -2.18652 0
M  V30 41088 O 3655.34 3.59177 -1.79875 0
M  V30 41089 N 3653.54 2.25544 -1.83243 0
M  V30 41090 H 3653.09 1.41926 -2.14976 0
M  V30 41091 H 3653.05 2.8893 -1.23962 0
M  V30 41092 N 3656.82 1.57302 -0.0969353 0
M  V30 41093 C 3657.78 2.12981 0.846858 0
M  V30 41094 C 3658.78 1.0595 1.2096 0
M  V30 41095 O 3659.97 1.31828 1.13873 0
M  V30 41096 C 3657.1 2.65192 2.14211 0
M  V30 41097 H 3658.3 2.97691 0.363346 0
M  V30 41098 H 3655.85 1.55558 0.15208 0
M  V30 41099 H 3656.59 1.84007 2.67043 0
M  V30 41100 H 3656.37 3.43449 1.8917 0
M  V30 41101 H 3657.86 3.08257 2.81723 0
M  V30 41102 N 3658.3 -0.176766 1.56606 0
M  V30 41103 C 3659.24 -1.21893 1.95987 0
M  V30 41104 C 3660.21 -1.44277 0.823009 0
M  V30 41105 O 3661.4 -1.57107 1.08268 0
M  V30 41106 C 3658.54 -2.5545 2.32033 0
M  V30 41107 C 3657.65 -2.40491 3.58871 0
M  V30 41108 C 3656.79 -3.66877 3.84154 0
M  V30 41109 C 3655.83 -3.46828 5.04358 0
M  V30 41110 N 3654.96 -4.65271 5.25802 0
M  V30 41111 H 3659.8 -0.876087 2.84831 0
M  V30 41112 H 3657.34 -0.421196 1.40941 0
M  V30 41113 H 3659.3 -3.33284 2.50953 0
M  V30 41114 H 3657.93 -2.8774 1.46306 0
M  V30 41115 H 3656.98 -1.5386 3.47896 0
M  V30 41116 H 3658.29 -2.21619 4.46863 0
M  V30 41117 H 3657.45 -4.53148 4.03412 0
M  V30 41118 H 3656.19 -3.88722 2.94527 0
M  V30 41119 H 3655.19 -2.58943 4.85004 0
M  V30 41120 H 3656.42 -3.26411 5.95511 0
M  V30 41121 H 3654.36 -4.87345 4.39125 0
M  V30 41122 H 3654.28 -4.49292 6.08007 0
M  V30 41123 H 3655.55 -5.52841 5.49534 0
M  V30 41124 N 3659.78 -1.51183 -0.445132 0
M  V30 41125 C 3660.69 -1.74765 -1.56507 0
M  V30 41126 C 3661.7 -0.631571 -1.62133 0
M  V30 41127 O 3662.88 -0.91293 -1.7952 0
M  V30 41128 C 3659.94 -1.86055 -2.92548 0
M  V30 41129 C 3659 -3.09885 -2.97102 0
M  V30 41130 C 3658.24 -3.20627 -4.26654 0
M  V30 41131 O 3658.46 -2.37501 -5.18604 0
M  V30 41132 O 3657.39 -4.1355 -4.37333 0
M  V30 41133 H 3661.22 -2.69752 -1.39526 0
M  V30 41134 H 3658.8 -1.35591 -0.627339 0
M  V30 41135 H 3660.69 -1.95511 -3.73301 0
M  V30 41136 H 3659.36 -0.942534 -3.09674 0
M  V30 41137 H 3658.27 -3.05913 -2.15333 0
M  V30 41138 H 3659.6 -4.0135 -2.84919 0
M  V30 41139 N 3661.25 0.700065 -1.41198 0
M  V30 41140 C 3662.5 1.46008 -1.40313 0
M  V30 41141 C 3662.83 1.94497 -0.0107195 0
M  V30 41142 O 3662.08 1.6959 0.976618 0
M  V30 41143 C 3662.38 2.69046 -2.35264 0
M  V30 41144 C 3662.05 2.39239 -3.82198 0
M  V30 41145 C 3660.71 2.3082 -4.22227 0
M  V30 41146 C 3663.06 2.14562 -4.74987 0
M  V30 41147 C 3660.39 1.95814 -5.53058 0
M  V30 41148 C 3662.74 1.81066 -6.06133 0
M  V30 41149 C 3661.41 1.7114 -6.45188 0
M  V30 41150 H 3660.68 0.534282 -0.513443 0
M  V30 41151 H 3663.32 0.800544 -1.73964 0
M  V30 41152 H 3661.63 3.39912 -1.94851 0
M  V30 41153 H 3663.33 3.27176 -2.31855 0
M  V30 41154 H 3659.92 2.46684 -3.50493 0
M  V30 41155 H 3664.1 2.20013 -4.44868 0
M  V30 41156 H 3659.36 1.86679 -5.82204 0
M  V30 41157 H 3663.53 1.6099 -6.77536 0
M  V30 41158 H 3661.16 1.43783 -7.46479 0
M  V30 41159 N 3662.73 1.26951 0.933869 0
M  V30 41160 C 3663.64 1.1094 2.06711 0
M  V30 41161 C 3664.66 0.0410039 1.73952 0
M  V30 41162 O 3665.83 0.246234 1.99889 0
M  V30 41163 C 3662.9 0.751755 3.38452 0
M  V30 41164 C 3661.96 1.90036 3.84948 0
M  V30 41165 C 3661.19 1.55968 5.10401 0
M  V30 41166 O 3661.42 0.464746 5.68504 0
M  V30 41167 O 3660.35 2.39684 5.52119 0
M  V30 41168 H 3664.18 2.06027 2.23129 0
M  V30 41169 H 3661.76 1.06081 1.052 0
M  V30 41170 H 3663.64 0.565358 4.1759 0
M  V30 41171 H 3662.32 -0.169646 3.23255 0
M  V30 41172 H 3661.22 2.14177 3.06723 0
M  V30 41173 H 3662.56 2.80174 4.04677 0
M  V30 41174 N 3664.21 -1.13949 1.08873 0
M  V30 41175 C 3665.16 -2.19183 0.723004 0
M  V30 41176 C 3666.13 -1.63494 -0.293079 0
M  V30 41177 O 3667.31 -1.89986 -0.176003 0
M  V30 41178 C 3664.45 -3.44801 0.143603 0
M  V30 41179 C 3663.56 -4.14619 1.21304 0
M  V30 41180 C 3662.7 -5.27835 0.596995 0
M  V30 41181 C 3661.74 -5.89494 1.64814 0
M  V30 41182 N 3660.88 -6.94151 1.05354 0
M  V30 41183 H 3665.72 -2.49816 1.62469 0
M  V30 41184 H 3663.25 -1.2267 0.811824 0
M  V30 41185 H 3665.21 -4.16671 -0.21008 0
M  V30 41186 H 3663.84 -3.14636 -0.72137 0
M  V30 41187 H 3662.89 -3.4109 1.68409 0
M  V30 41188 H 3664.2 -4.56536 2.00939 0
M  V30 41189 H 3663.36 -6.06397 0.191831 0
M  V30 41190 H 3662.1 -4.87153 -0.230966 0
M  V30 41191 H 3661.1 -5.09631 2.06291 0
M  V30 41192 H 3662.33 -6.32249 2.47866 0
M  V30 41193 H 3660.27 -6.55536 0.246755 0
M  V30 41194 H 3660.19 -7.34578 1.78693 0
M  V30 41195 H 3661.46 -7.76577 0.67439 0
M  V30 41196 N 3665.69 -0.875096 -1.31072 0
M  V30 41197 C 3666.6 -0.338237 -2.32149 0
M  V30 41198 C 3667.61 0.554475 -1.64929 0
M  V30 41199 O 3668.79 0.449964 -1.96309 0
M  V30 41200 C 3665.85 0.447103 -3.43805 0
M  V30 41201 C 3664.92 -0.474181 -4.26673 0
M  V30 41202 C 3664.15 0.273773 -5.32997 0
M  V30 41203 O 3664.37 1.50119 -5.50291 0
M  V30 41204 O 3663.31 -0.371018 -6.00755 0
M  V30 41205 H 3667.13 -1.17617 -2.8 0
M  V30 41206 H 3664.72 -0.638624 -1.35063 0
M  V30 41207 H 3666.6 0.892127 -4.11848 0
M  V30 41208 H 3665.27 1.2615 -2.98107 0
M  V30 41209 H 3664.18 -0.967812 -3.61364 0
M  V30 41210 H 3665.51 -1.25431 -4.75949 0
M  V30 41211 N 3667.17 1.44239 -0.635047 0
M  V30 41212 C 3668.42 2.01224 -0.138533 0
M  V30 41213 C 3668.73 1.50574 1.24848 0
M  V30 41214 O 3669.93 1.99712 1.83922 0
M  V30 41215 C 3668.39 3.59361 -0.196899 0
M  V30 41216 C 3668 4.19007 -1.58547 0
M  V30 41217 C 3669.74 4.23804 0.24295 0
M  V30 41218 C 3667.65 5.69381 -1.59874 0
M  V30 41219 H 3666.58 0.752469 -0.0480249 0
M  V30 41220 H 3669.23 1.65412 -0.79442 0
M  V30 41221 H 3667.61 3.92489 0.526162 0
M  V30 41222 H 3668.79 3.9741 -2.33243 0
M  V30 41223 H 3667.1 3.66866 -1.96973 0
M  V30 41224 H 3669.7 5.34103 0.252623 0
M  V30 41225 H 3670.04 3.96423 1.271 0
M  V30 41226 H 3670.57 3.95494 -0.427748 0
M  V30 41227 H 3667.31 6.01502 -2.60529 0
M  V30 41228 H 3666.83 5.93088 -0.894768 0
M  V30 41229 H 3668.51 6.3309 -1.33441 0
M  V30 41230 N 3668.64 0.375833 1.53053 0
M  V30 41231 C 3669.87 -0.213672 2.06296 0
M  V30 41232 C 3670.29 -1.40844 1.24678 0
M  V30 41233 O 3669.65 -1.79302 0.268402 0
M  V30 41234 C 3669.7 -0.575238 3.55982 0
M  V30 41235 O 3668.8 -1.67108 3.77026 0
M  V30 41236 H 3668.15 -0.0286805 0.66338 0
M  V30 41237 H 3670.68 0.539406 1.97362 0
M  V30 41238 H 3670.69 -0.84336 3.99188 0
M  V30 41239 H 3669.36 0.298331 4.14829 0
M  V30 41240 H 3667.94 -1.39772 3.45714 0
M  V30 41241 N 3670.12 -1.57248 0.105276 0
M  V30 41242 C 3671.09 -2.13427 -0.835551 0
M  V30 41243 C 3672.09 -1.0659 -1.20396 0
M  V30 41244 O 3673.28 -1.3243 -1.13173 0
M  V30 41245 C 3670.41 -2.66324 -2.12801 0
M  V30 41246 H 3671.6 -2.97879 -0.347553 0
M  V30 41247 H 3669.15 -1.55637 -0.143828 0
M  V30 41248 H 3669.89 -1.85421 -2.66063 0
M  V30 41249 H 3669.67 -3.44447 -1.87346 0
M  V30 41250 H 3671.16 -3.09746 -2.80084 0
M  V30 41251 N 3671.6 0.168458 -1.56697 0
M  V30 41252 C 3672.83 0.90012 -1.86294 0
M  V30 41253 C 3673.24 1.757 -0.690999 0
M  V30 41254 O 3672.6 1.79308 0.339824 0
M  V30 41255 C 3672.65 1.77451 -3.1495 0
M  V30 41256 O 3672.37 0.952192 -4.27627 0
M  V30 41257 C 3673.87 2.6156 -3.57913 0
M  V30 41258 H 3671.09 0.261358 -0.618007 0
M  V30 41259 H 3673.64 0.167694 -2.03811 0
M  V30 41260 H 3671.79 2.46025 -2.9925 0
M  V30 41261 H 3672.21 1.55048 -5.01059 0
M  V30 41262 H 3673.68 3.18524 -4.50829 0
M  V30 41263 H 3674.16 3.36568 -2.82168 0
M  V30 41264 H 3674.76 1.98314 -3.76234 0
M  V30 41265 N 3673.08 1.51417 0.437109 0
M  V30 41266 C 3674.03 1.72748 1.53058 0
M  V30 41267 C 3675 0.569176 1.56044 0
M  V30 41268 O 3676.18 0.803633 1.7305 0
M  V30 41269 C 3673.32 1.85866 2.90771 0
M  V30 41270 C 3672.43 3.13415 2.97313 0
M  V30 41271 C 3671.57 3.17127 4.2615 0
M  V30 41272 C 3670.61 4.38991 4.2656 0
M  V30 41273 N 3669.74 4.40251 5.46922 0
M  V30 41274 H 3674.58 2.66086 1.34173 0
M  V30 41275 H 3672.12 1.31872 0.651779 0
M  V30 41276 H 3674.08 1.91454 3.70677 0
M  V30 41277 H 3672.71 0.95936 3.08214 0
M  V30 41278 H 3671.76 3.17136 2.10069 0
M  V30 41279 H 3673.07 4.03327 2.93478 0
M  V30 41280 H 3672.23 3.21632 5.14429 0
M  V30 41281 H 3670.97 2.25105 4.32642 0
M  V30 41282 H 3669.97 4.34662 3.36674 0
M  V30 41283 H 3671.2 5.32277 4.21732 0
M  V30 41284 H 3669.14 3.51099 5.54135 0
M  V30 41285 H 3669.06 5.23971 5.44968 0
M  V30 41286 H 3670.33 4.48948 6.37233 0
M  V30 41287 N 3674.56 -0.692567 1.41567 0
M  V30 41288 C 3675.52 -1.78821 1.43372 0
M  V30 41289 C 3676.52 -1.57504 0.323895 0
M  V30 41290 O 3677.71 -1.64122 0.583914 0
M  V30 41291 C 3674.84 -3.17233 1.24803 0
M  V30 41292 H 3676.03 -1.78613 2.40909 0
M  V30 41293 H 3673.59 -0.900486 1.27753 0
M  V30 41294 H 3674.32 -3.23079 0.281186 0
M  V30 41295 H 3674.11 -3.34108 2.05218 0
M  V30 41296 H 3675.6 -3.97206 1.28909 0
M  V30 41297 N 3676.03 -1.27445 -0.927123 0
M  V30 41298 C 3677.26 -1.16632 -1.70894 0
M  V30 41299 C 3677.68 0.276779 -1.8676 0
M  V30 41300 O 3677.03 1.18839 -1.38505 0
M  V30 41301 C 3677.09 -1.84578 -3.10826 0
M  V30 41302 O 3676.81 -3.2325 -2.95705 0
M  V30 41303 C 3678.31 -1.79898 -4.05156 0
M  V30 41304 H 3675.53 -0.405477 -0.53463 0
M  V30 41305 H 3678.07 -1.68327 -1.16131 0
M  V30 41306 H 3676.23 -1.36787 -3.62447 0
M  V30 41307 H 3676.64 -3.57086 -3.84174 0
M  V30 41308 H 3678.11 -2.32053 -5.00855 0
M  V30 41309 H 3678.59 -0.768449 -4.32425 0
M  V30 41310 H 3679.2 -2.27307 -3.5946 0
M  V30 41311 N 3677.51 1.1337 -1.09476 0
M  V30 41312 C 3678.76 1.84932 -0.832355 0
M  V30 41313 C 3679.09 1.83336 0.640437 0
M  V30 41314 O 3678.37 1.27183 1.47156 0
M  V30 41315 C 3678.65 3.3307 -1.36882 0
M  V30 41316 C 3678.5 3.43176 -2.90775 0
M  V30 41317 C 3679.82 4.28518 -1.00302 0
M  V30 41318 H 3676.94 0.671458 -0.303832 0
M  V30 41319 H 3679.58 1.33064 -1.35624 0
M  V30 41320 H 3677.73 3.77372 -0.9232 0
M  V30 41321 H 3679.4 3.07582 -3.43789 0
M  V30 41322 H 3677.65 2.84036 -3.27881 0
M  V30 41323 H 3678.32 4.47352 -3.23389 0
M  V30 41324 H 3680.79 3.9229 -1.38735 0
M  V30 41325 H 3679.67 5.30603 -1.40542 0
M  V30 41326 H 3679.93 4.42011 0.0887356 0
M  V30 41327 N 3678.99 0.882035 1.30606 0
M  V30 41328 C 3679.9 0.350544 2.31966 0
M  V30 41329 C 3680.92 -0.545721 1.65221 0
M  V30 41330 O 3682.09 -0.439547 1.96545 0
M  V30 41331 C 3679.16 -0.428864 3.44037 0
M  V30 41332 C 3678.22 0.496802 4.26416 0
M  V30 41333 C 3677.45 -0.245503 5.33135 0
M  V30 41334 O 3677.67 -1.47199 5.5108 0
M  V30 41335 O 3676.61 0.402873 6.0055 0
M  V30 41336 H 3680.43 1.191 2.79372 0
M  V30 41337 H 3678.02 0.645778 1.34722 0
M  V30 41338 H 3679.9 -0.870273 4.12316 0
M  V30 41339 H 3678.58 -1.24567 2.98772 0
M  V30 41340 H 3677.48 0.986962 3.60846 0
M  V30 41341 H 3678.82 1.27954 4.75278 0
M  V30 41342 N 3680.47 -1.439 0.642688 0
M  V30 41343 C 3681.7 -2.05987 0.159007 0
M  V30 41344 C 3682.11 -1.48186 -1.17633 0
M  V30 41345 O 3681.45 -0.603665 -1.73498 0
M  V30 41346 C 3681.51 -3.59496 -0.0178314 0
M  V30 41347 C 3681.18 -4.39823 1.24115 0
M  V30 41348 C 3682.17 -4.72563 2.1675 0
M  V30 41349 C 3679.86 -4.80008 1.47979 0
M  V30 41350 C 3681.85 -5.44383 3.31551 0
M  V30 41351 C 3679.54 -5.51575 2.63075 0
M  V30 41352 C 3680.54 -5.83683 3.54687 0
M  V30 41353 O 3680.22 -6.53791 4.67774 0
M  V30 41354 H 3679.96 -0.670972 0.0822943 0
M  V30 41355 H 3682.51 -1.85569 0.880525 0
M  V30 41356 H 3680.74 -3.78448 -0.794614 0
M  V30 41357 H 3682.43 -4.03313 -0.457531 0
M  V30 41358 H 3683.2 -4.42046 1.99551 0
M  V30 41359 H 3679.07 -4.54429 0.775568 0
M  V30 41360 H 3682.62 -5.69362 4.03079 0
M  V30 41361 H 3678.52 -5.81508 2.80212 0
M  V30 41362 H 3679.28 -6.72267 4.66904 0
M  V30 41363 N 3681.95 -0.383945 -1.52852 0
M  V30 41364 C 3682.88 0.488777 -2.23928 0
M  V30 41365 C 3683.89 1.03113 -1.25982 0
M  V30 41366 O 3685.08 0.934372 -1.52091 0
M  V30 41367 C 3682.18 1.68952 -2.93783 0
M  V30 41368 C 3681.35 1.27548 -4.1839 0
M  V30 41369 C 3680.41 2.34032 -4.71292 0
M  V30 41370 O 3679.44 1.95661 -5.34514 0
M  V30 41371 N 3680.64 3.65873 -4.50685 0
M  V30 41372 H 3683.41 -0.120136 -2.99459 0
M  V30 41373 H 3680.97 -0.210032 -1.60532 0
M  V30 41374 H 3682.96 2.39702 -3.26075 0
M  V30 41375 H 3681.53 2.2049 -2.21592 0
M  V30 41376 H 3680.75 0.397088 -3.92195 0
M  V30 41377 H 3682.04 0.975418 -4.99363 0
M  V30 41378 H 3681.44 3.99812 -4.00208 0
M  V30 41379 H 3679.99 4.32672 -4.87481 0
M  V30 41380 N 3683.43 1.5719 -0.113614 0
M  V30 41381 C 3684.37 2.15027 0.838582 0
M  V30 41382 C 3685.34 1.07379 1.26724 0
M  V30 41383 O 3686.53 1.3526 1.34571 0
M  V30 41384 C 3683.67 2.74969 2.08533 0
M  V30 41385 C 3682.78 3.96908 1.70553 0
M  V30 41386 C 3681.92 4.44955 2.90153 0
M  V30 41387 C 3680.95 5.59438 2.48387 0
M  V30 41388 N 3680.09 6.02252 3.60883 0
M  V30 41389 H 3684.93 2.96071 0.338533 0
M  V30 41390 H 3682.47 1.46277 0.155411 0
M  V30 41391 H 3684.43 3.07851 2.81574 0
M  V30 41392 H 3683.06 1.96624 2.56006 0
M  V30 41393 H 3682.11 3.70222 0.874068 0
M  V30 41394 H 3683.42 4.79943 1.35854 0
M  V30 41395 H 3682.57 4.79717 3.71425 0
M  V30 41396 H 3681.31 3.60858 3.28074 0
M  V30 41397 H 3680.32 5.24285 1.65546 0
M  V30 41398 H 3681.54 6.45296 2.11589 0
M  V30 41399 H 3679.49 5.21098 3.98488 0
M  V30 41400 H 3679.41 6.80129 3.30091 0
M  V30 41401 H 3680.67 6.41651 4.42611 0
M  V30 41402 N 3684.9 -0.160146 1.56784 0
M  V30 41403 C 3685.81 -1.2178 2.00517 0
M  V30 41404 C 3686.83 -1.4779 0.918367 0
M  V30 41405 O 3688.01 -1.59719 1.22686 0
M  V30 41406 C 3685.07 -2.53439 2.36579 0
M  V30 41407 C 3684.13 -2.35192 3.59143 0
M  V30 41408 C 3683.36 -3.60573 3.93475 0
M  V30 41409 O 3683.59 -4.66215 3.28634 0
M  V30 41410 O 3682.52 -3.54018 4.8678 0
M  V30 41411 H 3686.35 -0.876556 2.90775 0
M  V30 41412 H 3683.93 -0.367871 1.448 0
M  V30 41413 H 3685.81 -3.31085 2.60693 0
M  V30 41414 H 3684.49 -2.87119 1.49479 0
M  V30 41415 H 3683.4 -1.5554 3.40232 0
M  V30 41416 H 3684.73 -2.06432 4.46819 0
M  V30 41417 N 3686.38 -1.51647 -0.429072 0
M  V30 41418 C 3687.63 -1.64968 -1.17955 0
M  V30 41419 C 3687.96 -0.368788 -1.90666 0
M  V30 41420 O 3687.24 0.63199 -1.83946 0
M  V30 41421 C 3687.52 -2.85854 -2.18997 0
M  V30 41422 C 3687.37 -4.23941 -1.50314 0
M  V30 41423 C 3688.69 -3.02256 -3.1989 0
M  V30 41424 H 3685.81 -0.60037 -0.427464 0
M  V30 41425 H 3688.45 -1.84153 -0.467738 0
M  V30 41426 H 3686.6 -2.69628 -2.79702 0
M  V30 41427 H 3688.27 -4.51852 -0.928822 0
M  V30 41428 H 3686.52 -4.26259 -0.805356 0
M  V30 41429 H 3687.19 -5.04534 -2.23941 0
M  V30 41430 H 3689.66 -3.17247 -2.69246 0
M  V30 41431 H 3688.54 -3.88388 -3.87873 0
M  V30 41432 H 3688.8 -2.14688 -3.86473 0
M  V30 41433 N 3687.86 0.685049 -1.41932 0
M  V30 41434 C 3689.11 1.44082 -1.4115 0
M  V30 41435 C 3689.42 1.95581 -0.0276136 0
M  V30 41436 O 3690.63 2.71305 0.102825 0
M  V30 41437 C 3689.08 2.60591 -2.48234 0
M  V30 41438 C 3688.69 2.15835 -3.9258 0
M  V30 41439 C 3690.44 3.38164 -2.56603 0
M  V30 41440 C 3688.34 3.29365 -4.91195 0
M  V30 41441 H 3687.27 0.541243 -0.52495 0
M  V30 41442 H 3689.92 0.742671 -1.67799 0
M  V30 41443 H 3688.31 3.32725 -2.14733 0
M  V30 41444 H 3689.48 1.50922 -4.35384 0
M  V30 41445 H 3687.79 1.51228 -3.87968 0
M  V30 41446 H 3690.39 4.22698 -3.27461 0
M  V30 41447 H 3690.73 3.84064 -1.60625 0
M  V30 41448 H 3691.27 2.73094 -2.89248 0
M  V30 41449 H 3688.01 2.88467 -5.88615 0
M  V30 41450 H 3687.53 3.93094 -4.53031 0
M  V30 41451 H 3689.21 3.94987 -5.1244 0
M  V30 41452 N 3689.34 1.27935 0.920351 0
M  V30 41453 C 3690.75 1.05498 1.19759 0
M  V30 41454 C 3690.95 -0.206829 2.00436 0
M  V30 41455 O 3690.01 -0.910314 2.3552 0
M  V30 41456 C 3691.32 2.29867 1.93859 0
M  V30 41457 C 3692.87 2.3498 2.06769 0
M  V30 41458 C 3693.35 3.59098 2.84276 0
M  V30 41459 N 3694.84 3.59699 2.91841 0
M  V30 41460 C 3695.57 4.52411 3.52296 0
M  V30 41461 N 3695.07 5.55434 4.14083 0
M  V30 41462 N 3696.86 4.40019 3.4977 0
M  V30 41463 H 3689.01 2.08945 0.381559 0
M  V30 41464 H 3691.27 0.919316 0.231435 0
M  V30 41465 H 3690.98 3.21758 1.42002 0
M  V30 41466 H 3690.85 2.35763 2.94442 0
M  V30 41467 H 3693.24 1.43591 2.5781 0
M  V30 41468 H 3693.32 2.33084 1.05384 0
M  V30 41469 H 3692.97 4.50827 2.33917 0
M  V30 41470 H 3692.9 3.58247 3.85962 0
M  V30 41471 H 3695.39 2.85196 2.47935 0
M  V30 41472 H 3695.7 6.22333 4.58172 0
M  V30 41473 H 3694.05 5.59268 4.12606 0
M  V30 41474 H 3697.24 3.58739 3.00706 0
M  V30 41475 H 3697.41 5.12462 3.96594 0
M  V30 41476 N 3690.82 -1.12788 1.10076 0
M  V30 41477 C 3691.75 -2.20502 0.768184 0
M  V30 41478 C 3692.73 -1.68145 -0.25717 0
M  V30 41479 O 3693.91 -1.93805 -0.123756 0
M  V30 41480 C 3691.04 -3.46751 0.195186 0
M  V30 41481 C 3690 -4.12238 1.15081 0
M  V30 41482 C 3689.32 -5.32893 0.439191 0
M  V30 41483 C 3690.62 -4.58804 2.49593 0
M  V30 41484 H 3692.32 -2.48578 1.6688 0
M  V30 41485 H 3689.86 -1.19476 0.803827 0
M  V30 41486 H 3691.81 -4.21371 -0.0495954 0
M  V30 41487 H 3690.54 -3.18091 -0.740661 0
M  V30 41488 H 3689.2 -3.39595 1.38098 0
M  V30 41489 H 3688.85 -5.00499 -0.501008 0
M  V30 41490 H 3688.55 -5.77656 1.07643 0
M  V30 41491 H 3690.07 -6.10263 0.202868 0
M  V30 41492 H 3691.48 -5.24814 2.30745 0
M  V30 41493 H 3689.88 -5.14331 3.09166 0
M  V30 41494 H 3690.95 -3.72978 3.09863 0
M  V30 41495 N 3692.29 -0.888949 -1.30136 0
M  V30 41496 C 3693.22 -0.374974 -2.3047 0
M  V30 41497 C 3694.2 0.544294 -1.61157 0
M  V30 41498 O 3695.39 0.457304 -1.88739 0
M  V30 41499 C 3692.52 0.407874 -3.44897 0
M  V30 41500 C 3691.47 -0.419991 -4.25934 0
M  V30 41501 C 3690.8 0.489703 -5.32453 0
M  V30 41502 C 3692.1 -1.66422 -4.95077 0
M  V30 41503 H 3693.79 -1.21341 -2.73709 0
M  V30 41504 H 3691.34 -0.584922 -1.31585 0
M  V30 41505 H 3693.29 0.778104 -4.14154 0
M  V30 41506 H 3692.02 1.28 -3.00472 0
M  V30 41507 H 3690.68 -0.772411 -3.5837 0
M  V30 41508 H 3690.32 1.35965 -4.84275 0
M  V30 41509 H 3690.02 -0.0604445 -5.87569 0
M  V30 41510 H 3691.55 0.856362 -6.04565 0
M  V30 41511 H 3692.96 -1.36435 -5.56829 0
M  V30 41512 H 3691.36 -2.15487 -5.60076 0
M  V30 41513 H 3692.43 -2.40637 -4.20977 0
M  V30 41514 N 3693.77 1.43557 -0.65031 0
M  V30 41515 C 3695.19 1.56408 -0.317613 0
M  V30 41516 C 3695.39 1.6345 1.17841 0
M  V30 41517 O 3694.44 1.58798 1.96315 0
M  V30 41518 C 3695.76 2.8264 -1.02641 0
M  V30 41519 C 3697.3 2.9638 -1.00638 0
M  V30 41520 C 3697.78 4.2544 -1.69602 0
M  V30 41521 N 3699.27 4.32298 -1.66352 0
M  V30 41522 C 3700.01 5.3092 -2.1659 0
M  V30 41523 N 3699.5 6.35838 -2.75103 0
M  V30 41524 N 3701.29 5.22554 -2.07107 0
M  V30 41525 H 3693.45 1.3723 -1.62116 0
M  V30 41526 H 3695.71 0.658883 -0.681599 0
M  V30 41527 H 3695.41 2.83489 -2.08151 0
M  V30 41528 H 3695.29 3.72774 -0.576146 0
M  V30 41529 H 3697.68 2.95072 0.0403 0
M  V30 41530 H 3697.76 2.07543 -1.49532 0
M  V30 41531 H 3697.4 4.27507 -2.74226 0
M  V30 41532 H 3697.33 5.13168 -1.18177 0
M  V30 41533 H 3699.82 3.57098 -1.2365 0
M  V30 41534 H 3700.13 7.07406 -3.11121 0
M  V30 41535 H 3698.48 6.36469 -2.79163 0
M  V30 41536 H 3701.67 4.39504 -1.61101 0
M  V30 41537 H 3701.84 5.99256 -2.46568 0
M  V30 41538 N 3695.25 0.392045 1.52646 0
M  V30 41539 C 3696.16 -0.449052 2.30262 0
M  V30 41540 C 3697.18 -1.06902 1.37288 0
M  V30 41541 O 3698.35 -1.07424 1.70358 0
M  V30 41542 C 3695.42 -1.55964 3.09639 0
M  V30 41543 C 3694.48 -0.964492 4.18325 0
M  V30 41544 C 3693.71 -2.02216 4.93907 0
M  V30 41545 O 3693.93 -3.23765 4.69609 0
M  V30 41546 O 3692.87 -1.63792 5.79185 0
M  V30 41547 H 3696.69 0.183322 3.03146 0
M  V30 41548 H 3694.28 0.15569 1.48587 0
M  V30 41549 H 3696.16 -2.20476 3.59122 0
M  V30 41550 H 3694.84 -2.17693 2.39565 0
M  V30 41551 H 3693.74 -0.282552 3.73031 0
M  V30 41552 H 3695.08 -0.39138 4.90641 0
M  V30 41553 N 3696.73 -1.57127 0.121948 0
M  V30 41554 C 3697.68 -2.16729 -0.844465 0
M  V30 41555 C 3698.67 -1.11732 -1.27328 0
M  V30 41556 O 3699.88 -1.3003 -1.24467 0
M  V30 41557 H 3696.25 -0.693646 -0.290447 0
M  V30 41558 H 3698.22 -2.96708 -0.317327 0
M  V30 41559 C 3696.97 -2.7836 -2.08354 0
M  V30 41560 H 3696.29 -3.58853 -1.76251 0
M  V30 41561 H 3697.73 -3.23597 -2.73972 0
M  V30 41562 C 3696.19 -1.75591 -2.87523 0
M  V30 41563 O 3696.72 -1.21107 -3.83009 0
M  V30 41564 N 3694.93 -1.45464 -2.51572 0
M  V30 41565 H 3694.48 -1.89961 -1.7399 0
M  V30 41566 H 3694.43 -0.769464 -3.04839 0
M  V30 41567 N 3698.21 0.151829 -1.56867 0
M  V30 41568 C 3699.14 1.18945 -2.00934 0
M  V30 41569 C 3700.12 1.45076 -0.888088 0
M  V30 41570 O 3701.3 1.56079 -1.15556 0
M  V30 41571 C 3698.43 2.52379 -2.38584 0
M  V30 41572 C 3697.39 2.40779 -3.5385 0
M  V30 41573 C 3696.71 3.78879 -3.77299 0
M  V30 41574 C 3698.01 1.89596 -4.86673 0
M  V30 41575 H 3699.71 0.823057 -2.87865 0
M  V30 41576 H 3697.25 0.394474 -1.38492 0
M  V30 41577 H 3699.21 3.25188 -2.68012 0
M  V30 41578 H 3697.93 2.90844 -1.48584 0
M  V30 41579 H 3696.59 1.70421 -3.2458 0
M  V30 41580 H 3696.24 4.14772 -2.84558 0
M  V30 41581 H 3695.94 3.71981 -4.54867 0
M  V30 41582 H 3697.46 4.53245 -4.09147 0
M  V30 41583 H 3698.87 2.52195 -5.1485 0
M  V30 41584 H 3697.27 1.936 -5.68013 0
M  V30 41585 H 3698.34 0.851354 -4.77368 0
M  V30 41586 N 3699.68 1.51872 0.421024 0
M  V30 41587 C 3701.1 1.4041 0.758756 0
M  V30 41588 C 3701.3 0.499231 1.95218 0
M  V30 41589 O 3700.36 -0.0394772 2.52469 0
M  V30 41590 C 3701.67 2.82733 1.02384 0
M  V30 41591 C 3703.22 2.91996 1.12728 0
M  V30 41592 C 3703.69 4.35261 1.42519 0
M  V30 41593 N 3705.18 4.38442 1.49409 0
M  V30 41594 C 3705.92 5.46342 1.74064 0
M  V30 41595 N 3705.41 6.64378 1.96402 0
M  V30 41596 N 3707.21 5.33842 1.75981 0
M  V30 41597 H 3699.36 2.09245 -0.364719 0
M  V30 41598 H 3701.62 0.942622 -0.100836 0
M  V30 41599 H 3701.33 3.51015 0.219429 0
M  V30 41600 H 3701.2 3.23055 1.94718 0
M  V30 41601 H 3703.59 2.23902 1.92229 0
M  V30 41602 H 3703.67 2.55148 0.182566 0
M  V30 41603 H 3703.31 5.0391 0.635397 0
M  V30 41604 H 3703.24 4.69635 2.38223 0
M  V30 41605 H 3705.73 3.53351 1.33984 0
M  V30 41606 H 3706.05 7.42397 2.14631 0
M  V30 41607 H 3704.39 6.67465 1.93691 0
M  V30 41608 H 3707.58 4.40607 1.58059 0
M  V30 41609 H 3707.76 6.18009 1.94857 0
M  V30 41610 N 3701.16 -0.677513 1.42294 0
M  V30 41611 C 3702.58 -0.990312 1.2516 0
M  V30 41612 C 3702.78 -2.00912 0.153839 0
M  V30 41613 O 3701.83 -2.47976 -0.475824 0
M  V30 41614 C 3703.15 -1.49771 2.60748 0
M  V30 41615 C 3704.7 -1.61562 2.6808 0
M  V30 41616 C 3705.17 -2.15698 4.04028 0
M  V30 41617 N 3706.66 -2.23035 4.05968 0
M  V30 41618 C 3707.4 -2.65991 5.07973 0
M  V30 41619 N 3706.89 -3.08421 6.20362 0
M  V30 41620 N 3708.69 -2.65716 4.9533 0
M  V30 41621 H 3700.84 -0.00292089 2.124 0
M  V30 41622 H 3703.1 -0.0638234 0.945849 0
M  V30 41623 H 3702.81 -0.823612 3.4192 0
M  V30 41624 H 3702.68 -2.4769 2.84481 0
M  V30 41625 H 3705.07 -2.28078 1.87255 0
M  V30 41626 H 3705.15 -0.62139 2.48138 0
M  V30 41627 H 3704.79 -1.49792 4.85309 0
M  V30 41628 H 3704.72 -3.15907 4.2132 0
M  V30 41629 H 3707.21 -1.93116 3.2483 0
M  V30 41630 H 3707.53 -3.39877 6.94049 0
M  V30 41631 H 3705.87 -3.06285 6.23871 0
M  V30 41632 H 3709.06 -2.31929 4.06604 0
M  V30 41633 H 3709.23 -2.98874 5.7496 0
M  V30 41634 N 3702.64 -1.28421 -0.913554 0
M  V30 41635 C 3703.87 -1.18554 -1.70176 0
M  V30 41636 C 3704.29 0.252274 -1.86401 0
M  V30 41637 O 3703.65 1.18249 -1.37429 0
M  V30 41638 C 3703.7 -1.88935 -3.07142 0
M  V30 41639 O 3702.8 -1.19695 -3.94648 0
M  V30 41640 H 3702.14 -0.411542 -0.521085 0
M  V30 41641 H 3704.67 -1.69746 -1.14225 0
M  V30 41642 H 3704.68 -1.9685 -3.57371 0
M  V30 41643 H 3703.36 -2.9352 -2.9465 0
M  V30 41644 H 3701.93 -1.19945 -3.53083 0
M  V30 41645 N 3704.12 1.12202 -1.10672 0
M  V30 41646 C 3705.05 2.17742 -0.715619 0
M  V30 41647 C 3706.06 1.60887 0.248863 0
M  V30 41648 O 3707.25 1.7847 0.0329603 0
M  V30 41649 C 3704.35 3.38881 -0.0356984 0
M  V30 41650 C 3703.53 4.25221 -1.02498 0
M  V30 41651 C 3702.58 5.24854 -0.37609 0
M  V30 41652 O 3701.61 5.59847 -1.02762 0
M  V30 41653 N 3702.81 5.74028 0.864424 0
M  V30 41654 H 3705.58 2.51907 -1.62367 0
M  V30 41655 H 3703.14 1.27648 -0.995874 0
M  V30 41656 H 3705.13 4.02619 0.409929 0
M  V30 41657 H 3703.7 3.02846 0.774797 0
M  V30 41658 H 3702.92 3.58062 -1.6488 0
M  V30 41659 H 3704.21 4.79753 -1.69455 0
M  V30 41660 H 3703.61 5.47767 1.41308 0
M  V30 41661 H 3702.16 6.3964 1.25316 0
M  V30 41662 N 3705.6 0.895838 1.29663 0
M  V30 41663 C 3706.53 0.327979 2.26841 0
M  V30 41664 C 3707.54 -0.523551 1.54152 0
M  V30 41665 O 3708.73 -0.341336 1.75206 0
M  V30 41666 C 3705.83 -0.551335 3.34385 0
M  V30 41667 C 3705 0.27359 4.36544 0
M  V30 41668 C 3704.06 -0.537939 5.23443 0
M  V30 41669 O 3703.09 0.0432026 5.69184 0
M  V30 41670 N 3704.29 -1.84484 5.50405 0
M  V30 41671 H 3707.06 1.16319 2.76206 0
M  V30 41672 H 3704.62 0.759929 1.42957 0
M  V30 41673 H 3706.61 -1.10055 3.89448 0
M  V30 41674 H 3705.18 -1.28723 2.84867 0
M  V30 41675 H 3704.4 1.00423 3.81194 0
M  V30 41676 H 3705.69 0.838677 5.0184 0
M  V30 41677 H 3705.08 -2.33976 5.15045 0
M  V30 41678 H 3703.64 -2.34126 6.08299 0
M  V30 41679 N 3707.07 -1.43211 0.657914 0
M  V30 41680 C 3708.04 -2.2919 -0.021438 0
M  V30 41681 C 3709.04 -1.42454 -0.745896 0
M  V30 41682 O 3710.23 -1.64032 -0.586439 0
M  V30 41683 C 3707.36 -3.24614 -1.04109 0
M  V30 41684 H 3708.55 -2.90751 0.735124 0
M  V30 41685 H 3706.11 -1.50569 0.419381 0
M  V30 41686 H 3706.84 -2.67957 -1.82673 0
M  V30 41687 H 3706.63 -3.88566 -0.525217 0
M  V30 41688 H 3708.12 -3.89135 -1.51537 0
M  V30 41689 N 3708.55 -0.400135 -1.52436 0
M  V30 41690 C 3709.48 0.464999 -2.24434 0
M  V30 41691 C 3710.5 1.01771 -1.27069 0
M  V30 41692 O 3711.69 0.918188 -1.53074 0
M  V30 41693 C 3708.79 1.65827 -2.95558 0
M  V30 41694 C 3707.96 1.23103 -4.19719 0
M  V30 41695 C 3707.02 2.2902 -4.73747 0
M  V30 41696 O 3706.04 1.8998 -5.3656 0
M  V30 41697 N 3707.25 3.61072 -4.5454 0
M  V30 41698 H 3710.01 -0.151891 -2.99315 0
M  V30 41699 H 3707.57 -0.227047 -1.603 0
M  V30 41700 H 3709.56 2.3623 -3.28599 0
M  V30 41701 H 3708.13 2.18127 -2.23918 0
M  V30 41702 H 3707.35 0.355468 -3.92594 0
M  V30 41703 H 3708.64 0.922399 -5.00369 0
M  V30 41704 H 3708.04 3.95545 -4.04426 0
M  V30 41705 H 3706.6 4.27478 -4.92043 0
M  V30 41706 N 3710.03 1.57061 -0.13028 0
M  V30 41707 C 3711.31 1.87137 0.569138 0
M  V30 41708 C 3711.69 1.03341 1.84076 0
M  V30 41709 O 3711.04 0.11547 2.28208 0
M  V30 41710 C 3711.25 3.38473 0.850722 0
M  V30 41711 C 3712.59 4.07324 1.19885 0
M  V30 41712 O 3713.62 3.43556 0.940622 0
M  V30 41713 O 3712.48 5.19907 1.684 0
M  V30 41714 H 3709.57 0.775076 0.288419 0
M  V30 41715 H 3712.12 1.6889 -0.165633 0
M  V30 41716 H 3710.89 3.91268 -0.049925 0
M  V30 41717 H 3710.51 3.62189 1.64026 0
M  V30 41718 N 3711.51 -0.143508 1.56945 0
M  V30 41719 C 3712.74 -0.870368 1.87702 0
M  V30 41720 C 3713.15 -1.74579 0.718864 0
M  V30 41721 O 3712.51 -1.79826 -0.311255 0
M  V30 41722 C 3712.56 -1.72418 3.17733 0
M  V30 41723 O 3712.28 -0.884039 4.29088 0
M  V30 41724 C 3713.78 -2.55833 3.62028 0
M  V30 41725 H 3711 -0.251493 0.622087 0
M  V30 41726 H 3713.55 -0.135249 2.04052 0
M  V30 41727 H 3711.7 -2.41233 3.03126 0
M  V30 41728 H 3712.12 -1.47057 5.03463 0
M  V30 41729 H 3713.59 -3.11311 4.55839 0
M  V30 41730 H 3714.07 -3.32036 2.87486 0
M  V30 41731 H 3714.67 -1.92303 3.79341 0
M  V30 41732 N 3712.99 -1.52093 -0.412964 0
M  V30 41733 C 3714.21 -1.70099 -1.18664 0
M  V30 41734 C 3714.64 -0.408045 -1.83621 0
M  V30 41735 O 3714 0.634144 -1.69848 0
M  V30 41736 C 3714.04 -2.83511 -2.22832 0
M  V30 41737 O 3713.15 -2.48813 -3.28886 0
M  V30 41738 H 3712.49 -0.566379 -0.346571 0
M  V30 41739 H 3715.02 -1.98778 -0.484607 0
M  V30 41740 H 3715.03 -3.08311 -2.67223 0
M  V30 41741 H 3713.7 -3.7732 -1.74936 0
M  V30 41742 H 3712.28 -2.34671 -2.898 0
M  V30 41743 N 3714.47 0.669957 -1.42651 0
M  V30 41744 C 3715.71 1.43211 -1.43591 0
M  V30 41745 C 3716.04 1.94125 -0.0538339 0
M  V30 41746 O 3715.32 1.71221 0.922696 0
M  V30 41747 C 3715.6 2.62565 -2.46438 0
M  V30 41748 C 3715.46 2.17251 -3.93855 0
M  V30 41749 C 3716.77 3.64783 -2.46215 0
M  V30 41750 H 3713.89 0.519401 -0.522868 0
M  V30 41751 H 3716.54 0.760966 -1.74096 0
M  V30 41752 H 3714.69 3.19824 -2.20556 0
M  V30 41753 H 3716.36 1.65123 -4.30735 0
M  V30 41754 H 3714.6 1.48778 -4.07489 0
M  V30 41755 H 3715.27 3.03004 -4.61403 0
M  V30 41756 H 3717.75 3.1725 -2.69242 0
M  V30 41757 H 3716.62 4.45867 -3.20146 0
M  V30 41758 H 3716.88 4.1624 -1.48986 0
M  V30 41759 N 3715.94 1.28904 0.90673 0
M  V30 41760 C 3717.19 1.15842 1.65117 0
M  V30 41761 C 3717.51 -0.290791 1.93426 0
M  V30 41762 O 3718.71 -0.542631 2.66022 0
M  V30 41763 C 3717.17 2.02555 2.97489 0
M  V30 41764 C 3716.78 3.52258 2.768 0
M  V30 41765 C 3718.52 1.98199 3.7539 0
M  V30 41766 C 3716.43 4.31099 4.04856 0
M  V30 41767 H 3715.36 0.42995 0.619402 0
M  V30 41768 H 3718.01 1.53489 1.00565 0
M  V30 41769 H 3716.39 1.5777 3.63214 0
M  V30 41770 H 3717.56 4.05048 2.19711 0
M  V30 41771 H 3715.88 3.58213 2.12303 0
M  V30 41772 H 3718.48 2.54367 4.70321 0
M  V30 41773 H 3718.82 0.960338 4.05072 0
M  V30 41774 H 3719.35 2.4099 3.16494 0
M  V30 41775 H 3716.09 5.33872 3.80343 0
M  V30 41776 H 3715.61 3.8308 4.6153 0
M  V30 41777 H 3717.29 4.4139 4.73058 0
M  V30 41778 N 3717.42 -1.11614 1.11266 0
M  V30 41779 C 3718.65 -1.8766 0.883093 0
M  V30 41780 C 3719.07 -1.79522 -0.561554 0
M  V30 41781 O 3718.43 -1.15632 -1.39638 0
M  V30 41782 C 3718.48 -3.34496 1.34703 0
M  V30 41783 O 3717.58 -4.09139 0.517584 0
M  V30 41784 H 3716.92 -0.582767 0.318244 0
M  V30 41785 H 3719.45 -1.41096 1.48166 0
M  V30 41786 H 3719.46 -3.85341 1.34075 0
M  V30 41787 H 3718.14 -3.39735 2.39902 0
M  V30 41788 H 3716.71 -3.68206 0.589816 0
M  V30 41789 N 3718.9 -0.902701 -1.29186 0
M  V30 41790 C 3719.81 -0.387403 -2.31379 0
M  V30 41791 C 3720.83 0.519367 -1.66068 0
M  V30 41792 O 3722 0.408222 -1.97219 0
M  V30 41793 C 3719.07 0.374076 -3.44676 0
M  V30 41794 C 3718.13 -0.564578 -4.25571 0
M  V30 41795 C 3717.36 0.160655 -5.33458 0
M  V30 41796 O 3717.58 1.38413 -5.53352 0
M  V30 41797 O 3716.52 -0.498364 -5.99833 0
M  V30 41798 H 3720.34 -1.2353 -2.77442 0
M  V30 41799 H 3717.93 -0.667129 -1.33678 0
M  V30 41800 H 3719.81 0.804567 -4.13648 0
M  V30 41801 H 3718.49 1.19798 -3.00716 0
M  V30 41802 H 3717.39 -1.04424 -3.5923 0
M  V30 41803 H 3718.73 -1.35499 -4.73182 0
M  V30 41804 N 3720.38 1.4286 -0.6655 0
M  V30 41805 C 3721.33 2.27963 0.0411524 0
M  V30 41806 C 3722.31 1.40577 0.782738 0
M  V30 41807 O 3723.5 1.64106 0.663181 0
M  V30 41808 C 3720.63 3.28465 0.998275 0
M  V30 41809 C 3719.72 4.23336 0.25452 0
M  V30 41810 N 3720.11 5.00422 -0.735596 0
M  V30 41811 C 3718.41 4.43253 0.494267 0
M  V30 41812 C 3719.11 5.69644 -1.17817 0
M  V30 41813 N 3718.08 5.41203 -0.50996 0
M  V30 41814 H 3721.89 2.84984 -0.718431 0
M  V30 41815 H 3719.4 1.54711 -0.493791 0
M  V30 41816 H 3721.4 3.88226 1.51942 0
M  V30 41817 H 3720.06 2.73005 1.75779 0
M  V30 41818 H 3721.07 5.0576 -1.11479 0
M  V30 41819 H 3717.75 3.98847 1.234 0
M  V30 41820 H 3719.14 6.41502 -1.99811 0
M  V30 41821 N 3721.86 0.408213 1.52221 0
M  V30 41822 C 3723.08 -0.167393 2.06222 0
M  V30 41823 C 3723.5 -1.38938 1.27835 0
M  V30 41824 O 3722.86 -1.79492 0.329965 0
M  V30 41825 C 3722.91 -0.518741 3.57759 0
M  V30 41826 O 3722.63 0.654715 4.3318 0
M  V30 41827 C 3724.13 -1.14818 4.28173 0
M  V30 41828 H 3721.35 -0.0207936 0.670678 0
M  V30 41829 H 3723.89 0.578903 1.96135 0
M  V30 41830 H 3722.05 -1.21493 3.67856 0
M  V30 41831 H 3722.46 0.36165 5.23252 0
M  V30 41832 H 3723.94 -1.34423 5.35382 0
M  V30 41833 H 3724.41 -2.12101 3.8459 0
M  V30 41834 H 3725.02 -0.492217 4.22442 0
M  V30 41835 N 3723.33 -1.56989 0.138607 0
M  V30 41836 C 3724.61 -1.87436 -0.559206 0
M  V30 41837 C 3724.99 -1.04315 -1.83525 0
M  V30 41838 O 3724.34 -0.127571 -2.28144 0
M  V30 41839 C 3724.55 -3.38919 -0.83276 0
M  V30 41840 C 3725.9 -4.07954 -1.17723 0
M  V30 41841 O 3726.92 -3.4405 -0.922389 0
M  V30 41842 O 3725.78 -5.20793 -1.65641 0
M  V30 41843 H 3722.87 -0.776595 -0.284305 0
M  V30 41844 H 3725.42 -1.688 0.174587 0
M  V30 41845 H 3724.19 -3.91236 0.0706742 0
M  V30 41846 H 3723.81 -3.63054 -1.62103 0
M  V30 41847 N 3724.81 0.135183 -1.57019 0
M  V30 41848 C 3726.22 0.694036 -1.73321 0
M  V30 41849 C 3726.57 1.81098 -0.75484 0
M  V30 41850 O 3725.7 2.16267 0.0759083 0
M  V30 41851 C 3726.29 1.26574 -3.14268 0
M  V30 41852 C 3724.85 1.77104 -3.32131 0
M  V30 41853 C 3724 0.664216 -2.69228 0
M  V30 41854 H 3726.95 -0.0905981 -1.58441 0
M  V30 41855 H 3726.97 2.13551 -3.14922 0
M  V30 41856 H 3726.48 0.452584 -3.85452 0
M  V30 41857 H 3724.58 2.60949 -2.65963 0
M  V30 41858 H 3724.7 1.89162 -4.40175 0
M  V30 41859 H 3723.06 1.0938 -2.30017 0
M  V30 41860 H 3723.84 -0.137691 -3.43024 0
M  V30 41861 N 3726.29 1.5231 0.404892 0
M  V30 41862 C 3727.22 1.72189 1.51273 0
M  V30 41863 C 3728.24 0.602303 1.51249 0
M  V30 41864 O 3729.42 0.877576 1.55438 0
M  V30 41865 C 3726.52 1.75104 2.90158 0
M  V30 41866 C 3725.7 3.04166 3.14327 0
M  V30 41867 C 3724.76 2.98837 4.33108 0
M  V30 41868 O 3723.78 3.72735 4.30183 0
M  V30 41869 N 3724.98 2.1692 5.38448 0
M  V30 41870 H 3727.75 2.67767 1.34613 0
M  V30 41871 H 3725.31 1.506 0.594238 0
M  V30 41872 H 3727.3 1.69065 3.67694 0
M  V30 41873 H 3725.87 0.869809 3.00255 0
M  V30 41874 H 3725.09 3.23821 2.24797 0
M  V30 41875 H 3726.38 3.89537 3.2732 0
M  V30 41876 H 3725.78 1.56319 5.43674 0
M  V30 41877 H 3724.34 2.16735 6.14711 0
M  V30 41878 N 3727.77 -0.662382 1.43004 0
M  V30 41879 C 3729.18 -1.24333 1.39277 0
M  V30 41880 C 3729.53 -1.95983 0.0922343 0
M  V30 41881 O 3728.66 -2.00724 -0.808642 0
M  V30 41882 C 3729.25 -2.26129 2.52291 0
M  V30 41883 C 3727.81 -2.79722 2.51858 0
M  V30 41884 C 3726.96 -1.54226 2.30456 0
M  V30 41885 H 3729.91 -0.454975 1.52038 0
M  V30 41886 H 3729.93 -3.08119 2.23255 0
M  V30 41887 H 3729.44 -1.73953 3.46932 0
M  V30 41888 H 3727.54 -3.35987 1.6107 0
M  V30 41889 H 3727.65 -3.27892 3.49319 0
M  V30 41890 H 3726.02 -1.81244 1.78949 0
M  V30 41891 H 3726.8 -1.03997 3.27169 0
M  V30 41892 N 3729.25 -1.29383 -0.899882 0
M  V30 41893 C 3730.47 -1.20352 -1.68909 0
M  V30 41894 C 3730.9 0.23249 -1.86658 0
M  V30 41895 O 3730.25 1.16785 -1.38676 0
M  V30 41896 C 3730.3 -1.92182 -3.0512 0
M  V30 41897 O 3729.41 -1.23874 -3.93356 0
M  V30 41898 H 3728.75 -0.417045 -0.516691 0
M  V30 41899 H 3731.28 -1.70948 -1.12419 0
M  V30 41900 H 3731.29 -2.00629 -3.55263 0
M  V30 41901 H 3729.96 -2.96629 -2.9152 0
M  V30 41902 H 3728.54 -1.23684 -3.51791 0
M  V30 41903 N 3730.72 1.11022 -1.11856 0
M  V30 41904 C 3731.67 2.19274 -0.775999 0
M  V30 41905 C 3732.67 1.67769 0.234473 0
M  V30 41906 O 3733.87 1.79758 0.0933056 0
M  V30 41907 H 3730.25 0.714966 -0.233082 0
M  V30 41908 H 3732.22 2.45411 -1.69753 0
M  V30 41909 C 3730.97 3.46869 -0.240209 0
M  V30 41910 H 3730.29 3.86858 -1.00902 0
M  V30 41911 H 3731.73 4.23982 -0.0387545 0
M  V30 41912 C 3730.19 3.20753 1.0305 0
M  V30 41913 O 3730.72 3.41857 2.10942 0
M  V30 41914 N 3728.93 2.74459 0.955018 0
M  V30 41915 H 3728.47 2.57485 0.0769071 0
M  V30 41916 H 3728.43 2.57362 1.80588 0
M  V30 41917 N 3732.2 0.90954 1.28706 0
M  V30 41918 C 3733.15 0.393195 2.27426 0
M  V30 41919 C 3734.12 -0.530062 1.57415 0
M  V30 41920 O 3735.3 -0.453172 1.8534 0
M  V30 41921 C 3732.44 -0.364446 3.4317 0
M  V30 41922 C 3731.56 0.590832 4.27941 0
M  V30 41923 C 3730.69 -0.184838 5.30878 0
M  V30 41924 C 3729.73 0.764328 6.07309 0
M  V30 41925 N 3728.87 0.0224437 7.02096 0
M  V30 41926 H 3733.71 1.2401 2.70972 0
M  V30 41927 H 3731.25 0.622824 1.33264 0
M  V30 41928 H 3733.2 -0.819865 4.09065 0
M  V30 41929 H 3731.83 -1.17573 3.00627 0
M  V30 41930 H 3730.89 1.16478 3.62129 0
M  V30 41931 H 3732.2 1.31697 4.811 0
M  V30 41932 H 3731.35 -0.70101 6.02636 0
M  V30 41933 H 3730.09 -0.944058 4.78476 0
M  V30 41934 H 3729.1 1.29191 5.34406 0
M  V30 41935 H 3730.32 1.52304 6.61801 0
M  V30 41936 H 3728.27 -0.718863 6.52049 0
M  V30 41937 H 3728.18 0.688491 7.52858 0
M  V30 41938 H 3729.45 -0.47367 7.7806 0
M  V30 41939 N 3733.68 -1.42505 0.673067 0
M  V30 41940 C 3735.09 -1.84707 0.272082 0
M  V30 41941 C 3735.44 -1.5634 -1.18542 0
M  V30 41942 O 3734.57 -1.02235 -1.90728 0
M  V30 41943 C 3735.16 -3.35281 0.487036 0
M  V30 41944 C 3733.72 -3.76139 0.140188 0
M  V30 41945 C 3732.87 -2.66094 0.780323 0
M  V30 41946 H 3735.82 -1.32376 0.875352 0
M  V30 41947 H 3735.84 -3.79601 -0.261376 0
M  V30 41948 H 3735.35 -3.55895 1.5479 0
M  V30 41949 H 3733.45 -3.61132 -0.917303 0
M  V30 41950 H 3733.57 -4.75582 0.579501 0
M  V30 41951 H 3731.93 -2.53818 0.2118 0
M  V30 41952 H 3732.71 -2.89532 1.84461 0
M  V30 41953 N 3735.16 -0.41628 -1.52003 0
M  V30 41954 C 3736.09 0.39663 -2.30107 0
M  V30 41955 C 3737.07 1.03981 -1.34618 0
M  V30 41956 O 3738.25 1.04746 -1.6353 0
M  V30 41957 C 3735.38 1.50967 -3.12772 0
M  V30 41958 C 3734.34 0.991117 -4.16366 0
M  V30 41959 C 3733.66 2.1983 -4.87421 0
M  V30 41960 C 3734.96 0.0401681 -5.22285 0
M  V30 41961 H 3736.66 -0.255106 -2.98311 0
M  V30 41962 H 3734.2 -0.124131 -1.43464 0
M  V30 41963 H 3736.16 2.0854 -3.66182 0
M  V30 41964 H 3734.88 2.18939 -2.4235 0
M  V30 41965 H 3733.54 0.437739 -3.63977 0
M  V30 41966 H 3733.19 2.86373 -4.13521 0
M  V30 41967 H 3732.89 1.85782 -5.57457 0
M  V30 41968 H 3734.41 2.77996 -5.43646 0
M  V30 41969 H 3735.83 0.524926 -5.70892 0
M  V30 41970 H 3734.22 -0.211847 -5.99726 0
M  V30 41971 H 3735.29 -0.902961 -4.76419 0
M  V30 41972 N 3736.64 1.56914 -0.146931 0
M  V30 41973 C 3737.86 2.00487 0.511146 0
M  V30 41974 C 3738.28 1.02702 1.58423 0
M  V30 41975 O 3737.64 0.0240199 1.82484 0
M  V30 41976 C 3737.69 3.43977 1.11185 0
M  V30 41977 O 3737.41 4.38024 0.0816324 0
M  V30 41978 C 3738.91 4.02827 1.85054 0
M  V30 41979 H 3736.13 0.657673 0.133067 0
M  V30 41980 H 3738.67 2.03069 -0.241493 0
M  V30 41981 H 3736.83 3.42246 1.81511 0
M  V30 41982 H 3737.24 5.21899 0.521718 0
M  V30 41983 H 3738.72 5.05226 2.22376 0
M  V30 41984 H 3739.19 3.43535 2.73643 0
M  V30 41985 H 3739.8 4.08188 1.19427 0
M  V30 41986 N 3738.11 -0.126854 1.57089 0
M  V30 41987 C 3739.35 -0.841998 1.86252 0
M  V30 41988 C 3739.72 -1.7742 0.733899 0
M  V30 41989 O 3740.92 -2.53032 0.907095 0
M  V30 41990 C 3739.19 -1.57891 3.20633 0
M  V30 41991 S 3740.75 -2.33671 3.71407 0
M  V30 41992 H 3737.57 -0.281178 0.653039 0
M  V30 41993 H 3740.17 -0.10079 1.9524 0
M  V30 41994 H 3738.87 -0.885912 4.00724 0
M  V30 41995 H 3738.4 -2.36064 3.14702 0
M  V30 41996 H 3740.42 -3.59247 3.42281 0
M  V30 41997 N 3739.59 -1.52523 -0.396809 0
M  V30 41998 C 3740.84 -1.66855 -1.14034 0
M  V30 41999 C 3741.16 -0.407021 -1.90705 0
M  V30 42000 O 3740.43 0.57841 -1.87166 0
M  V30 42001 H 3739.01 -0.615036 -0.423957 0
M  V30 42002 H 3741.67 -1.8961 -0.451008 0
M  V30 42003 H 3740.77 -2.51536 -1.84759 0
M  V30 42004 N 3741.07 0.654789 -1.43354 0
M  V30 42005 C 3742.32 1.41191 -1.44601 0
M  V30 42006 C 3742.64 1.94871 -0.0708298 0
M  V30 42007 O 3741.91 1.74332 0.893607 0
M  V30 42008 H 3740.49 0.524002 -0.532382 0
M  V30 42009 H 3743.15 0.772357 -1.78943 0
M  V30 42010 H 3742.25 2.25504 -2.15765 0
M  V30 42011 N 3742.55 1.29858 0.893007 0
M  V30 42012 C 3743.8 1.17984 1.64086 0
M  V30 42013 C 3744.12 -0.267499 1.93157 0
M  V30 42014 O 3743.39 -1.18183 1.56235 0
M  V30 42015 H 3741.97 0.433661 0.608233 0
M  V30 42016 H 3744.63 1.62876 1.07039 0
M  V30 42017 H 3743.73 1.73481 2.59443 0
M  V30 42018 N 3744.03 -1.10427 1.12443 0
M  V30 42019 C 3745.25 -1.86713 0.902947 0
M  V30 42020 C 3745.68 -1.80108 -0.542482 0
M  V30 42021 O 3745.04 -1.17107 -1.38404 0
M  V30 42022 C 3745.08 -3.33048 1.38244 0
M  V30 42023 O 3744.19 -4.08567 0.560949 0
M  V30 42024 H 3743.53 -0.579359 0.324407 0
M  V30 42025 H 3746.06 -1.39516 1.49654 0
M  V30 42026 H 3746.07 -3.83898 1.38155 0
M  V30 42027 H 3744.74 -3.37172 2.43492 0
M  V30 42028 H 3743.32 -3.6756 0.628836 0
M  V30 42029 N 3745.51 -0.916353 -1.28221 0
M  V30 42030 C 3746.75 -0.549769 -1.94479 0
M  V30 42031 C 3747.07 0.909969 -1.72466 0
M  V30 42032 O 3746.34 1.64366 -1.06586 0
M  V30 42033 H 3744.92 -0.200328 -0.719637 0
M  V30 42034 H 3747.59 -1.16628 -1.56154 0
M  V30 42035 H 3746.68 -0.746416 -3.03043 0
M  V30 42036 N 3746.98 1.42146 -0.680615 0
M  V30 42037 C 3748.23 2.00681 -0.20248 0
M  V30 42038 C 3748.55 1.54469 1.19994 0
M  V30 42039 O 3749.75 2.05462 1.77475 0
M  V30 42040 C 3748.21 3.58553 -0.311127 0
M  V30 42041 C 3747.82 4.13751 -1.71797 0
M  V30 42042 C 3749.56 4.24363 0.107997 0
M  V30 42043 C 3747.47 5.64006 -1.77907 0
M  V30 42044 H 3746.4 0.75056 -0.0719398 0
M  V30 42045 H 3749.05 1.62801 -0.846642 0
M  V30 42046 H 3747.43 3.93964 0.401029 0
M  V30 42047 H 3748.6 3.89788 -2.45768 0
M  V30 42048 H 3746.92 3.60413 -2.08545 0
M  V30 42049 H 3749.52 5.34636 0.0825744 0
M  V30 42050 H 3749.86 4.00266 1.14424 0
M  V30 42051 H 3750.39 3.93933 -0.553355 0
M  V30 42052 H 3747.13 5.92909 -2.79533 0
M  V30 42053 H 3746.65 5.89942 -1.083 0
M  V30 42054 H 3748.33 6.28524 -1.53515 0
M  V30 42055 N 3748.46 0.424336 1.5178 0
M  V30 42056 C 3749.71 -0.146674 2.02269 0
M  V30 42057 C 3750.04 -1.43488 1.30862 0
M  V30 42058 O 3749.32 -1.89921 0.419537 0
M  V30 42059 C 3749.6 -0.378798 3.58102 0
M  V30 42060 C 3749.45 0.927147 4.40141 0
M  V30 42061 C 3750.77 -1.15431 4.24693 0
M  V30 42062 H 3747.89 -0.0518327 0.735175 0
M  V30 42063 H 3750.53 0.560785 1.81536 0
M  V30 42064 H 3748.68 -0.98143 3.75899 0
M  V30 42065 H 3750.35 1.56276 4.34022 0
M  V30 42066 H 3748.6 1.53471 4.05745 0
M  V30 42067 H 3749.27 0.718933 5.47298 0
M  V30 42068 H 3751.74 -0.643968 4.11087 0
M  V30 42069 H 3750.62 -1.28548 5.33635 0
M  V30 42070 H 3750.88 -2.17899 3.84672 0
M  V30 42071 N 3749.94 -1.56833 0.15525 0
M  V30 42072 C 3750.87 -2.14319 -0.812411 0
M  V30 42073 C 3751.88 -1.09469 -1.20501 0
M  V30 42074 O 3753.07 -1.36716 -1.14765 0
M  V30 42075 C 3750.17 -2.65778 -2.10274 0
M  V30 42076 C 3749.35 -3.95116 -1.87623 0
M  V30 42077 C 3748.41 -4.31801 -3.00723 0
M  V30 42078 O 3747.43 -4.99975 -2.72055 0
M  V30 42079 N 3748.63 -3.92052 -4.28107 0
M  V30 42080 H 3751.4 -2.97975 -0.321054 0
M  V30 42081 H 3748.96 -1.61876 -0.0280576 0
M  V30 42082 H 3750.95 -2.87328 -2.85 0
M  V30 42083 H 3749.52 -1.868 -2.50648 0
M  V30 42084 H 3748.74 -3.82108 -0.968891 0
M  V30 42085 H 3750.03 -4.79617 -1.69837 0
M  V30 42086 H 3749.43 -3.37137 -4.54264 0
M  V30 42087 H 3747.98 -4.18636 -4.99587 0
M  V30 42088 N 3751.42 0.118521 -1.57154 0
M  V30 42089 C 3752.37 1.16436 -2.01359 0
M  V30 42090 C 3753.36 1.42844 -0.910599 0
M  V30 42091 O 3754.57 1.42801 -1.0958 0
M  V30 42092 H 3750.94 0.392596 -0.641383 0
M  V30 42093 H 3752.91 0.765037 -2.88426 0
M  V30 42094 C 3751.66 2.48277 -2.43421 0
M  V30 42095 H 3750.98 2.28795 -3.27861 0
M  V30 42096 H 3752.42 3.20015 -2.78149 0
M  V30 42097 C 3750.88 3.1089 -1.29804 0
M  V30 42098 O 3751.41 3.96975 -0.614276 0
M  V30 42099 N 3749.62 2.70774 -1.05498 0
M  V30 42100 H 3749.17 2.00865 -1.61279 0
M  V30 42101 H 3749.12 3.12997 -0.296733 0
M  V30 42102 N 3752.9 1.52731 0.388715 0
M  V30 42103 C 3754.12 1.71666 1.15492 0
M  V30 42104 C 3754.54 0.435159 1.83717 0
M  V30 42105 O 3753.9 -0.590381 1.72687 0
M  V30 42106 C 3753.95 2.86639 2.20274 0
M  V30 42107 O 3753.67 4.09828 1.54831 0
M  V30 42108 C 3755.17 3.17255 3.09619 0
M  V30 42109 H 3752.39 0.574756 0.346261 0
M  V30 42110 H 3754.93 1.99381 0.454694 0
M  V30 42111 H 3753.09 2.61384 2.85932 0
M  V30 42112 H 3753.5 4.74045 2.24457 0
M  V30 42113 H 3754.98 4.01166 3.7917 0
M  V30 42114 H 3755.45 2.31649 3.73142 0
M  V30 42115 H 3756.06 3.4435 2.49606 0
M  V30 42116 N 3754.37 -0.647178 1.43699 0
M  V30 42117 C 3755.32 -1.75984 1.49326 0
M  V30 42118 C 3756.29 -1.62532 0.342408 0
M  V30 42119 O 3757.48 -1.82689 0.550411 0
M  V30 42120 C 3754.62 -3.14167 1.42806 0
M  V30 42121 C 3753.73 -3.38709 2.68142 0
M  V30 42122 C 3752.86 -4.66773 2.53567 0
M  V30 42123 C 3751.9 -4.84441 3.74144 0
M  V30 42124 N 3751.04 -6.03767 3.58342 0
M  V30 42125 H 3755.88 -1.7051 2.44398 0
M  V30 42126 H 3753.42 -0.831999 1.2131 0
M  V30 42127 H 3755.37 -3.94058 1.37018 0
M  V30 42128 H 3754 -3.18696 0.513113 0
M  V30 42129 H 3753.06 -2.52872 2.84183 0
M  V30 42130 H 3754.37 -3.47648 3.5769 0
M  V30 42131 H 3753.52 -5.54801 2.45522 0
M  V30 42132 H 3752.26 -4.60165 1.61553 0
M  V30 42133 H 3751.27 -3.94847 3.82591 0
M  V30 42134 H 3752.49 -4.92875 4.67174 0
M  V30 42135 H 3750.44 -5.9828 2.69068 0
M  V30 42136 H 3750.35 -6.13692 4.41496 0
M  V30 42137 H 3751.62 -6.944 3.5416 0
M  V30 42138 N 3755.85 -1.3033 -0.886108 0
M  V30 42139 C 3756.82 -1.16597 -1.97326 0
M  V30 42140 C 3757.82 -0.0975305 -1.60504 0
M  V30 42141 O 3759.01 -0.345554 -1.70738 0
M  V30 42142 C 3756.14 -0.786103 -3.31713 0
M  V30 42143 H 3757.33 -2.13181 -2.10936 0
M  V30 42144 H 3754.88 -1.1371 -1.07236 0
M  V30 42145 H 3755.62 0.179277 -3.23804 0
M  V30 42146 H 3755.4 -1.55824 -3.59807 0
M  V30 42147 H 3756.89 -0.713462 -4.1146 0
M  V30 42148 N 3757.33 1.0983 -1.13028 0
M  V30 42149 C 3758.26 2.18388 -0.826377 0
M  V30 42150 C 3759.24 1.68767 0.212499 0
M  V30 42151 O 3760.43 1.94065 0.0723288 0
M  V30 42152 C 3757.56 3.46112 -0.287052 0
M  V30 42153 C 3756.51 4.09042 -1.2597 0
M  V30 42154 C 3755.84 5.31541 -0.580324 0
M  V30 42155 C 3757.14 4.52025 -2.61669 0
M  V30 42156 H 3758.83 2.44067 -1.73412 0
M  V30 42157 H 3756.38 1.17303 -0.835221 0
M  V30 42158 H 3758.33 4.21354 -0.0621411 0
M  V30 42159 H 3757.05 3.19943 0.656064 0
M  V30 42160 H 3755.71 3.35814 -1.47053 0
M  V30 42161 H 3755.36 5.01651 0.368134 0
M  V30 42162 H 3755.06 5.74599 -1.2292 0
M  V30 42163 H 3756.58 6.0951 -0.364597 0
M  V30 42164 H 3758 5.18512 -2.44578 0
M  V30 42165 H 3756.4 5.05953 -3.22694 0
M  V30 42166 H 3757.47 3.64632 -3.19643 0
M  V30 42167 N 3758.81 0.92314 1.27734 0
M  V30 42168 C 3760.06 0.557028 1.93856 0
M  V30 42169 C 3760.37 -0.905316 1.73388 0
M  V30 42170 O 3761.58 -1.38 2.33812 0
M  V30 42171 C 3760.03 0.945401 3.47261 0
M  V30 42172 C 3759.64 2.42811 3.76492 0
M  V30 42173 C 3761.38 0.650324 4.19489 0
M  V30 42174 C 3759.29 2.75613 5.23251 0
M  V30 42175 H 3758.22 0.204604 0.725709 0
M  V30 42176 H 3760.87 1.12333 1.45098 0
M  V30 42177 H 3759.25 0.30779 3.94802 0
M  V30 42178 H 3760.43 3.11325 3.39725 0
M  V30 42179 H 3758.74 2.69462 3.17458 0
M  V30 42180 H 3761.34 0.871944 5.27543 0
M  V30 42181 H 3761.68 -0.412279 4.14253 0
M  V30 42182 H 3762.22 1.24683 3.77755 0
M  V30 42183 H 3758.96 3.80764 5.33572 0
M  V30 42184 H 3758.48 2.11745 5.61181 0
M  V30 42185 H 3760.15 2.63114 5.91084 0
M  V30 42186 N 3760.29 -1.41783 0.688143 0
M  V30 42187 C 3761.22 -2.33478 0.0323609 0
M  V30 42188 C 3762.2 -1.51413 -0.775118 0
M  V30 42189 O 3763.38 -1.79974 -0.729589 0
M  V30 42190 C 3760.51 -3.35164 -0.910082 0
M  V30 42191 C 3759.47 -4.27483 -0.210237 0
M  V30 42192 C 3758.79 -5.19483 -1.26653 0
M  V30 42193 C 3760.09 -5.14153 0.918929 0
M  V30 42194 H 3761.79 -2.88564 0.798189 0
M  V30 42195 H 3759.33 -1.3875 0.385286 0
M  V30 42196 H 3761.29 -3.98231 -1.37803 0
M  V30 42197 H 3760.01 -2.78411 -1.70749 0
M  V30 42198 H 3758.67 -3.65829 0.237608 0
M  V30 42199 H 3758.32 -4.5905 -2.05627 0
M  V30 42200 H 3758.02 -5.82083 -0.803314 0
M  V30 42201 H 3759.54 -5.85427 -1.73514 0
M  V30 42202 H 3760.95 -5.7083 0.531599 0
M  V30 42203 H 3759.35 -5.85654 1.30877 0
M  V30 42204 H 3760.42 -4.51759 1.76188 0
M  V30 42205 N 3761.76 -0.432379 -1.51553 0
M  V30 42206 C 3762.71 0.381562 -2.27624 0
M  V30 42207 C 3763.68 1.02112 -1.31005 0
M  V30 42208 O 3764.87 1.04097 -1.59901 0
M  V30 42209 C 3762.01 1.47954 -3.11775 0
M  V30 42210 C 3761.12 0.858608 -4.23382 0
M  V30 42211 C 3760.25 1.93122 -4.94851 0
M  V30 42212 C 3759.29 1.28846 -5.98385 0
M  V30 42213 N 3758.43 2.30221 -6.63282 0
M  V30 42214 H 3763.27 -0.273524 -2.96742 0
M  V30 42215 H 3760.81 -0.146732 -1.46366 0
M  V30 42216 H 3762.77 2.12736 -3.58886 0
M  V30 42217 H 3761.4 2.10433 -2.44782 0
M  V30 42218 H 3760.45 0.0992129 -3.80271 0
M  V30 42219 H 3761.76 0.349294 -4.97576 0
M  V30 42220 H 3760.91 2.65577 -5.45485 0
M  V30 42221 H 3759.65 2.47425 -4.20276 0
M  V30 42222 H 3758.66 0.549344 -5.47049 0
M  V30 42223 H 3759.88 0.752822 -6.74914 0
M  V30 42224 H 3757.83 2.83614 -5.91523 0
M  V30 42225 H 3757.75 1.84168 -7.33225 0
M  V30 42226 H 3759.01 3.02176 -7.18547 0
M  V30 42227 N 3763.24 1.56749 -0.163565 0
M  V30 42228 C 3764.47 2.01454 0.493051 0
M  V30 42229 C 3764.89 1.04302 1.56533 0
M  V30 42230 O 3764.25 0.0213358 1.81287 0
M  V30 42231 C 3764.3 3.4481 1.0554 0
M  V30 42232 O 3763.4 3.5071 2.16971 0
M  V30 42233 H 3762.74 0.653269 0.118894 0
M  V30 42234 H 3765.27 2.02874 -0.265175 0
M  V30 42235 H 3765.28 3.83955 1.37995 0
M  V30 42236 H 3763.96 4.15021 0.27026 0
M  V30 42237 H 3762.54 3.23419 1.85619 0
M  V30 42238 N 3764.72 -0.110185 1.57214 0
M  V30 42239 C 3765.63 -1.15339 2.04289 0
M  V30 42240 C 3766.65 -1.44794 0.964921 0
M  V30 42241 O 3767.82 -1.55735 1.27705 0
M  V30 42242 C 3764.89 -2.45784 2.44522 0
M  V30 42243 C 3763.95 -2.23647 3.66443 0
M  V30 42244 C 3763.18 -3.47872 4.04748 0
M  V30 42245 O 3763.4 -4.55523 3.43299 0
M  V30 42246 O 3762.34 -3.38352 4.97796 0
M  V30 42247 H 3766.16 -0.783605 2.93417 0
M  V30 42248 H 3763.75 -0.321618 1.45897 0
M  V30 42249 H 3765.63 -3.22623 2.71094 0
M  V30 42250 H 3764.31 -2.82219 1.58538 0
M  V30 42251 H 3763.21 -1.44637 3.45009 0
M  V30 42252 H 3764.55 -1.92112 4.5316 0
M  V30 42253 N 3766.2 -1.52935 -0.38061 0
M  V30 42254 C 3767.15 -1.7469 -1.46518 0
M  V30 42255 C 3768.13 -0.601114 -1.4925 0
M  V30 42256 O 3769.32 -0.859252 -1.54745 0
M  V30 42257 C 3766.45 -1.92673 -2.84134 0
M  V30 42258 C 3765.54 -3.13209 -2.85939 0
M  V30 42259 N 3765.93 -4.35403 -2.57405 0
M  V30 42260 C 3764.23 -3.13625 -3.17105 0
M  V30 42261 C 3764.93 -5.17058 -2.66507 0
M  V30 42262 N 3763.91 -4.52931 -3.0059 0
M  V30 42263 H 3767.71 -2.66787 -1.23297 0
M  V30 42264 H 3765.22 -1.51356 -0.588649 0
M  V30 42265 H 3767.22 -2.06382 -3.62232 0
M  V30 42266 H 3765.88 -1.01795 -3.08331 0
M  V30 42267 H 3766.89 -4.63393 -2.31273 0
M  V30 42268 H 3763.57 -2.32586 -3.46713 0
M  V30 42269 H 3764.96 -6.24488 -2.4792 0
M  V30 42270 N 3767.68 0.639548 -1.4404 0
M  V30 42271 C 3768.93 1.39519 -1.45662 0
M  V30 42272 C 3769.24 1.95394 -0.0898221 0
M  V30 42273 O 3770.44 2.71495 0.0164596 0
M  V30 42274 C 3768.9 2.52562 -2.56399 0
M  V30 42275 C 3768.51 2.03236 -3.99248 0
M  V30 42276 C 3770.25 3.29829 -2.67232 0
M  V30 42277 C 3768.16 3.13572 -5.01425 0
M  V30 42278 H 3767.09 0.524268 -0.541903 0
M  V30 42279 H 3769.74 0.688911 -1.70077 0
M  V30 42280 H 3768.12 3.25725 -2.25209 0
M  V30 42281 H 3769.3 1.36994 -4.39965 0
M  V30 42282 H 3767.61 1.38809 -3.92583 0
M  V30 42283 H 3770.21 4.12066 -3.40743 0
M  V30 42284 H 3770.55 3.7876 -1.72762 0
M  V30 42285 H 3771.08 2.63753 -2.9779 0
M  V30 42286 H 3767.82 2.69595 -5.97494 0
M  V30 42287 H 3767.34 3.78482 -4.65308 0
M  V30 42288 H 3769.02 3.78484 -5.24747 0
M  V30 42289 N 3769.15 1.30798 0.879184 0
M  V30 42290 C 3770.57 1.09255 1.16342 0
M  V30 42291 C 3770.77 -0.142957 2.00992 0
M  V30 42292 O 3769.83 -0.834925 2.38297 0
M  V30 42293 C 3771.14 2.35919 1.86448 0
M  V30 42294 C 3772.69 2.41439 1.99188 0
M  V30 42295 C 3773.16 3.6796 2.72708 0
M  V30 42296 N 3774.65 3.68801 2.8025 0
M  V30 42297 C 3775.39 4.6339 3.37724 0
M  V30 42298 N 3774.88 5.68327 3.96202 0
M  V30 42299 N 3776.68 4.50924 3.35595 0
M  V30 42300 H 3768.83 2.10053 0.314891 0
M  V30 42301 H 3771.09 0.926214 0.20207 0
M  V30 42302 H 3770.8 3.26113 1.31694 0
M  V30 42303 H 3770.67 2.45011 2.86792 0
M  V30 42304 H 3773.06 1.5172 2.53111 0
M  V30 42305 H 3773.14 2.36318 0.979149 0
M  V30 42306 H 3772.78 4.58041 2.19456 0
M  V30 42307 H 3772.71 3.70345 3.74369 0
M  V30 42308 H 3775.2 2.92939 2.38737 0
M  V30 42309 H 3775.52 6.36594 4.38141 0
M  V30 42310 H 3773.86 5.72112 3.94605 0
M  V30 42311 H 3777.05 3.68124 2.89141 0
M  V30 42312 H 3777.23 5.2482 3.8009 0
M  V30 42313 N 3770.63 -1.09229 1.13608 0
M  V30 42314 C 3771.56 -2.17947 0.837947 0
M  V30 42315 C 3772.54 -1.68878 -0.203546 0
M  V30 42316 O 3773.73 -1.94101 -0.0620361 0
M  V30 42317 C 3770.86 -3.45955 0.305403 0
M  V30 42318 C 3769.81 -4.08368 1.28138 0
M  V30 42319 C 3769.14 -5.31226 0.608505 0
M  V30 42320 C 3770.44 -4.50631 2.64063 0
M  V30 42321 H 3772.13 -2.43143 1.74704 0
M  V30 42322 H 3769.68 -1.16859 0.84143 0
M  V30 42323 H 3771.63 -4.21315 0.0844856 0
M  V30 42324 H 3770.36 -3.20286 -0.639088 0
M  V30 42325 H 3769.02 -3.35029 1.48832 0
M  V30 42326 H 3768.66 -5.01839 -0.341525 0
M  V30 42327 H 3768.36 -5.73939 1.25966 0
M  V30 42328 H 3769.89 -6.09309 0.396916 0
M  V30 42329 H 3771.3 -5.17207 2.47325 0
M  V30 42330 H 3769.7 -5.04235 3.25373 0
M  V30 42331 H 3770.77 -3.62931 3.21573 0
M  V30 42332 N 3772.11 -0.929901 -1.27242 0
M  V30 42333 C 3773.02 -0.436395 -2.30505 0
M  V30 42334 C 3774.04 0.484024 -1.67132 0
M  V30 42335 O 3775.21 0.366297 -1.98041 0
M  V30 42336 C 3772.28 0.300881 -3.45392 0
M  V30 42337 C 3771.34 -0.654721 -4.24278 0
M  V30 42338 C 3770.57 0.0474642 -5.33679 0
M  V30 42339 O 3770.8 1.26645 -5.56163 0
M  V30 42340 O 3769.73 -0.625486 -5.98641 0
M  V30 42341 H 3773.56 -1.29387 -2.74759 0
M  V30 42342 H 3771.14 -0.695334 -1.32233 0
M  V30 42343 H 3773.02 0.716645 -4.15262 0
M  V30 42344 H 3771.7 1.13393 -3.03189 0
M  V30 42345 H 3770.6 -1.12021 -3.56934 0
M  V30 42346 H 3771.94 -1.45505 -4.70201 0
M  V30 42347 N 3773.59 1.41416 -0.695653 0
M  V30 42348 C 3774.54 2.3078 -0.0303788 0
M  V30 42349 C 3775.51 1.47112 0.771192 0
M  V30 42350 O 3776.69 1.75899 0.739208 0
M  V30 42351 C 3773.83 3.33158 0.899976 0
M  V30 42352 C 3772.94 4.31906 0.0900102 0
M  V30 42353 C 3772.08 5.21354 1.01801 0
M  V30 42354 C 3771.12 6.1177 0.20096 0
M  V30 42355 N 3770.26 6.93701 1.08277 0
M  V30 42356 H 3775.1 2.87111 -0.798199 0
M  V30 42357 H 3772.63 1.41405 -0.405335 0
M  V30 42358 H 3774.59 3.91065 1.45342 0
M  V30 42359 H 3773.22 2.78377 1.63419 0
M  V30 42360 H 3772.27 3.75947 -0.580356 0
M  V30 42361 H 3773.58 4.95831 -0.543423 0
M  V30 42362 H 3772.74 5.84095 1.64068 0
M  V30 42363 H 3771.48 4.57656 1.6853 0
M  V30 42364 H 3770.48 5.48078 -0.434783 0
M  V30 42365 H 3771.71 6.77523 -0.462535 0
M  V30 42366 H 3769.65 6.32611 1.73608 0
M  V30 42367 H 3769.57 7.54312 0.504913 0
M  V30 42368 H 3770.84 7.60909 1.69225 0
M  V30 42369 N 3775.07 0.44041 1.51321 0
M  V30 42370 C 3775.98 -0.375569 2.31574 0
M  V30 42371 C 3776.99 -1.0248 1.40619 0
M  V30 42372 O 3778.17 -1.0195 1.7369 0
M  V30 42373 C 3775.23 -1.46034 3.14444 0
M  V30 42374 C 3774.3 -0.830917 4.21182 0
M  V30 42375 C 3773.53 -1.864 5.00091 0
M  V30 42376 O 3773.75 -3.08661 4.79671 0
M  V30 42377 O 3772.69 -1.45283 5.84103 0
M  V30 42378 H 3776.51 0.279673 3.0241 0
M  V30 42379 H 3774.1 0.202883 1.48016 0
M  V30 42380 H 3775.98 -2.08939 3.65954 0
M  V30 42381 H 3774.65 -2.09961 2.4637 0
M  V30 42382 H 3773.56 -0.163732 3.73742 0
M  V30 42383 H 3774.89 -0.235088 4.91638 0
M  V30 42384 N 3776.55 -1.5666 0.171876 0
M  V30 42385 C 3777.79 -1.96075 -0.473026 0
M  V30 42386 C 3778.11 -1.06057 -1.64351 0
M  V30 42387 O 3779.31 -1.35155 -2.35468 0
M  V30 42388 C 3777.77 -3.48647 -0.892933 0
M  V30 42389 C 3777.38 -4.47291 0.251981 0
M  V30 42390 C 3779.12 -3.96879 -1.50622 0
M  V30 42391 C 3777.03 -5.91102 -0.187588 0
M  V30 42392 H 3775.96 -0.732079 -0.180491 0
M  V30 42393 H 3778.61 -1.81646 0.260196 0
M  V30 42394 H 3776.99 -3.58496 -1.68215 0
M  V30 42395 H 3778.17 -4.49157 1.02931 0
M  V30 42396 H 3776.48 -4.09119 0.775265 0
M  V30 42397 H 3779.08 -5.01781 -1.84715 0
M  V30 42398 H 3779.42 -3.39849 -2.40434 0
M  V30 42399 H 3779.95 -3.90049 -0.781433 0
M  V30 42400 H 3776.69 -6.52007 0.675768 0
M  V30 42401 H 3776.21 -5.92542 -0.930265 0
M  V30 42402 H 3777.89 -6.43913 -0.631272 0
M  V30 42403 N 3778.02 0.101846 -1.57271 0
M  V30 42404 C 3779.25 0.824182 -1.90321 0
M  V30 42405 C 3779.67 1.71819 -0.7655 0
M  V30 42406 O 3779.03 1.79074 0.283244 0
M  V30 42407 C 3779.08 1.61917 -3.22204 0
M  V30 42408 O 3778.18 2.72757 -3.09318 0
M  V30 42409 H 3777.52 0.226853 -0.624046 0
M  V30 42410 H 3780.05 0.0790955 -2.04447 0
M  V30 42411 H 3780.06 2.00481 -3.55347 0
M  V30 42412 H 3778.74 0.963007 -4.04597 0
M  V30 42413 H 3777.32 2.37269 -2.87676 0
M  V30 42414 N 3779.5 1.53135 0.372494 0
M  V30 42415 C 3780.45 1.79084 1.45594 0
M  V30 42416 C 3781.42 0.634847 1.53489 0
M  V30 42417 O 3782.6 0.876306 1.69486 0
M  V30 42418 C 3779.74 1.98031 2.82626 0
M  V30 42419 C 3778.86 3.25743 2.83752 0
M  V30 42420 C 3777.99 3.34916 4.12316 0
M  V30 42421 C 3777.03 4.56687 4.07557 0
M  V30 42422 N 3776.17 4.63051 5.27757 0
M  V30 42423 H 3781.01 2.71537 1.22766 0
M  V30 42424 H 3778.54 1.34518 0.595261 0
M  V30 42425 H 3780.5 2.07003 3.62223 0
M  V30 42426 H 3779.13 1.08922 3.03868 0
M  V30 42427 H 3778.18 3.2576 1.96429 0
M  V30 42428 H 3779.5 4.15411 2.76107 0
M  V30 42429 H 3778.65 3.43161 5.00325 0
M  V30 42430 H 3777.39 2.43252 4.22705 0
M  V30 42431 H 3776.39 4.4855 3.17935 0
M  V30 42432 H 3777.62 5.49685 3.98777 0
M  V30 42433 H 3775.57 3.74286 5.38745 0
M  V30 42434 H 3775.48 5.46614 5.22254 0
M  V30 42435 H 3776.75 4.75571 6.17618 0
M  V30 42436 N 3780.98 -0.6319 1.44377 0
M  V30 42437 C 3781.91 -1.7551 1.54009 0
M  V30 42438 C 3782.89 -1.65494 0.393155 0
M  V30 42439 O 3784.08 -1.84266 0.613175 0
M  V30 42440 C 3781.21 -3.14036 1.48319 0
M  V30 42441 C 3780.16 -3.38839 2.6148 0
M  V30 42442 C 3779.49 -4.77388 2.40842 0
M  V30 42443 C 3780.79 -3.31478 4.03633 0
M  V30 42444 H 3782.48 -1.67706 2.48022 0
M  V30 42445 H 3780.03 -0.805409 1.1937 0
M  V30 42446 H 3781.98 -3.92387 1.53657 0
M  V30 42447 H 3780.7 -3.22622 0.508209 0
M  V30 42448 H 3779.36 -2.62869 2.5553 0
M  V30 42449 H 3779.01 -4.82676 1.41538 0
M  V30 42450 H 3778.71 -4.94942 3.16712 0
M  V30 42451 H 3780.23 -5.57969 2.47997 0
M  V30 42452 H 3781.65 -3.99734 4.10957 0
M  V30 42453 H 3780.04 -3.60566 4.797 0
M  V30 42454 H 3781.11 -2.29299 4.27259 0
M  V30 42455 N 3782.46 -1.31262 -0.872235 0
M  V30 42456 C 3783.4 -1.18721 -1.97924 0
M  V30 42457 C 3784.37 -0.0735534 -1.65937 0
M  V30 42458 O 3785.56 -0.246012 -1.89207 0
M  V30 42459 C 3782.7 -0.898176 -3.33207 0
M  V30 42460 C 3781.81 -2.09495 -3.77804 0
M  V30 42461 C 3780.95 -1.7429 -5.01793 0
M  V30 42462 C 3779.99 -2.90388 -5.38833 0
M  V30 42463 N 3779.12 -2.55393 -6.54002 0
M  V30 42464 H 3783.96 -2.13418 -2.07982 0
M  V30 42465 H 3781.5 -1.06166 -1.01819 0
M  V30 42466 H 3783.46 -0.711162 -4.11094 0
M  V30 42467 H 3782.09 0.011953 -3.22798 0
M  V30 42468 H 3781.14 -2.39281 -2.95718 0
M  V30 42469 H 3782.45 -2.96398 -4.01186 0
M  V30 42470 H 3781.61 -1.52037 -5.87341 0
M  V30 42471 H 3780.35 -0.845749 -4.80311 0
M  V30 42472 H 3779.35 -3.13292 -4.51806 0
M  V30 42473 H 3780.58 -3.80809 -5.62283 0
M  V30 42474 H 3778.52 -1.68199 -6.3407 0
M  V30 42475 H 3778.44 -3.35826 -6.77316 0
M  V30 42476 H 3779.71 -2.36529 -7.42748 0
M  V30 42477 N 3783.94 1.08625 -1.14186 0
M  V30 42478 C 3784.87 2.15355 -0.784529 0
M  V30 42479 C 3785.88 1.61597 0.197553 0
M  V30 42480 O 3787.07 1.78484 -0.0238351 0
M  V30 42481 C 3784.17 3.38596 -0.143493 0
M  V30 42482 C 3783.34 4.21745 -1.15974 0
M  V30 42483 C 3782.4 5.23392 -0.542878 0
M  V30 42484 O 3781.43 5.56294 -1.20522 0
M  V30 42485 N 3782.63 5.76487 0.681364 0
M  V30 42486 H 3785.39 2.46614 -1.70299 0
M  V30 42487 H 3782.96 1.24415 -1.03598 0
M  V30 42488 H 3784.95 4.03719 0.281632 0
M  V30 42489 H 3783.52 3.05158 0.678056 0
M  V30 42490 H 3782.74 3.52635 -1.76188 0
M  V30 42491 H 3784.03 4.74119 -1.84632 0
M  V30 42492 H 3783.42 5.51985 1.23809 0
M  V30 42493 H 3781.98 6.43303 1.04903 0
M  V30 42494 N 3785.41 0.936635 1.26747 0
M  V30 42495 C 3786.35 0.399981 2.25683 0
M  V30 42496 C 3787.36 -0.474244 1.55739 0
M  V30 42497 O 3788.55 -0.285423 1.76203 0
M  V30 42498 C 3785.65 -0.444673 3.3597 0
M  V30 42499 C 3784.82 0.412335 4.35452 0
M  V30 42500 C 3783.88 -0.371138 5.2489 0
M  V30 42501 O 3782.91 0.224262 5.68758 0
M  V30 42502 N 3784.11 -1.6688 5.55996 0
M  V30 42503 H 3786.87 1.25048 2.72366 0
M  V30 42504 H 3784.43 0.805025 1.40467 0
M  V30 42505 H 3786.43 -0.97609 3.92753 0
M  V30 42506 H 3785 -1.19595 2.88818 0
M  V30 42507 H 3784.22 1.12499 3.77806 0
M  V30 42508 H 3785.5 0.99791 4.98918 0
M  V30 42509 H 3784.9 -2.17472 5.22228 0
M  V30 42510 H 3783.46 -2.14655 6.1544 0
M  V30 42511 N 3786.89 -1.41045 0.703143 0
M  V30 42512 C 3787.84 -2.32579 0.0313211 0
M  V30 42513 C 3788.83 -1.51373 -0.760437 0
M  V30 42514 O 3790.04 -1.67257 -0.665205 0
M  V30 42515 H 3786.42 -0.75195 -0.00867333 0
M  V30 42516 H 3788.39 -2.86905 0.820245 0
M  V30 42517 C 3787.14 -3.36233 -0.88558 0
M  V30 42518 H 3786.46 -3.98778 -0.285749 0
M  V30 42519 H 3787.9 -4.02804 -1.32383 0
M  V30 42520 C 3786.36 -2.70721 -2.00528 0
M  V30 42521 O 3786.89 -2.56088 -3.09486 0
M  V30 42522 N 3785.09 -2.29298 -1.78524 0
M  V30 42523 H 3784.64 -2.414 -0.899097 0
M  V30 42524 H 3784.6 -1.85801 -2.53624 0
M  V30 42525 N 3788.37 -0.448429 -1.51086 0
M  V30 42526 C 3789.28 0.363283 -2.3177 0
M  V30 42527 C 3790.3 1.01733 -1.41161 0
M  V30 42528 O 3791.47 1.01028 -1.74228 0
M  V30 42529 C 3788.54 1.44364 -3.15214 0
M  V30 42530 C 3787.6 0.808569 -4.21617 0
M  V30 42531 C 3786.83 1.83745 -5.01072 0
M  V30 42532 O 3787.05 3.06113 -4.81302 0
M  V30 42533 O 3785.99 1.42183 -5.84865 0
M  V30 42534 H 3789.81 -0.295706 -3.02257 0
M  V30 42535 H 3787.4 -0.210729 -1.47906 0
M  V30 42536 H 3789.28 2.06996 -3.67057 0
M  V30 42537 H 3787.96 2.08651 -2.4748 0
M  V30 42538 H 3786.86 0.143909 -3.73823 0
M  V30 42539 H 3788.2 0.209012 -4.91756 0
M  V30 42540 N 3789.85 1.56567 -0.180181 0
M  V30 42541 C 3790.78 2.15584 0.778212 0
M  V30 42542 C 3791.79 1.11372 1.18744 0
M  V30 42543 O 3792.98 1.38525 1.12575 0
M  V30 42544 C 3790.08 2.6909 2.0602 0
M  V30 42545 C 3789.26 3.9805 1.81313 0
M  V30 42546 C 3788.31 4.36531 2.93815 0
M  V30 42547 O 3787.34 5.0424 2.64066 0
M  V30 42548 N 3788.54 3.98813 4.21816 0
M  V30 42549 H 3791.31 2.98448 0.273608 0
M  V30 42550 H 3788.87 1.619 0.00230106 0
M  V30 42551 H 3790.86 2.91825 2.80393 0
M  V30 42552 H 3789.43 1.90764 2.47645 0
M  V30 42553 H 3788.65 3.83601 0.907978 0
M  V30 42554 H 3789.94 4.82259 1.62185 0
M  V30 42555 H 3789.34 3.44321 4.48842 0
M  V30 42556 H 3787.89 4.26531 4.92864 0
M  V30 42557 N 3791.33 -0.0935042 1.57322 0
M  V30 42558 C 3792.26 -1.11406 2.0521 0
M  V30 42559 C 3793.24 -1.4168 0.94132 0
M  V30 42560 O 3794.42 -1.51682 1.21269 0
M  V30 42561 C 3791.55 -2.4335 2.47786 0
M  V30 42562 C 3790.51 -2.2748 3.62542 0
M  V30 42563 C 3789.83 -3.64615 3.91101 0
M  V30 42564 C 3791.13 -1.71403 4.93374 0
M  V30 42565 H 3792.83 -0.715651 2.90721 0
M  V30 42566 H 3790.37 -0.342802 1.3986 0
M  V30 42567 H 3792.33 -3.15017 2.79896 0
M  V30 42568 H 3791.05 -2.85129 1.59277 0
M  V30 42569 H 3789.71 -1.58257 3.30681 0
M  V30 42570 H 3789.36 -4.03925 2.99756 0
M  V30 42571 H 3789.06 -3.54842 4.6836 0
M  V30 42572 H 3790.58 -4.37747 4.25687 0
M  V30 42573 H 3791.99 -2.32913 5.23855 0
M  V30 42574 H 3790.39 -1.72385 5.74807 0
M  V30 42575 H 3791.46 -0.673595 4.80199 0
M  V30 42576 N 3792.8 -1.5333 -0.364368 0
M  V30 42577 C 3794.05 -1.68791 -1.1042 0
M  V30 42578 C 3794.37 -0.446853 -1.90427 0
M  V30 42579 O 3795.57 -0.482025 -2.67187 0
M  V30 42580 C 3794.03 -2.98391 -2.01223 0
M  V30 42581 C 3793.64 -4.29763 -1.26521 0
M  V30 42582 C 3795.38 -3.23219 -2.7519 0
M  V30 42583 C 3793.29 -5.50452 -2.16233 0
M  V30 42584 H 3792.22 -0.628907 -0.415924 0
M  V30 42585 H 3794.87 -1.79831 -0.365113 0
M  V30 42586 H 3793.25 -2.81157 -2.78867 0
M  V30 42587 H 3794.42 -4.57633 -0.539319 0
M  V30 42588 H 3792.74 -4.11388 -0.644108 0
M  V30 42589 H 3795.34 -4.10573 -3.42541 0
M  V30 42590 H 3795.68 -2.39333 -3.40625 0
M  V30 42591 H 3796.21 -3.41133 -2.04629 0
M  V30 42592 H 3792.95 -6.3682 -1.55374 0
M  V30 42593 H 3792.47 -5.2686 -2.86669 0
M  V30 42594 H 3794.15 -5.85289 -2.75763 0
M  V30 42595 N 3794.28 0.624234 -1.4471 0
M  V30 42596 C 3795.23 1.73586 -1.52107 0
M  V30 42597 C 3796.2 1.61967 -0.368222 0
M  V30 42598 O 3797.38 1.8179 -0.579406 0
M  V30 42599 C 3794.52 3.11855 -1.47786 0
M  V30 42600 C 3793.64 3.344 -2.73497 0
M  V30 42601 C 3792.77 4.6268 -2.60961 0
M  V30 42602 C 3791.81 4.78427 -3.81803 0
M  V30 42603 N 3790.95 5.9799 -3.67902 0
M  V30 42604 H 3795.79 1.666 -2.4708 0
M  V30 42605 H 3793.33 0.812595 -1.22619 0
M  V30 42606 H 3795.28 3.91828 -1.4327 0
M  V30 42607 H 3793.91 3.17839 -0.56375 0
M  V30 42608 H 3792.97 2.48319 -2.8817 0
M  V30 42609 H 3794.28 3.41914 -3.63176 0
M  V30 42610 H 3793.43 5.50824 -2.54318 0
M  V30 42611 H 3792.17 4.57537 -1.68854 0
M  V30 42612 H 3791.18 3.88711 -3.88824 0
M  V30 42613 H 3792.4 4.8538 -4.74956 0
M  V30 42614 H 3790.35 5.93923 -2.78552 0
M  V30 42615 H 3790.26 6.0659 -4.51203 0
M  V30 42616 H 3791.53 6.88677 -3.65163 0
M  V30 42617 N 3795.76 1.31723 0.865262 0
M  V30 42618 C 3796.69 1.15591 1.97917 0
M  V30 42619 C 3797.71 0.0937215 1.6253 0
M  V30 42620 O 3798.89 0.34167 1.752 0
M  V30 42621 C 3795.99 0.744872 3.30613 0
M  V30 42622 C 3795.17 1.89308 3.94311 0
M  V30 42623 C 3794.23 1.46733 5.05328 0
M  V30 42624 O 3793.25 2.17771 5.25894 0
M  V30 42625 N 3794.45 0.357364 5.79399 0
M  V30 42626 H 3797.22 2.11539 2.12301 0
M  V30 42627 H 3794.78 1.2412 1.03951 0
M  V30 42628 H 3796.77 0.442665 4.02272 0
M  V30 42629 H 3795.34 -0.123131 3.12357 0
M  V30 42630 H 3794.56 2.36236 3.15573 0
M  V30 42631 H 3795.85 2.66204 4.33605 0
M  V30 42632 H 3795.25 -0.234131 5.65215 0
M  V30 42633 H 3793.81 0.114713 6.51699 0
M  V30 42634 N 3797.24 -1.08018 1.14761 0
M  V30 42635 C 3798.19 -2.15043 0.838172 0
M  V30 42636 C 3799.16 -1.64818 -0.206002 0
M  V30 42637 O 3800.34 -1.90652 -0.0750477 0
M  V30 42638 C 3797.48 -3.43555 0.326173 0
M  V30 42639 C 3796.59 -4.07606 1.43112 0
M  V30 42640 C 3795.73 -5.23928 0.875949 0
M  V30 42641 C 3794.77 -5.79929 1.9583 0
M  V30 42642 N 3793.9 -6.8759 1.42001 0
M  V30 42643 H 3798.74 -2.40852 1.75482 0
M  V30 42644 H 3796.28 -1.18194 0.875707 0
M  V30 42645 H 3798.24 -4.17199 0.0110836 0
M  V30 42646 H 3796.87 -3.18018 -0.553574 0
M  V30 42647 H 3795.92 -3.31684 1.86252 0
M  V30 42648 H 3797.23 -4.45242 2.24857 0
M  V30 42649 H 3796.39 -6.04527 0.512999 0
M  V30 42650 H 3795.13 -4.87692 0.0275874 0
M  V30 42651 H 3794.13 -4.9798 2.33015 0
M  V30 42652 H 3795.36 -6.18222 2.81032 0
M  V30 42653 H 3793.3 -6.53306 0.593893 0
M  V30 42654 H 3793.22 -7.24073 2.1738 0
M  V30 42655 H 3794.49 -7.71911 1.08509 0
M  V30 42656 N 3798.72 -0.943344 -1.26249 0
M  V30 42657 C 3799.66 -0.445481 -2.28294 0
M  V30 42658 C 3800.66 0.478373 -1.62505 0
M  V30 42659 O 3801.86 0.356347 -1.76437 0
M  V30 42660 H 3798.24 -0.12553 -0.741449 0
M  V30 42661 H 3800.21 -1.31862 -2.67684 0
M  V30 42662 C 3798.96 0.271926 -3.46635 0
M  V30 42663 H 3798.28 -0.429804 -3.97483 0
M  V30 42664 H 3799.72 0.58447 -4.19952 0
M  V30 42665 C 3798.18 1.49049 -3.02136 0
M  V30 42666 O 3798.71 2.5887 -3.07163 0
M  V30 42667 N 3796.92 1.34782 -2.57453 0
M  V30 42668 H 3796.46 0.454303 -2.53562 0
M  V30 42669 H 3796.42 2.16434 -2.28043 0
M  V30 42670 N 3800.2 1.4067 -0.710613 0
M  V30 42671 C 3801.11 2.34534 -0.0557576 0
M  V30 42672 C 3802.12 1.57037 0.749359 0
M  V30 42673 O 3803.3 1.89449 0.68346 0
M  V30 42674 C 3800.36 3.35902 0.858524 0
M  V30 42675 C 3799.42 4.29278 0.0439195 0
M  V30 42676 C 3798.66 5.25804 0.914657 0
M  V30 42677 O 3798.88 5.28167 2.15398 0
M  V30 42678 O 3797.81 6.00844 0.356301 0
M  V30 42679 H 3801.64 2.92142 -0.829858 0
M  V30 42680 H 3799.22 1.4178 -0.471053 0
M  V30 42681 H 3801.11 3.98081 1.38237 0
M  V30 42682 H 3799.78 2.80715 1.61186 0
M  V30 42683 H 3798.69 3.704 -0.524881 0
M  V30 42684 H 3800.02 4.87604 -0.671082 0
M  V30 42685 N 3801.67 0.456435 1.50846 0
M  V30 42686 C 3802.6 -0.335482 2.31077 0
M  V30 42687 C 3803.58 -1.00375 1.37328 0
M  V30 42688 O 3804.77 -1.00373 1.66249 0
M  V30 42689 C 3801.9 -1.42621 3.16665 0
M  V30 42690 C 3800.85 -0.880377 4.18848 0
M  V30 42691 C 3800.18 -2.0683 4.93078 0
M  V30 42692 C 3801.48 0.0983206 5.22207 0
M  V30 42693 H 3803.17 0.334109 2.9753 0
M  V30 42694 H 3800.72 0.162124 1.43084 0
M  V30 42695 H 3802.67 -1.98758 3.71582 0
M  V30 42696 H 3801.4 -2.12436 2.48069 0
M  V30 42697 H 3800.06 -0.341083 3.6501 0
M  V30 42698 H 3799.7 -2.75309 4.20968 0
M  V30 42699 H 3799.4 -1.70937 5.62187 0
M  V30 42700 H 3800.93 -2.63485 5.50825 0
M  V30 42701 H 3802.34 -0.37338 5.72083 0
M  V30 42702 H 3800.74 0.370779 5.98953 0
M  V30 42703 H 3801.81 1.02896 4.73857 0
M  V30 42704 N 3803.15 -1.56469 0.188482 0
M  V30 42705 C 3804.08 -2.21784 -0.73034 0
M  V30 42706 C 3805.06 -1.17884 -1.22627 0
M  V30 42707 O 3806.25 -1.46369 -1.27631 0
M  V30 42708 C 3803.38 -2.87203 -1.95273 0
M  V30 42709 C 3802.33 -3.97291 -1.59198 0
M  V30 42710 C 3801.66 -4.49842 -2.89044 0
M  V30 42711 C 3802.96 -5.16029 -0.806936 0
M  V30 42712 H 3804.65 -2.98823 -0.185862 0
M  V30 42713 H 3802.2 -1.43731 -0.0879552 0
M  V30 42714 H 3804.15 -3.31576 -2.60068 0
M  V30 42715 H 3802.87 -2.0756 -2.52163 0
M  V30 42716 H 3801.53 -3.53599 -0.967651 0
M  V30 42717 H 3801.18 -3.66969 -3.4401 0
M  V30 42718 H 3800.88 -5.2412 -2.65654 0
M  V30 42719 H 3802.41 -4.96912 -3.54839 0
M  V30 42720 H 3803.82 -5.56988 -1.35784 0
M  V30 42721 H 3802.22 -5.96332 -0.671412 0
M  V30 42722 H 3803.29 -4.84514 0.193336 0
M  V30 42723 N 3804.63 0.0851597 -1.5737 0
M  V30 42724 C 3805.85 0.803949 -1.91184 0
M  V30 42725 C 3806.28 1.70997 -0.78368 0
M  V30 42726 O 3805.64 1.79364 0.264235 0
M  V30 42727 C 3805.69 1.5849 -3.23903 0
M  V30 42728 O 3804.79 2.6946 -3.12194 0
M  V30 42729 H 3804.13 0.220222 -0.626417 0
M  V30 42730 H 3806.66 0.0574067 -2.04519 0
M  V30 42731 H 3806.67 1.96701 -3.57453 0
M  V30 42732 H 3805.35 0.920039 -4.05596 0
M  V30 42733 H 3803.92 2.34205 -2.90177 0
M  V30 42734 N 3806.11 1.53521 0.356231 0
M  V30 42735 C 3807.06 1.81301 1.45715 0
M  V30 42736 C 3808.05 0.68268 1.55035 0
M  V30 42737 O 3809.26 0.865794 1.5781 0
M  V30 42738 H 3805.63 0.574189 0.485604 0
M  V30 42739 H 3807.6 2.7343 1.19494 0
M  V30 42740 C 3806.35 2.02815 2.82421 0
M  V30 42741 H 3805.67 2.89237 2.76011 0
M  V30 42742 H 3807.11 2.26225 3.58606 0
M  V30 42743 C 3805.57 0.80995 3.27019 0
M  V30 42744 O 3806.1 0.00317729 4.017 0
M  V30 42745 N 3804.31 0.630746 2.83672 0
M  V30 42746 H 3803.86 1.28843 2.23063 0
M  V30 42747 H 3803.81 -0.182906 3.13868 0
M  V30 42748 N 3807.59 -0.616551 1.45039 0
M  V30 42749 C 3808.53 -1.74893 1.53346 0
M  V30 42750 C 3809.53 -1.6451 0.404062 0
M  V30 42751 O 3810.73 -1.70413 0.57961 0
M  V30 42752 H 3807.11 -0.57765 0.481482 0
M  V30 42753 H 3809.08 -1.65012 2.48623 0
M  V30 42754 C 3807.83 -3.1326 1.50877 0
M  V30 42755 H 3807.15 -3.21904 2.37103 0
M  V30 42756 H 3808.59 -3.92347 1.60748 0
M  V30 42757 C 3807.05 -3.36102 0.231763 0
M  V30 42758 O 3807.58 -3.95693 -0.692084 0
M  V30 42759 N 3805.79 -2.90308 0.130283 0
M  V30 42760 H 3805.33 -2.41996 0.882935 0
M  V30 42761 H 3805.29 -3.05966 -0.72335 0
M  V30 42762 N 3809.06 -1.3218 -0.858264 0
M  V30 42763 C 3810 -1.16639 -1.97302 0
M  V30 42764 C 3811.01 -0.10234 -1.62478 0
M  V30 42765 O 3812.2 -0.350957 -1.75016 0
M  V30 42766 C 3809.3 -0.762395 -3.30213 0
M  V30 42767 C 3808.47 -1.91397 -3.93301 0
M  V30 42768 C 3807.53 -1.49411 -5.04542 0
M  V30 42769 O 3806.56 -2.20557 -5.24731 0
M  V30 42770 N 3807.76 -0.388086 -5.79201 0
M  V30 42771 H 3810.52 -2.12661 -2.11176 0
M  V30 42772 H 3808.08 -1.24669 -1.03292 0
M  V30 42773 H 3810.08 -0.463992 -4.02031 0
M  V30 42774 H 3808.65 0.106565 -3.12418 0
M  V30 42775 H 3807.87 -2.37906 -3.14316 0
M  V30 42776 H 3809.15 -2.68499 -4.32187 0
M  V30 42777 H 3808.55 0.204153 -5.65332 0
M  V30 42778 H 3807.11 -0.149273 -6.51629 0
M  V30 42779 N 3810.54 1.07407 -1.15332 0
M  V30 42780 C 3811.49 2.1282 -0.818017 0
M  V30 42781 C 3812.48 1.59684 0.197472 0
M  V30 42782 O 3813.67 1.77 -0.00169909 0
M  V30 42783 C 3810.8 3.41912 -0.308416 0
M  V30 42784 C 3809.88 4.01904 -1.35403 0
M  V30 42785 N 3810.27 4.36162 -2.56118 0
M  V30 42786 C 3808.57 4.29367 -1.20663 0
M  V30 42787 C 3809.27 4.83695 -3.23132 0
M  V30 42788 N 3808.25 4.82431 -2.50522 0
M  V30 42789 H 3812.05 2.37139 -1.73615 0
M  V30 42790 H 3809.56 1.2484 -1.03869 0
M  V30 42791 H 3811.56 4.1687 -0.0498598 0
M  V30 42792 H 3810.22 3.19037 0.603784 0
M  V30 42793 H 3811.23 4.26867 -2.93266 0
M  V30 42794 H 3807.91 4.15994 -0.354281 0
M  V30 42795 H 3809.3 5.19498 -4.26112 0
M  V30 42796 N 3812.02 0.950026 1.25747 0
M  V30 42797 C 3812.95 0.484507 2.28418 0
M  V30 42798 C 3813.93 -0.466784 1.6357 0
M  V30 42799 O 3815.12 -0.366733 1.90706 0
M  V30 42800 C 3812.25 -0.242855 3.4645 0
M  V30 42801 C 3811.2 0.622731 4.23445 0
M  V30 42802 C 3810.53 -0.235105 5.34183 0
M  V30 42803 C 3811.83 1.89853 4.86573 0
M  V30 42804 H 3813.52 1.34262 2.67608 0
M  V30 42805 H 3811.07 0.647037 1.28645 0
M  V30 42806 H 3813.02 -0.57962 4.17395 0
M  V30 42807 H 3811.74 -1.13518 3.06237 0
M  V30 42808 H 3810.4 0.942515 3.54277 0
M  V30 42809 H 3810.05 -1.12705 4.90211 0
M  V30 42810 H 3809.75 0.340712 5.86611 0
M  V30 42811 H 3811.27 -0.566941 6.07962 0
M  V30 42812 H 3812.69 1.62846 5.49685 0
M  V30 42813 H 3811.08 2.41963 5.49157 0
M  V30 42814 H 3812.15 2.60448 4.09017 0
M  V30 42815 N 3813.5 -1.40291 0.718063 0
M  V30 42816 C 3814.72 -2.05675 0.266954 0
M  V30 42817 C 3815.15 -1.53751 -1.08361 0
M  V30 42818 O 3814.51 -0.673942 -1.68308 0
M  V30 42819 C 3814.55 -3.59664 0.259669 0
M  V30 42820 O 3813.66 -4.05368 -0.758301 0
M  V30 42821 H 3813 -0.652167 0.124798 0
M  V30 42822 H 3815.53 -1.79644 0.979239 0
M  V30 42823 H 3815.54 -4.07882 0.0982067 0
M  V30 42824 H 3814.21 -3.96821 1.24524 0
M  V30 42825 H 3812.79 -3.68605 -0.56436 0
M  V30 42826 N 3814.98 -0.464428 -1.50602 0
M  V30 42827 C 3815.92 0.347297 -2.29993 0
M  V30 42828 C 3816.92 0.996465 -1.36992 0
M  V30 42829 O 3818.12 0.928332 -1.54214 0
M  V30 42830 H 3814.5 0.130834 -0.740531 0
M  V30 42831 H 3816.47 -0.342786 -2.96425 0
M  V30 42832 C 3815.22 1.42055 -3.17357 0
M  V30 42833 H 3814.54 0.930405 -3.88823 0
M  V30 42834 H 3815.98 1.96122 -3.75915 0
M  V30 42835 C 3814.44 2.41882 -2.3451 0
M  V30 42836 O 3814.97 3.4701 -2.02353 0
M  V30 42837 N 3813.18 2.13434 -1.97216 0
M  V30 42838 H 3812.72 1.27968 -2.23567 0
M  V30 42839 H 3812.68 2.80462 -1.42086 0
M  V30 42840 N 3816.45 1.56367 -0.196777 0
M  V30 42841 C 3817.36 2.22778 0.735333 0
M  V30 42842 C 3818.38 1.22739 1.23334 0
M  V30 42843 O 3819.56 1.55481 1.28014 0
M  V30 42844 C 3816.62 2.87543 1.937 0
M  V30 42845 C 3815.68 4.02857 1.48341 0
M  V30 42846 C 3814.92 4.64524 2.6278 0
M  V30 42847 O 3815.14 4.25118 3.80304 0
M  V30 42848 O 3814.07 5.5396 2.35397 0
M  V30 42849 H 3817.9 3.03042 0.199735 0
M  V30 42850 H 3815.48 1.49364 0.0325887 0
M  V30 42851 H 3817.37 3.28511 2.63928 0
M  V30 42852 H 3816.04 2.10257 2.46118 0
M  V30 42853 H 3814.95 3.66507 0.749874 0
M  V30 42854 H 3816.28 4.81812 1.00588 0
M  V30 42855 N 3817.93 -0.0768128 1.57413 0
M  V30 42856 C 3819.18 -0.778066 1.8728 0
M  V30 42857 C 3819.51 -1.77477 0.78839 0
M  V30 42858 O 3818.79 -1.9345 -0.201842 0
M  V30 42859 C 3819.07 -1.49053 3.27803 0
M  V30 42860 C 3818.92 -0.510582 4.46893 0
M  V30 42861 C 3820.24 -2.43668 3.66489 0
M  V30 42862 H 3817.36 -0.281397 0.681164 0
M  V30 42863 H 3820 -0.0413377 1.89955 0
M  V30 42864 H 3818.15 -2.11853 3.25654 0
M  V30 42865 H 3819.82 0.111815 4.61164 0
M  V30 42866 H 3818.07 0.174521 4.33449 0
M  V30 42867 H 3818.74 -1.04661 5.41987 0
M  V30 42868 H 3821.21 -1.90949 3.697 0
M  V30 42869 H 3820.09 -2.90525 4.65711 0
M  V30 42870 H 3820.35 -3.28248 2.96151 0
M  V30 42871 N 3819.41 -1.53708 -0.348084 0
M  V30 42872 C 3820.36 -1.81378 -1.42726 0
M  V30 42873 C 3821.33 -0.659186 -1.5246 0
M  V30 42874 O 3822.51 -0.903159 -1.6807 0
M  V30 42875 C 3819.65 -2.02503 -2.7944 0
M  V30 42876 C 3818.77 -3.30216 -2.78534 0
M  V30 42877 C 3817.9 -3.41434 -4.06936 0
M  V30 42878 C 3816.94 -4.63114 -4.0024 0
M  V30 42879 N 3816.08 -4.71389 -5.20324 0
M  V30 42880 H 3820.92 -2.73456 -1.18431 0
M  V30 42881 H 3818.45 -1.35448 -0.573786 0
M  V30 42882 H 3820.41 -2.12739 -3.58884 0
M  V30 42883 H 3819.04 -1.13743 -3.02097 0
M  V30 42884 H 3818.09 -3.28844 -1.91221 0
M  V30 42885 H 3819.41 -4.19751 -2.69463 0
M  V30 42886 H 3818.56 -3.51078 -4.94802 0
M  V30 42887 H 3817.3 -2.49946 -4.18782 0
M  V30 42888 H 3816.3 -4.53551 -3.10759 0
M  V30 42889 H 3817.53 -5.5596 -3.89981 0
M  V30 42890 H 3815.47 -3.82809 -5.32722 0
M  V30 42891 H 3815.39 -5.54853 -5.13492 0
M  V30 42892 H 3816.66 -4.85337 -6.09974 0
M  V30 42893 N 3820.89 0.608851 -1.45364 0
M  V30 42894 C 3822.12 1.39456 -1.52839 0
M  V30 42895 C 3822.53 1.88116 -0.16057 0
M  V30 42896 O 3821.89 1.62141 0.837643 0
M  V30 42897 C 3821.94 2.5999 -2.51172 0
M  V30 42898 O 3821.66 2.13352 -3.82639 0
M  V30 42899 C 3823.16 3.52864 -2.68332 0
M  V30 42900 H 3820.38 0.426933 -0.517657 0
M  V30 42901 H 3822.93 0.74264 -1.90539 0
M  V30 42902 H 3821.08 3.21226 -2.16547 0
M  V30 42903 H 3821.49 2.91657 -4.35932 0
M  V30 42904 H 3822.97 4.33986 -3.41116 0
M  V30 42905 H 3823.45 4.03123 -1.74324 0
M  V30 42906 H 3824.05 2.97482 -3.03949 0
M  V30 42907 N 3822.37 1.32633 0.851242 0
M  V30 42908 C 3823.61 1.2458 1.60783 0
M  V30 42909 C 3823.97 -0.189769 1.91462 0
M  V30 42910 O 3823.26 -1.12848 1.54841 0
M  V30 42911 C 3823.45 2.04217 2.93309 0
M  V30 42912 C 3823.28 3.55373 2.75573 0
M  V30 42913 C 3822.05 4.24705 2.73777 0
M  V30 42914 C 3824.25 4.49955 2.49087 0
M  V30 42915 N 3822.23 5.61891 2.47288 0
M  V30 42916 C 3823.6 5.74943 2.32036 0
M  V30 42917 C 3825.66 4.39175 2.34584 0
M  V30 42918 C 3824.36 6.90368 2.01953 0
M  V30 42919 C 3826.39 5.54403 2.05892 0
M  V30 42920 C 3825.75 6.78391 1.89643 0
M  V30 42921 H 3821.85 0.511042 0.591913 0
M  V30 42922 H 3824.43 1.67037 1.00034 0
M  V30 42923 H 3822.6 1.64101 3.52031 0
M  V30 42924 H 3824.34 1.88032 3.58366 0
M  V30 42925 H 3821.09 3.76856 2.86838 0
M  V30 42926 H 3821.52 6.34175 2.36962 0
M  V30 42927 H 3826.16 3.43963 2.45864 0
M  V30 42928 H 3823.88 7.85589 1.89409 0
M  V30 42929 H 3827.46 5.4799 1.95442 0
M  V30 42930 H 3826.34 7.66046 1.67759 0
M  V30 42931 N 3823.84 -1.06794 1.159 0
M  V30 42932 C 3824.79 -2.14141 0.860933 0
M  V30 42933 C 3825.76 -1.65027 -0.18851 0
M  V30 42934 O 3826.95 -1.90721 -0.0548223 0
M  V30 42935 C 3824.09 -3.4319 0.362593 0
M  V30 42936 C 3823.2 -4.06066 1.47427 0
M  V30 42937 C 3822.33 -5.22969 0.931469 0
M  V30 42938 C 3821.37 -5.77819 2.0197 0
M  V30 42939 N 3820.51 -6.86045 1.49286 0
M  V30 42940 H 3825.35 -2.38978 1.78027 0
M  V30 42941 H 3822.89 -1.17258 0.888194 0
M  V30 42942 H 3824.85 -4.17163 0.0553325 0
M  V30 42943 H 3823.48 -3.18587 -0.519813 0
M  V30 42944 H 3822.53 -3.2969 1.8976 0
M  V30 42945 H 3823.84 -4.42832 2.29567 0
M  V30 42946 H 3822.99 -6.03949 0.577088 0
M  V30 42947 H 3821.73 -4.87636 0.0793122 0
M  V30 42948 H 3820.74 -4.9548 2.38284 0
M  V30 42949 H 3821.96 -6.15206 2.87573 0
M  V30 42950 H 3819.91 -6.52639 0.663152 0
M  V30 42951 H 3819.83 -7.21727 2.25047 0
M  V30 42952 H 3821.09 -7.70716 1.1669 0
M  V30 42953 N 3825.32 -0.956681 -1.25241 0
M  V30 42954 C 3826.23 -0.48519 -2.29528 0
M  V30 42955 C 3827.25 0.448464 -1.68121 0
M  V30 42956 O 3828.42 0.324208 -1.98773 0
M  V30 42957 C 3825.49 0.22755 -3.45952 0
M  V30 42958 C 3824.55 -0.744569 -4.22794 0
M  V30 42959 C 3823.78 -0.0657477 -5.3366 0
M  V30 42960 O 3824.01 1.14819 -5.58724 0
M  V30 42961 O 3822.94 -0.752325 -5.9718 0
M  V30 42962 H 3826.77 -1.35186 -2.71953 0
M  V30 42963 H 3824.35 -0.723226 -1.30728 0
M  V30 42964 H 3826.23 0.628401 -4.16688 0
M  V30 42965 H 3824.91 1.06936 -3.05526 0
M  V30 42966 H 3823.82 -1.19567 -3.54478 0
M  V30 42967 H 3825.15 -1.55446 -4.67009 0
M  V30 42968 N 3826.8 1.39908 -0.725493 0
M  V30 42969 C 3828.22 1.54504 -0.400075 0
M  V30 42970 C 3828.42 1.69466 1.09011 0
M  V30 42971 O 3827.47 1.68981 1.87621 0
M  V30 42972 C 3828.79 2.76802 -1.17479 0
M  V30 42973 C 3830.33 2.90628 -1.16207 0
M  V30 42974 C 3830.81 4.15852 -1.91915 0
M  V30 42975 N 3832.3 4.22872 -1.89034 0
M  V30 42976 C 3833.03 5.18693 -2.44429 0
M  V30 42977 N 3832.53 6.20361 -3.08421 0
M  V30 42978 N 3834.32 5.10842 -2.34515 0
M  V30 42979 H 3826.47 1.28444 -1.69163 0
M  V30 42980 H 3828.74 0.621826 -0.715567 0
M  V30 42981 H 3828.44 2.72057 -2.22886 0
M  V30 42982 H 3828.32 3.69196 -0.772936 0
M  V30 42983 H 3830.7 2.94871 -0.116168 0
M  V30 42984 H 3830.79 1.99324 -1.60323 0
M  V30 42985 H 3830.43 4.1237 -2.96502 0
M  V30 42986 H 3830.36 5.06183 -1.45213 0
M  V30 42987 H 3832.85 3.50042 -1.42406 0
M  V30 42988 H 3833.16 6.8992 -3.48181 0
M  V30 42989 H 3831.51 6.20777 -3.12508 0
M  V30 42990 H 3834.7 4.30347 -1.84172 0
M  V30 42991 H 3834.87 5.85344 -2.77986 0
M  V30 42992 N 3828.28 0.472408 1.50353 0
M  V30 42993 C 3829.51 -0.079777 2.06746 0
M  V30 42994 C 3829.92 -1.33391 1.33613 0
M  V30 42995 O 3829.28 -1.77931 0.405797 0
M  V30 42996 C 3829.33 -0.366537 3.59637 0
M  V30 42997 O 3829.05 0.837852 4.30014 0
M  V30 42998 C 3830.55 -0.965542 4.32657 0
M  V30 42999 H 3827.77 0.00767083 0.670956 0
M  V30 43000 H 3830.32 0.661569 1.93503 0
M  V30 43001 H 3828.47 -1.05782 3.72678 0
M  V30 43002 H 3828.88 0.583253 5.21247 0
M  V30 43003 H 3830.36 -1.11595 5.40602 0
M  V30 43004 H 3830.84 -1.95599 3.9324 0
M  V30 43005 H 3831.44 -0.312602 4.2415 0
M  V30 43006 N 3829.76 -1.5626 0.205067 0
M  V30 43007 C 3830.69 -2.22546 -0.706776 0
M  V30 43008 C 3831.67 -1.19178 -1.2137 0
M  V30 43009 O 3832.85 -1.47715 -1.26072 0
M  V30 43010 C 3829.98 -2.89258 -1.92216 0
M  V30 43011 C 3828.94 -3.98957 -1.54975 0
M  V30 43012 C 3828.26 -4.52882 -2.84257 0
M  V30 43013 C 3829.56 -5.16856 -0.752159 0
M  V30 43014 H 3831.26 -2.99003 -0.154157 0
M  V30 43015 H 3828.8 -1.43816 -0.0727056 0
M  V30 43016 H 3830.76 -3.34316 -2.56536 0
M  V30 43017 H 3829.48 -2.10223 -2.49948 0
M  V30 43018 H 3828.14 -3.54605 -0.930093 0
M  V30 43019 H 3827.79 -3.70597 -3.40099 0
M  V30 43020 H 3827.49 -5.26908 -2.6008 0
M  V30 43021 H 3829.01 -5.00648 -3.49548 0
M  V30 43022 H 3830.43 -5.58397 -1.29868 0
M  V30 43023 H 3828.82 -5.97011 -0.608125 0
M  V30 43024 H 3829.89 -4.84282 0.244715 0
M  V30 43025 N 3831.24 0.0684638 -1.57451 0
M  V30 43026 C 3832.18 1.08102 -2.03918 0
M  V30 43027 C 3833.15 1.38264 -0.920443 0
M  V30 43028 O 3834.34 1.49275 -1.18834 0
M  V30 43029 C 3831.48 2.38859 -2.49079 0
M  V30 43030 C 3830.59 2.15198 -3.74585 0
M  V30 43031 C 3829.73 3.39542 -4.08515 0
M  V30 43032 C 3828.76 3.1126 -5.27052 0
M  V30 43033 N 3827.9 4.27944 -5.56604 0
M  V30 43034 H 3832.74 0.677792 -2.9019 0
M  V30 43035 H 3830.28 0.323104 -1.43508 0
M  V30 43036 H 3832.24 3.15205 -2.73316 0
M  V30 43037 H 3830.87 2.76978 -1.65781 0
M  V30 43038 H 3829.92 1.29529 -3.57668 0
M  V30 43039 H 3831.23 1.90309 -4.61068 0
M  V30 43040 H 3830.38 4.24282 -4.3367 0
M  V30 43041 H 3829.12 3.67509 -3.20606 0
M  V30 43042 H 3828.13 2.24917 -5.0169 0
M  V30 43043 H 3829.35 2.84612 -6.16582 0
M  V30 43044 H 3827.3 4.55937 -4.71654 0
M  V30 43045 H 3827.22 4.06341 -6.37513 0
M  V30 43046 H 3828.48 5.13671 -5.86313 0
M  V30 43047 N 3832.71 1.5389 0.339928 0
M  V30 43048 C 3834.13 1.44235 0.683261 0
M  V30 43049 C 3834.33 0.60201 1.92297 0
M  V30 43050 O 3833.39 0.0944067 2.52323 0
M  V30 43051 C 3834.7 2.87763 0.872525 0
M  V30 43052 C 3836.25 2.97561 0.970912 0
M  V30 43053 C 3836.72 4.42204 1.19247 0
M  V30 43054 N 3838.21 4.45745 1.25958 0
M  V30 43055 C 3838.95 5.548 1.44859 0
M  V30 43056 N 3838.44 6.73855 1.60909 0
M  V30 43057 N 3840.24 5.4242 1.47436 0
M  V30 43058 H 3832.39 2.07018 -0.475123 0
M  V30 43059 H 3834.65 0.935952 -0.15066 0
M  V30 43060 H 3834.36 3.51684 0.0330552 0
M  V30 43061 H 3834.23 3.32923 1.7732 0
M  V30 43062 H 3836.62 2.33777 1.8009 0
M  V30 43063 H 3836.7 2.55757 0.0470616 0
M  V30 43064 H 3836.34 5.06569 0.367393 0
M  V30 43065 H 3836.27 4.81603 2.12994 0
M  V30 43066 H 3838.76 3.59956 1.15065 0
M  V30 43067 H 3839.08 7.52731 1.74976 0
M  V30 43068 H 3837.42 6.76793 1.58038 0
M  V30 43069 H 3840.61 4.48366 1.34482 0
M  V30 43070 H 3840.79 6.27469 1.61823 0
M  V30 43071 N 3834.19 -0.601133 1.45685 0
M  V30 43072 C 3835.1 -1.73962 1.57399 0
M  V30 43073 C 3836.12 -1.6786 0.458163 0
M  V30 43074 O 3837.29 -1.881 0.71975 0
M  V30 43075 C 3834.36 -3.10437 1.54368 0
M  V30 43076 C 3833.42 -3.27944 2.7704 0
M  V30 43077 C 3832.65 -4.57909 2.74144 0
M  V30 43078 O 3832.88 -5.40639 1.81838 0
M  V30 43079 O 3831.81 -4.78268 3.65436 0
M  V30 43080 H 3835.64 -1.67029 2.53643 0
M  V30 43081 H 3833.22 -0.765994 1.28269 0
M  V30 43082 H 3835.1 -3.91736 1.55309 0
M  V30 43083 H 3833.78 -3.17847 0.612779 0
M  V30 43084 H 3832.68 -2.46209 2.81659 0
M  V30 43085 H 3834.02 -3.25415 3.69278 0
M  V30 43086 N 3835.67 -1.33083 -0.844196 0
M  V30 43087 C 3836.63 -1.22816 -1.93517 0
M  V30 43088 C 3837.63 -0.148544 -1.60112 0
M  V30 43089 O 3838.82 -0.399698 -1.69553 0
M  V30 43090 C 3835.95 -0.891237 -3.29044 0
M  V30 43091 H 3837.15 -2.19784 -2.04047 0
M  V30 43092 H 3834.7 -1.17064 -1.03565 0
M  V30 43093 H 3835.44 0.0761706 -3.24211 0
M  V30 43094 H 3835.22 -1.67192 -3.54668 0
M  V30 43095 H 3836.71 -0.844004 -4.08982 0
M  V30 43096 N 3837.15 1.06178 -1.16464 0
M  V30 43097 C 3838.1 2.11941 -0.840544 0
M  V30 43098 C 3839.08 1.59884 0.180525 0
M  V30 43099 O 3840.27 1.76988 -0.0204722 0
M  V30 43100 C 3837.4 3.41565 -0.344663 0
M  V30 43101 C 3836.49 4.00445 -1.39658 0
M  V30 43102 N 3836.88 4.33421 -2.60729 0
M  V30 43103 C 3835.18 4.28063 -1.25211 0
M  V30 43104 C 3835.88 4.8024 -3.28244 0
M  V30 43105 N 3834.85 4.79747 -2.55624 0
M  V30 43106 H 3838.66 2.35285 -1.7612 0
M  V30 43107 H 3836.17 1.23731 -1.05187 0
M  V30 43108 H 3838.17 4.16794 -0.0940717 0
M  V30 43109 H 3836.83 3.19659 0.569912 0
M  V30 43110 H 3837.84 4.23733 -2.97777 0
M  V30 43111 H 3834.52 4.15595 -0.398383 0
M  V30 43112 H 3835.91 5.14949 -4.31598 0
M  V30 43113 N 3838.63 0.96331 1.24732 0
M  V30 43114 C 3839.57 0.4893 2.25554 0
M  V30 43115 C 3840.54 -0.46282 1.59522 0
M  V30 43116 O 3841.73 -0.374155 1.87095 0
M  V30 43117 C 3838.87 -0.218568 3.44407 0
M  V30 43118 C 3837.98 0.771805 4.2505 0
M  V30 43119 C 3837.12 0.0404919 5.31185 0
M  V30 43120 C 3836.15 1.02122 6.03521 0
M  V30 43121 N 3835.29 0.320207 7.01369 0
M  V30 43122 H 3840.13 1.35391 2.65468 0
M  V30 43123 H 3837.67 0.678785 1.30503 0
M  V30 43124 H 3839.63 -0.645629 4.12174 0
M  V30 43125 H 3838.26 -1.04716 3.05343 0
M  V30 43126 H 3837.31 1.31732 3.56862 0
M  V30 43127 H 3838.62 1.51984 4.75081 0
M  V30 43128 H 3837.77 -0.44478 6.05067 0
M  V30 43129 H 3836.51 -0.740271 4.82049 0
M  V30 43130 H 3835.52 1.51741 5.28446 0
M  V30 43131 H 3836.74 1.80236 6.54746 0
M  V30 43132 H 3834.69 -0.44166 6.54512 0
M  V30 43133 H 3834.61 1.00718 7.49261 0
M  V30 43134 H 3835.87 -0.143242 7.79368 0
M  V30 43135 N 3840.1 -1.39522 0.732902 0
M  V30 43136 C 3841.04 -2.29141 0.0519761 0
M  V30 43137 C 3842.05 -1.46711 -0.705661 0
M  V30 43138 O 3843.24 -1.6981 -0.550172 0
M  V30 43139 C 3840.34 -3.25294 -0.950634 0
M  V30 43140 C 3839.51 -4.36656 -0.254951 0
M  V30 43141 C 3838.57 -5.13133 -1.16537 0
M  V30 43142 O 3837.6 -5.65549 -0.643643 0
M  V30 43143 N 3838.8 -5.24135 -2.49525 0
M  V30 43144 H 3841.56 -2.8822 0.821551 0
M  V30 43145 H 3839.12 -1.51079 0.581951 0
M  V30 43146 H 3841.12 -3.73331 -1.56225 0
M  V30 43147 H 3839.69 -2.67261 -1.62143 0
M  V30 43148 H 3838.91 -3.90524 0.537113 0
M  V30 43149 H 3840.19 -5.08292 0.227252 0
M  V30 43150 H 3839.59 -4.83064 -2.94391 0
M  V30 43151 H 3838.15 -5.75619 -3.05788 0
M  V30 43152 N 3841.58 -0.480375 -1.501 0
M  V30 43153 C 3842.83 0.0715017 -2.02674 0
M  V30 43154 C 3843.16 1.38532 -1.36097 0
M  V30 43155 O 3842.44 1.88233 -0.489736 0
M  V30 43156 C 3842.72 0.24563 -3.59261 0
M  V30 43157 C 3842.57 -1.08986 -4.36397 0
M  V30 43158 C 3843.89 0.995891 -4.28684 0
M  V30 43159 H 3841.01 0.0245114 -0.736592 0
M  V30 43160 H 3843.65 -0.627775 -1.79329 0
M  V30 43161 H 3841.8 0.841241 -3.79283 0
M  V30 43162 H 3843.47 -1.72277 -4.27923 0
M  V30 43163 H 3841.72 -1.68424 -3.9977 0
M  V30 43164 H 3842.39 -0.921564 -5.44253 0
M  V30 43165 H 3844.86 0.490952 -4.13193 0
M  V30 43166 H 3843.74 1.08654 -5.38039 0
M  V30 43167 H 3844 2.03472 -3.92494 0
M  V30 43168 N 3843.06 1.56149 -0.213351 0
M  V30 43169 C 3844.29 2.02474 0.425653 0
M  V30 43170 C 3844.7 1.09329 1.53924 0
M  V30 43171 O 3844.06 0.101396 1.82218 0
M  V30 43172 C 3844.11 3.48383 0.96496 0
M  V30 43173 O 3843.83 4.37976 -0.104222 0
M  V30 43174 C 3845.33 4.10314 1.67803 0
M  V30 43175 H 3842.55 0.662725 0.105053 0
M  V30 43176 H 3845.1 2.01862 -0.327404 0
M  V30 43177 H 3843.25 3.49637 1.66832 0
M  V30 43178 H 3843.67 5.23642 0.299893 0
M  V30 43179 H 3845.14 5.14203 2.00748 0
M  V30 43180 H 3845.62 3.54832 2.58826 0
M  V30 43181 H 3846.22 4.12886 1.02007 0
M  V30 43182 N 3844.54 -0.0601128 1.57485 0
M  V30 43183 C 3845.78 -0.762244 1.89655 0
M  V30 43184 C 3846.14 -1.74148 0.808489 0
M  V30 43185 O 3847.34 -2.48957 1.0136 0
M  V30 43186 C 3845.61 -1.4415 3.27041 0
M  V30 43187 S 3847.17 -2.17708 3.80984 0
M  V30 43188 H 3843.99 -0.253228 0.664377 0
M  V30 43189 H 3846.59 -0.0178917 1.95492 0
M  V30 43190 H 3845.3 -0.715154 4.04121 0
M  V30 43191 H 3844.83 -2.22504 3.24431 0
M  V30 43192 H 3846.84 -3.44406 3.5721 0
M  V30 43193 N 3846.02 -1.54068 -0.331762 0
M  V30 43194 C 3846.93 -1.85892 -1.43113 0
M  V30 43195 C 3847.94 -0.750097 -1.57002 0
M  V30 43196 O 3849.12 -1.04358 -1.72254 0
M  V30 43197 C 3846.18 -2.07242 -2.77941 0
M  V30 43198 C 3845.24 -3.3107 -2.73297 0
M  V30 43199 C 3844.48 -3.51392 -4.01696 0
M  V30 43200 O 3844.7 -2.75315 -4.99558 0
M  V30 43201 O 3843.63 -4.44851 -4.05452 0
M  V30 43202 H 3847.46 -2.79359 -1.19132 0
M  V30 43203 H 3845.05 -1.39871 -0.525033 0
M  V30 43204 H 3846.93 -2.22663 -3.5777 0
M  V30 43205 H 3845.6 -1.16965 -3.01829 0
M  V30 43206 H 3844.51 -3.21043 -1.92048 0
M  V30 43207 H 3845.84 -4.21379 -2.54363 0
M  V30 43208 N 3847.49 0.593399 -1.46002 0
M  V30 43209 C 3848.44 1.72432 -1.56109 0
M  V30 43210 C 3849.44 1.63847 -0.430183 0
M  V30 43211 O 3850.64 1.69469 -0.606648 0
M  V30 43212 H 3847.02 0.569917 -0.490611 0
M  V30 43213 H 3848.99 1.61036 -2.51217 0
M  V30 43214 C 3847.74 3.1082 -1.55841 0
M  V30 43215 H 3847.06 3.18091 -2.42194 0
M  V30 43216 H 3848.5 3.8974 -1.66969 0
M  V30 43217 C 3846.96 3.35691 -0.285205 0
M  V30 43218 O 3847.49 3.96744 0.629045 0
M  V30 43219 N 3845.7 2.90064 -0.176451 0
M  V30 43220 H 3845.24 2.40561 -0.921323 0
M  V30 43221 H 3845.2 3.07078 0.674582 0
M  V30 43222 N 3848.97 1.33529 0.837127 0
M  V30 43223 C 3850.2 1.28274 1.62974 0
M  V30 43224 C 3850.62 -0.143168 1.87554 0
M  V30 43225 O 3849.98 -1.10036 1.4409 0
M  V30 43226 C 3850.03 2.06521 2.95604 0
M  V30 43227 O 3849.13 1.425 3.86998 0
M  V30 43228 H 3848.47 0.441222 0.496204 0
M  V30 43229 H 3851 1.76117 1.04134 0
M  V30 43230 H 3851.01 2.1735 3.45287 0
M  V30 43231 H 3849.69 3.102 2.77036 0
M  V30 43232 H 3848.27 1.40327 3.45489 0
M  V30 43233 N 3850.45 -1.05559 1.17026 0
M  V30 43234 C 3851.86 -1.59954 0.962884 0
M  V30 43235 C 3852.21 -1.89948 -0.491355 0
M  V30 43236 O 3851.34 -1.6784 -1.36597 0
M  V30 43237 C 3851.93 -2.90614 1.74151 0
M  V30 43238 C 3850.49 -3.41683 1.57891 0
M  V30 43239 C 3849.64 -2.15469 1.74552 0
M  V30 43240 H 3852.59 -0.884166 1.31788 0
M  V30 43241 H 3852.61 -3.60353 1.22171 0
M  V30 43242 H 3852.12 -2.68753 2.79988 0
M  V30 43243 H 3850.22 -3.68589 0.545271 0
M  V30 43244 H 3850.34 -4.16515 2.36753 0
M  V30 43245 H 3848.7 -2.2605 1.1736 0
M  V30 43246 H 3849.48 -1.96082 2.81792 0
M  V30 43247 N 3851.93 -0.969911 -1.2422 0
M  V30 43248 C 3852.88 -0.501255 -2.25291 0
M  V30 43249 C 3853.85 0.454354 -1.59765 0
M  V30 43250 O 3855.03 0.364228 -1.87291 0
M  V30 43251 C 3852.17 0.2003 -3.44518 0
M  V30 43252 C 3851.28 -0.794335 -4.24634 0
M  V30 43253 C 3850.42 -0.0686614 -5.31156 0
M  V30 43254 C 3849.46 -1.05321 -6.02971 0
M  V30 43255 N 3848.59 -0.357397 -7.0119 0
M  V30 43256 H 3853.43 -1.36797 -2.64746 0
M  V30 43257 H 3850.97 -0.685696 -1.30141 0
M  V30 43258 H 3852.93 0.623761 -4.12511 0
M  V30 43259 H 3851.56 1.03095 -3.05894 0
M  V30 43260 H 3850.61 -1.33623 -3.56159 0
M  V30 43261 H 3851.92 -1.54501 -4.74269 0
M  V30 43262 H 3851.08 0.412686 -6.05295 0
M  V30 43263 H 3849.82 0.714696 -4.82435 0
M  V30 43264 H 3848.82 -1.54541 -5.27633 0
M  V30 43265 H 3850.05 -1.83706 -6.53781 0
M  V30 43266 H 3847.99 0.406944 -6.54737 0
M  V30 43267 H 3847.91 -1.04691 -7.48716 0
M  V30 43268 H 3849.18 0.101908 -7.79433 0
M  V30 43269 N 3853.41 1.39131 -0.740291 0
M  V30 43270 C 3854.63 2.05224 -0.299641 0
M  V30 43271 C 3855.06 1.55456 1.05901 0
M  V30 43272 O 3854.41 0.700633 1.67215 0
M  V30 43273 C 3854.46 3.59205 -0.316855 0
M  V30 43274 O 3853.57 4.06524 0.693715 0
M  V30 43275 H 3852.91 0.650099 -0.135157 0
M  V30 43276 H 3855.44 1.78064 -1.00769 0
M  V30 43277 H 3855.45 4.07674 -0.163085 0
M  V30 43278 H 3854.12 3.94789 -1.30821 0
M  V30 43279 H 3852.7 3.69456 0.505647 0
M  V30 43280 N 3854.88 0.488329 1.49844 0
M  V30 43281 C 3856.3 0.0374098 1.86663 0
M  V30 43282 C 3856.65 -1.37279 1.40175 0
M  V30 43283 O 3855.77 -2.0208 0.774126 0
M  V30 43284 C 3856.37 0.0611119 3.38745 0
M  V30 43285 C 3854.93 -0.334409 3.74912 0
M  V30 43286 C 3854.07 0.439158 2.738 0
M  V30 43287 H 3857.02 0.701755 1.42341 0
M  V30 43288 H 3857.04 -0.737137 3.73291 0
M  V30 43289 H 3856.56 1.08759 3.72549 0
M  V30 43290 H 3854.66 -1.3646 3.46712 0
M  V30 43291 H 3854.77 -0.0237694 4.79094 0
M  V30 43292 H 3853.13 -0.109389 2.54465 0
M  V30 43293 H 3853.92 1.46548 3.10449 0
M  V30 43294 N 3856.36 -1.56034 0.221629 0
M  V30 43295 C 3857.31 -2.20293 -0.688463 0
M  V30 43296 C 3858.28 -1.15853 -1.19026 0
M  V30 43297 O 3859.46 -1.44209 -1.24934 0
M  V30 43298 C 3856.6 -2.88681 -1.89096 0
M  V30 43299 C 3855.72 -4.07714 -1.42805 0
M  V30 43300 C 3854.85 -4.63886 -2.58812 0
M  V30 43301 C 3853.89 -5.7522 -2.09258 0
M  V30 43302 N 3853.03 -6.25682 -3.18538 0
M  V30 43303 H 3857.87 -2.977 -0.133772 0
M  V30 43304 H 3855.41 -1.47 -0.0542749 0
M  V30 43305 H 3857.36 -3.26516 -2.59698 0
M  V30 43306 H 3855.99 -2.13792 -2.41853 0
M  V30 43307 H 3855.05 -3.75364 -0.616953 0
M  V30 43308 H 3856.36 -4.88161 -1.02469 0
M  V30 43309 H 3855.51 -5.04164 -3.37496 0
M  V30 43310 H 3854.25 -3.82601 -3.02436 0
M  V30 43311 H 3853.26 -5.34444 -1.29035 0
M  V30 43312 H 3854.48 -6.58339 -1.66633 0
M  V30 43313 H 3852.43 -5.47311 -3.61644 0
M  V30 43314 H 3852.34 -7.01253 -2.82454 0
M  V30 43315 H 3853.61 -6.70617 -3.97357 0
M  V30 43316 N 3857.84 0.0517601 -1.57515 0
M  V30 43317 C 3859.09 0.748173 -1.88495 0
M  V30 43318 C 3859.42 1.762 -0.816525 0
M  V30 43319 O 3858.69 1.93746 0.17104 0
M  V30 43320 C 3858.98 1.43819 -3.30133 0
M  V30 43321 C 3858.83 0.439421 -4.47648 0
M  V30 43322 C 3860.15 2.37806 -3.70319 0
M  V30 43323 H 3857.27 0.270525 -0.685555 0
M  V30 43324 H 3859.91 0.0111123 -1.89997 0
M  V30 43325 H 3858.06 2.06645 -3.28983 0
M  V30 43326 H 3859.73 -0.185169 -4.60928 0
M  V30 43327 H 3857.98 -0.243457 -4.33116 0
M  V30 43328 H 3858.65 0.960254 -5.43584 0
M  V30 43329 H 3861.12 1.85043 -3.72691 0
M  V30 43330 H 3860 2.83079 -4.70274 0
M  V30 43331 H 3860.26 3.23495 -3.01336 0
M  V30 43332 N 3859.32 1.54242 0.323587 0
M  V30 43333 C 3860.55 1.7641 1.08107 0
M  V30 43334 C 3860.96 0.512688 1.81706 0
M  V30 43335 O 3860.32 -0.516607 1.75035 0
M  V30 43336 C 3860.37 2.95723 2.07918 0
M  V30 43337 O 3860.09 4.16026 1.37309 0
M  V30 43338 C 3861.59 3.30101 2.95885 0
M  V30 43339 H 3858.81 0.588925 0.321572 0
M  V30 43340 H 3861.36 2.0113 0.369721 0
M  V30 43341 H 3859.51 2.73277 2.74588 0
M  V30 43342 H 3859.93 4.83139 2.0415 0
M  V30 43343 H 3861.4 4.16887 3.61814 0
M  V30 43344 H 3861.88 2.47267 3.62982 0
M  V30 43345 H 3862.48 3.54627 2.34777 0
M  V30 43346 N 3860.8 -0.585648 1.46314 0
M  V30 43347 C 3862.05 -1.34131 1.51173 0
M  V30 43348 C 3862.37 -1.94311 0.163725 0
M  V30 43349 O 3861.64 -1.78397 -0.809413 0
M  V30 43350 H 3860.22 -0.498005 0.556777 0
M  V30 43351 H 3862.88 -0.686101 1.82424 0
M  V30 43352 H 3861.97 -2.14953 2.26278 0
M  V30 43353 N 3862.28 -1.33971 -0.830033 0
M  V30 43354 C 3863.5 -1.28987 -1.61771 0
M  V30 43355 C 3863.92 0.137482 -1.88299 0
M  V30 43356 O 3863.28 1.08238 -1.46938 0
M  V30 43357 C 3863.33 -2.07126 -2.96279 0
M  V30 43358 O 3863.05 -3.44294 -2.70912 0
M  V30 43359 C 3864.55 -2.09456 -3.90696 0
M  V30 43360 H 3861.77 -0.444017 -0.50308 0
M  V30 43361 H 3864.31 -1.76477 -1.03325 0
M  V30 43362 H 3862.47 -1.63295 -3.51302 0
M  V30 43363 H 3862.88 -3.84599 -3.56628 0
M  V30 43364 H 3864.36 -2.68566 -4.82262 0
M  V30 43365 H 3864.83 -1.08709 -4.25534 0
M  V30 43366 H 3865.44 -2.53344 -3.41609 0
M  V30 43367 N 3863.75 1.04937 -1.17584 0
M  V30 43368 C 3864.72 2.10913 -0.897132 0
M  V30 43369 C 3865.72 1.60397 0.113795 0
M  V30 43370 O 3866.91 1.73795 -0.118665 0
M  V30 43371 C 3864.04 3.39157 -0.344311 0
M  V30 43372 H 3865.23 2.37071 -1.83678 0
M  V30 43373 H 3862.78 1.21222 -0.986655 0
M  V30 43374 H 3863.52 3.18657 0.602361 0
M  V30 43375 H 3863.3 3.77135 -1.07293 0
M  V30 43376 H 3864.79 4.17263 -0.167717 0
M  V30 43377 N 3865.23 0.976485 1.23703 0
M  V30 43378 C 3866.46 0.660732 1.96594 0
M  V30 43379 C 3866.88 -0.764885 1.71846 0
M  V30 43380 O 3866.24 -1.52044 0.987532 0
M  V30 43381 C 3866.29 0.952201 3.47801 0
M  V30 43382 O 3865.39 0.0421851 4.12378 0
M  V30 43383 H 3864.73 0.248897 0.615586 0
M  V30 43384 H 3867.26 1.30902 1.57245 0
M  V30 43385 H 3867.27 0.887308 3.98235 0
M  V30 43386 H 3865.95 1.99112 3.6514 0
M  V30 43387 H 3864.52 0.161152 3.72552 0
M  V30 43388 N 3866.71 -1.38737 0.747659 0
M  V30 43389 C 3867.66 -2.30508 0.11601 0
M  V30 43390 C 3868.63 -1.49873 -0.716061 0
M  V30 43391 O 3869.81 -1.78521 -0.673415 0
M  V30 43392 C 3866.95 -3.36269 -0.775706 0
M  V30 43393 C 3866.06 -4.31943 0.070351 0
M  V30 43394 C 3865.2 -5.24773 -0.823816 0
M  V30 43395 C 3864.24 -6.12094 0.0262325 0
M  V30 43396 N 3863.38 -6.97241 -0.824565 0
M  V30 43397 H 3868.22 -2.83951 0.904208 0
M  V30 43398 H 3865.75 -1.39803 0.457538 0
M  V30 43399 H 3867.71 -3.96189 -1.30728 0
M  V30 43400 H 3866.34 -2.84251 -1.52975 0
M  V30 43401 H 3865.39 -3.73534 0.719486 0
M  V30 43402 H 3866.7 -4.93472 0.727073 0
M  V30 43403 H 3865.86 -5.89781 -1.42277 0
M  V30 43404 H 3864.6 -4.63595 -1.51429 0
M  V30 43405 H 3863.6 -5.46087 0.637899 0
M  V30 43406 H 3864.83 -6.7534 0.713675 0
M  V30 43407 H 3862.77 -6.38618 -1.50009 0
M  V30 43408 H 3862.69 -7.55666 -0.224607 0
M  V30 43409 H 3863.96 -7.66666 -1.40868 0
M  V30 43410 N 3868.19 -0.496268 -1.49583 0
M  V30 43411 C 3869.13 0.284676 -2.29038 0
M  V30 43412 C 3870.1 0.964637 -1.35218 0
M  V30 43413 O 3871.29 0.972215 -1.64173 0
M  V30 43414 C 3868.43 1.34597 -3.1777 0
M  V30 43415 C 3867.54 0.678265 -4.26642 0
M  V30 43416 C 3866.68 1.7196 -5.02597 0
M  V30 43417 C 3865.72 1.0335 -6.03312 0
M  V30 43418 N 3864.85 2.01882 -6.72449 0
M  V30 43419 H 3869.69 -0.399136 -2.95315 0
M  V30 43420 H 3867.23 -0.208679 -1.45612 0
M  V30 43421 H 3869.19 1.97323 -3.67586 0
M  V30 43422 H 3867.82 1.99861 -2.53486 0
M  V30 43423 H 3866.87 -0.0621622 -3.80349 0
M  V30 43424 H 3868.18 0.137941 -4.98609 0
M  V30 43425 H 3867.34 2.42202 -5.56258 0
M  V30 43426 H 3866.08 2.29377 -4.30392 0
M  V30 43427 H 3865.08 0.316828 -5.48886 0
M  V30 43428 H 3866.31 0.46589 -6.775 0
M  V30 43429 H 3864.25 2.5827 -6.0302 0
M  V30 43430 H 3864.17 1.52903 -7.40376 0
M  V30 43431 H 3865.44 2.71428 -7.30717 0
M  V30 43432 N 3869.67 1.55914 -0.2299 0
M  V30 43433 C 3870.61 2.20655 0.676771 0
M  V30 43434 C 3871.58 1.16483 1.1841 0
M  V30 43435 O 3872.77 1.44869 1.24167 0
M  V30 43436 C 3869.91 2.8968 1.87562 0
M  V30 43437 C 3869.02 4.08466 1.40641 0
M  V30 43438 C 3868.16 4.65252 2.56348 0
M  V30 43439 C 3867.19 5.76321 2.06205 0
M  V30 43440 N 3866.33 6.27363 3.15215 0
M  V30 43441 H 3871.17 2.97766 0.117982 0
M  V30 43442 H 3868.71 1.47027 0.0464783 0
M  V30 43443 H 3870.67 3.27889 2.57963 0
M  V30 43444 H 3869.3 2.15072 2.40716 0
M  V30 43445 H 3868.35 3.75686 0.597038 0
M  V30 43446 H 3869.66 4.88698 0.998791 0
M  V30 43447 H 3868.81 5.05947 3.34818 0
M  V30 43448 H 3867.55 3.842 3.00403 0
M  V30 43449 H 3866.56 5.3512 1.26199 0
M  V30 43450 H 3867.78 6.59213 1.63139 0
M  V30 43451 H 3865.73 5.49222 3.58736 0
M  V30 43452 H 3865.65 7.02741 2.78731 0
M  V30 43453 H 3866.91 6.72715 3.93795 0
M  V30 43454 N 3871.14 -0.043406 1.5754 0
M  V30 43455 C 3872.08 -1.07573 2.02387 0
M  V30 43456 C 3873.09 -1.33322 0.934297 0
M  V30 43457 O 3874.28 -1.31062 1.21182 0
M  V30 43458 C 3871.38 -2.42058 2.37195 0
M  V30 43459 C 3870.55 -2.35868 3.68355 0
M  V30 43460 C 3869.61 -3.52685 3.90512 0
M  V30 43461 O 3868.64 -3.32827 4.61752 0
M  V30 43462 N 3869.84 -4.74053 3.35043 0
M  V30 43463 H 3872.6 -0.69359 2.91564 0
M  V30 43464 H 3870.16 -0.231603 1.60235 0
M  V30 43465 H 3872.16 -3.18902 2.49166 0
M  V30 43466 H 3870.73 -2.72169 1.53763 0
M  V30 43467 H 3869.95 -1.44218 3.66872 0
M  V30 43468 H 3871.23 -2.2886 4.54423 0
M  V30 43469 H 3870.63 -4.93089 2.77272 0
M  V30 43470 H 3869.19 -5.48311 3.52418 0
M  V30 43471 N 3872.62 -1.54412 -0.315402 0
M  V30 43472 C 3873.87 -1.72218 -1.04994 0
M  V30 43473 C 3874.18 -0.50721 -1.88909 0
M  V30 43474 O 3875.39 -0.566785 -2.65518 0
M  V30 43475 C 3873.85 -3.04642 -1.91628 0
M  V30 43476 C 3873.45 -4.33571 -1.12784 0
M  V30 43477 C 3875.2 -3.31811 -2.64768 0
M  V30 43478 C 3873.1 -5.57052 -1.98611 0
M  V30 43479 H 3872.03 -0.641821 -0.395705 0
M  V30 43480 H 3874.69 -1.80902 -0.307717 0
M  V30 43481 H 3873.07 -2.89887 -2.69781 0
M  V30 43482 H 3874.24 -4.59117 -0.393454 0
M  V30 43483 H 3872.56 -4.13229 -0.512902 0
M  V30 43484 H 3875.15 -4.21262 -3.29305 0
M  V30 43485 H 3875.5 -2.50048 -3.32839 0
M  V30 43486 H 3876.03 -3.47471 -1.93672 0
M  V30 43487 H 3872.77 -6.4144 -1.35035 0
M  V30 43488 H 3872.29 -5.35713 -2.69762 0
M  V30 43489 H 3873.97 -5.93766 -2.57003 0
M  V30 43490 N 3874.1 0.57788 -1.46623 0
M  V30 43491 C 3875.33 1.36183 -1.55762 0
M  V30 43492 C 3875.74 1.87733 -0.200436 0
M  V30 43493 O 3875.1 1.63882 0.803062 0
M  V30 43494 C 3875.15 2.54603 -2.56631 0
M  V30 43495 O 3874.87 2.05188 -3.87078 0
M  V30 43496 C 3876.37 3.47092 -2.75757 0
M  V30 43497 H 3873.59 0.415857 -0.526597 0
M  V30 43498 H 3876.14 0.702057 -1.92071 0
M  V30 43499 H 3874.29 3.1656 -2.23312 0
M  V30 43500 H 3874.71 2.82345 -4.4202 0
M  V30 43501 H 3876.18 4.26653 -3.50245 0
M  V30 43502 H 3876.66 3.99334 -1.82836 0
M  V30 43503 H 3877.26 2.90967 -3.1019 0
M  V30 43504 N 3875.58 1.34409 0.822917 0
M  V30 43505 C 3876.99 1.24006 1.39569 0
M  V30 43506 C 3877.34 -0.134449 1.95739 0
M  V30 43507 O 3876.47 -1.03478 1.90056 0
M  V30 43508 C 3877.06 2.24523 2.53722 0
M  V30 43509 C 3875.62 2.17911 3.06907 0
M  V30 43510 C 3874.77 2.11127 1.79779 0
M  V30 43511 H 3877.72 1.45775 0.627315 0
M  V30 43512 H 3877.74 1.86223 3.31815 0
M  V30 43513 H 3877.25 3.24551 2.1281 0
M  V30 43514 H 3875.35 1.21239 3.52324 0
M  V30 43515 H 3875.46 3.09165 3.65997 0
M  V30 43516 H 3873.83 1.56848 2.00676 0
M  V30 43517 H 3874.61 3.12989 1.41042 0
M  V30 43518 N 3877.06 -1.04312 1.18139 0
M  V30 43519 C 3878.28 -1.81664 1.00065 0
M  V30 43520 C 3878.71 -1.8273 -0.446248 0
M  V30 43521 O 3878.06 -1.24279 -1.32002 0
M  V30 43522 C 3878.11 -3.25252 1.55703 0
M  V30 43523 O 3877.22 -4.05019 0.776733 0
M  V30 43524 H 3876.56 -0.561348 0.354661 0
M  V30 43525 H 3879.09 -1.31387 1.56839 0
M  V30 43526 H 3879.1 -3.76035 1.5831 0
M  V30 43527 H 3877.77 -3.23791 2.61022 0
M  V30 43528 H 3876.35 -3.6371 0.822787 0
M  V30 43529 N 3878.53 -0.983032 -1.23184 0
M  V30 43530 C 3879.47 -0.483466 -2.24043 0
M  V30 43531 C 3880.48 0.416115 -1.57392 0
M  V30 43532 O 3881.67 0.21983 -1.77141 0
M  V30 43533 C 3878.77 0.319674 -3.37389 0
M  V30 43534 C 3877.94 -0.573666 -4.33622 0
M  V30 43535 C 3877 0.176073 -5.25905 0
M  V30 43536 O 3876.03 -0.435198 -5.67534 0
M  V30 43537 N 3877.23 1.46129 -5.61806 0
M  V30 43538 H 3879.99 -1.3507 -2.67537 0
M  V30 43539 H 3877.55 -0.856603 -1.37382 0
M  V30 43540 H 3879.55 0.82965 -3.96105 0
M  V30 43541 H 3878.12 1.08794 -2.93057 0
M  V30 43542 H 3877.34 -1.26444 -3.73371 0
M  V30 43543 H 3878.62 -1.18239 -4.94871 0
M  V30 43544 H 3878.02 1.9794 -5.2994 0
M  V30 43545 H 3876.58 1.91666 -6.22983 0
M  V30 43546 N 3880.01 1.38338 -0.755006 0
M  V30 43547 C 3881.25 2.01931 -0.316742 0
M  V30 43548 C 3881.62 1.58636 1.08159 0
M  V30 43549 O 3882.82 2.1457 1.61905 0
M  V30 43550 C 3881.09 3.54718 -0.437036 0
M  V30 43551 S 3882.65 4.38724 -0.0815635 0
M  V30 43552 H 3879.47 0.700315 -0.122803 0
M  V30 43553 H 3882.07 1.68818 -0.985937 0
M  V30 43554 H 3880.77 3.83716 -1.45567 0
M  V30 43555 H 3880.3 3.92609 0.249292 0
M  V30 43556 H 3882.32 4.832 1.12838 0
M  V30 43557 N 3881.49 0.504194 1.49317 0
M  V30 43558 C 3882.44 -0.272525 2.29185 0
M  V30 43559 C 3883.41 -0.957453 1.35728 0
M  V30 43560 O 3884.59 -0.963495 1.64686 0
M  V30 43561 C 3881.73 -1.3291 3.18479 0
M  V30 43562 C 3880.85 -0.655629 4.26996 0
M  V30 43563 C 3879.98 -1.69292 5.03501 0
M  V30 43564 C 3879.02 -1.00149 6.03851 0
M  V30 43565 N 3878.16 -1.98313 6.7351 0
M  V30 43566 H 3883 0.414792 2.95099 0
M  V30 43567 H 3880.53 0.216398 1.455 0
M  V30 43568 H 3882.49 -1.95371 3.68627 0
M  V30 43569 H 3881.12 -1.98514 2.54543 0
M  V30 43570 H 3880.17 0.0823321 3.80311 0
M  V30 43571 H 3881.49 -0.111496 4.98675 0
M  V30 43572 H 3880.64 -2.39249 5.57535 0
M  V30 43573 H 3879.38 -2.27091 4.31603 0
M  V30 43574 H 3878.38 -0.287715 5.49047 0
M  V30 43575 H 3879.61 -0.429954 6.77738 0
M  V30 43576 H 3877.55 -2.55069 6.04381 0
M  V30 43577 H 3877.47 -1.48975 7.41176 0
M  V30 43578 H 3878.74 -2.67549 7.32146 0
M  V30 43579 N 3882.97 -1.5579 0.238166 0
M  V30 43580 C 3883.88 -2.24649 -0.676009 0
M  V30 43581 C 3884.89 -1.25966 -1.20036 0
M  V30 43582 O 3886.07 -1.5882 -1.23847 0
M  V30 43583 C 3883.14 -2.92578 -1.86009 0
M  V30 43584 C 3882.2 -4.06648 -1.37607 0
M  V30 43585 C 3881.43 -4.71328 -2.50371 0
M  V30 43586 O 3881.65 -4.35052 -3.68899 0
M  V30 43587 O 3880.59 -5.60007 -2.20627 0
M  V30 43588 H 3884.41 -3.03466 -0.119319 0
M  V30 43589 H 3882 -1.49398 0.00702415 0
M  V30 43590 H 3883.88 -3.35394 -2.55126 0
M  V30 43591 H 3882.55 -2.16708 -2.40456 0
M  V30 43592 H 3881.46 -3.68367 -0.652438 0
M  V30 43593 H 3882.79 -4.8431 -0.877786 0
M  V30 43594 N 3884.45 0.0350506 -1.57561 0
M  V30 43595 C 3885.86 0.39059 -1.54747 0
M  V30 43596 C 3886.06 1.76972 -0.963485 0
M  V30 43597 O 3885.12 2.45703 -0.581921 0
M  V30 43598 C 3886.43 0.297931 -2.9922 0
M  V30 43599 C 3887.98 0.375451 -3.1074 0
M  V30 43600 C 3888.45 0.312306 -4.56934 0
M  V30 43601 N 3889.95 0.371283 -4.6171 0
M  V30 43602 C 3890.68 0.345219 -5.7236 0
M  V30 43603 N 3890.18 0.271799 -6.92267 0
M  V30 43604 N 3891.97 0.394506 -5.60714 0
M  V30 43605 H 3884.12 -0.867553 -1.93874 0
M  V30 43606 H 3886.38 -0.3293 -0.888969 0
M  V30 43607 H 3886.09 -0.64956 -3.4565 0
M  V30 43608 H 3885.96 1.09394 -3.60989 0
M  V30 43609 H 3888.35 1.31337 -2.64262 0
M  V30 43610 H 3888.43 -0.449796 -2.51814 0
M  V30 43611 H 3888.08 -0.621923 -5.04078 0
M  V30 43612 H 3888.01 1.15558 -5.13764 0
M  V30 43613 H 3890.5 0.430782 -3.75437 0
M  V30 43614 H 3890.81 0.256848 -7.72373 0
M  V30 43615 H 3889.15 0.237936 -6.94593 0
M  V30 43616 H 3892.35 0.449814 -4.65934 0
M  V30 43617 H 3892.52 0.370726 -6.46939 0
M  V30 43618 N 3885.92 1.54577 0.307209 0
M  V30 43619 C 3886.87 1.85845 1.39873 0
M  V30 43620 C 3887.87 0.731657 1.52785 0
M  V30 43621 O 3889.07 0.915561 1.54976 0
M  V30 43622 H 3885.45 0.589347 0.467091 0
M  V30 43623 H 3887.42 2.77093 1.10734 0
M  V30 43624 C 3886.17 2.11697 2.75825 0
M  V30 43625 H 3885.49 2.97871 2.6667 0
M  V30 43626 H 3886.93 2.37519 3.51227 0
M  V30 43627 C 3885.39 0.913579 3.24277 0
M  V30 43628 O 3885.92 0.130973 4.01486 0
M  V30 43629 N 3884.13 0.720675 2.81522 0
M  V30 43630 H 3883.67 1.35874 2.18851 0
M  V30 43631 H 3883.63 -0.0829587 3.14291 0
M  V30 43632 N 3887.4 -0.570096 1.46927 0
M  V30 43633 C 3888.33 -1.6882 1.61314 0
M  V30 43634 C 3889.31 -1.63678 0.462993 0
M  V30 43635 O 3890.5 -1.81499 0.690777 0
M  V30 43636 C 3887.63 -3.07463 1.61504 0
M  V30 43637 C 3886.58 -3.27444 2.75616 0
M  V30 43638 C 3885.91 -4.66743 2.60873 0
M  V30 43639 C 3887.21 -3.1406 4.17329 0
M  V30 43640 H 3888.9 -1.57036 2.54912 0
M  V30 43641 H 3886.45 -0.754056 1.22678 0
M  V30 43642 H 3888.4 -3.85517 1.70161 0
M  V30 43643 H 3887.13 -3.20176 0.644586 0
M  V30 43644 H 3885.78 -2.51795 2.66449 0
M  V30 43645 H 3885.43 -4.76238 1.61883 0
M  V30 43646 H 3885.13 -4.81063 3.37419 0
M  V30 43647 H 3886.66 -5.46949 2.7144 0
M  V30 43648 H 3888.07 -3.81944 4.27541 0
M  V30 43649 H 3886.47 -3.39896 4.94561 0
M  V30 43650 H 3887.54 -2.10971 4.36599 0
M  V30 43651 N 3888.88 -1.34844 -0.815777 0
M  V30 43652 C 3889.81 -1.22857 -1.93491 0
M  V30 43653 C 3890.83 -0.153979 -1.6207 0
M  V30 43654 O 3892.02 -0.406459 -1.73811 0
M  V30 43655 C 3889.12 -0.867064 -3.27621 0
M  V30 43656 C 3888.29 -2.03812 -3.87013 0
M  V30 43657 C 3887.35 -1.65387 -4.99533 0
M  V30 43658 O 3886.37 -2.3714 -5.17449 0
M  V30 43659 N 3887.58 -0.572158 -5.77673 0
M  V30 43660 H 3890.34 -2.19272 -2.04303 0
M  V30 43661 H 3887.9 -1.27892 -0.99273 0
M  V30 43662 H 3889.89 -0.591661 -4.00352 0
M  V30 43663 H 3888.46 0.0071172 -3.12599 0
M  V30 43664 H 3887.68 -2.47785 -3.06588 0
M  V30 43665 H 3888.97 -2.82113 -4.23426 0
M  V30 43666 H 3888.37 0.0241937 -5.65695 0
M  V30 43667 H 3886.93 -0.356508 -6.50824 0
M  V30 43668 N 3890.36 1.03684 -1.1869 0
M  V30 43669 C 3891.64 1.73965 -0.894171 0
M  V30 43670 C 3892.02 2.02332 0.602068 0
M  V30 43671 O 3891.36 1.67157 1.55791 0
M  V30 43672 C 3891.57 3.02211 -1.74555 0
M  V30 43673 C 3892.92 3.75874 -1.97493 0
M  V30 43674 O 3893.95 3.12119 -1.7164 0
M  V30 43675 O 3892.81 4.90471 -2.41039 0
M  V30 43676 H 3889.9 0.757208 -0.332514 0
M  V30 43677 H 3892.45 1.09715 -1.29463 0
M  V30 43678 H 3891.22 2.77414 -2.75965 0
M  V30 43679 H 3890.84 3.74201 -1.34385 0
M  V30 43680 N 3891.84 0.989551 1.22661 0
M  V30 43681 C 3893.25 0.699154 1.73115 0
M  V30 43682 C 3893.6 -0.784166 1.79848 0
M  V30 43683 O 3892.72 -1.61309 1.44251 0
M  V30 43684 C 3893.32 1.26245 3.144 0
M  V30 43685 C 3891.88 1.02151 3.62274 0
M  V30 43686 C 3891.03 1.38467 2.40255 0
M  V30 43687 H 3893.98 1.16231 1.08055 0
M  V30 43688 H 3894 0.639373 3.7509 0
M  V30 43689 H 3893.51 2.34204 3.09468 0
M  V30 43690 H 3891.61 -0.0415967 3.72577 0
M  V30 43691 H 3891.72 1.68252 4.48584 0
M  V30 43692 H 3890.09 0.803222 2.41703 0
M  V30 43693 H 3890.87 2.47422 2.37986 0
M  V30 43694 N 3893.32 -1.37936 0.762332 0
M  V30 43695 C 3894.56 -2.00213 0.322881 0
M  V30 43696 C 3894.89 -1.60378 -1.09511 0
M  V30 43697 O 3894.17 -0.845462 -1.75163 0
M  V30 43698 C 3894.45 -3.57205 0.455714 0
M  V30 43699 C 3894.31 -4.06978 1.91544 0
M  V30 43700 C 3895.62 -4.39859 -0.145681 0
M  V30 43701 H 3892.74 -0.727363 0.118794 0
M  V30 43702 H 3895.39 -1.63751 0.963614 0
M  V30 43703 H 3893.54 -3.88396 -0.0897658 0
M  V30 43704 H 3895.21 -3.86392 2.5199 0
M  V30 43705 H 3893.45 -3.5952 2.42751 0
M  V30 43706 H 3894.12 -5.1605 1.95949 0
M  V30 43707 H 3896.6 -4.14871 0.319633 0
M  V30 43708 H 3895.47 -5.48895 -0.0225476 0
M  V30 43709 H 3895.73 -4.24501 -1.23497 0
M  V30 43710 N 3894.79 -0.512106 -1.49048 0
M  V30 43711 C 3896.2 -0.0671014 -1.86579 0
M  V30 43712 C 3896.56 1.35031 -1.42341 0
M  V30 43713 O 3895.68 2.00823 -0.806177 0
M  V30 43714 C 3896.28 -0.114996 -3.38605 0
M  V30 43715 C 3894.83 0.274721 -3.75396 0
M  V30 43716 C 3893.98 -0.482661 -2.73067 0
M  V30 43717 H 3896.93 -0.724312 -1.41207 0
M  V30 43718 H 3896.95 0.677656 -3.74417 0
M  V30 43719 H 3896.47 -1.14672 -3.70772 0
M  V30 43720 H 3894.57 1.30927 -3.4884 0
M  V30 43721 H 3894.68 -0.0524534 -4.79071 0
M  V30 43722 H 3893.04 0.0688917 -2.54607 0
M  V30 43723 H 3893.83 -1.51468 -3.08078 0
M  V30 43724 N 3896.27 1.55662 -0.246424 0
M  V30 43725 C 3897.22 2.2136 0.653329 0
M  V30 43726 C 3898.19 1.17732 1.17168 0
M  V30 43727 O 3899.37 1.46178 1.22624 0
M  V30 43728 C 3896.51 2.91653 1.84479 0
M  V30 43729 C 3895.63 4.09934 1.36301 0
M  V30 43730 C 3894.76 4.67944 2.51399 0
M  V30 43731 C 3893.8 5.78476 2.0008 0
M  V30 43732 N 3892.94 6.30671 3.08543 0
M  V30 43733 H 3897.78 2.97875 0.0863934 0
M  V30 43734 H 3895.31 1.47068 0.0308816 0
M  V30 43735 H 3897.27 3.30607 2.5447 0
M  V30 43736 H 3895.9 2.17613 2.38421 0
M  V30 43737 H 3894.95 3.76298 0.557158 0
M  V30 43738 H 3896.27 4.8973 0.946902 0
M  V30 43739 H 3895.42 5.09469 3.29433 0
M  V30 43740 H 3894.16 3.87364 2.96311 0
M  V30 43741 H 3893.16 5.36429 1.20517 0
M  V30 43742 H 3894.39 6.60907 1.56138 0
M  V30 43743 H 3892.34 5.52996 3.52891 0
M  V30 43744 H 3892.25 7.05658 2.71262 0
M  V30 43745 H 3893.52 6.76854 3.86638 0
M  V30 43746 N 3897.75 -0.0266943 1.57577 0
M  V30 43747 C 3898.66 -1.04348 2.10116 0
M  V30 43748 C 3899.68 -1.39476 1.04032 0
M  V30 43749 O 3900.85 -1.48747 1.3578 0
M  V30 43750 C 3897.92 -2.32477 2.57207 0
M  V30 43751 C 3896.98 -2.03908 3.77783 0
M  V30 43752 C 3896.21 -3.25928 4.22619 0
M  V30 43753 O 3896.43 -4.36686 3.66963 0
M  V30 43754 O 3895.37 -3.11489 5.15032 0
M  V30 43755 H 3899.19 -0.626969 2.97158 0
M  V30 43756 H 3896.78 -0.243829 1.47397 0
M  V30 43757 H 3898.66 -3.078 2.87815 0
M  V30 43758 H 3897.34 -2.73418 1.73275 0
M  V30 43759 H 3896.24 -1.26146 3.5219 0
M  V30 43760 H 3897.58 -1.67821 4.62706 0
M  V30 43761 N 3899.23 -1.54738 -0.299007 0
M  V30 43762 C 3900.45 -1.78432 -1.0572 0
M  V30 43763 C 3900.88 -0.543126 -1.80088 0
M  V30 43764 O 3900.24 0.506408 -1.74084 0
M  V30 43765 C 3900.28 -2.99259 -2.01187 0
M  V30 43766 O 3899.39 -2.72523 -3.09524 0
M  V30 43767 H 3898.73 -0.590526 -0.303603 0
M  V30 43768 H 3901.26 -2.01825 -0.335823 0
M  V30 43769 H 3901.27 -3.27284 -2.43617 0
M  V30 43770 H 3899.94 -3.89257 -1.46465 0
M  V30 43771 H 3898.52 -2.55521 -2.71594 0
M  V30 43772 N 3900.71 0.562296 -1.47228 0
M  V30 43773 C 3902.12 1.14443 -1.47511 0
M  V30 43774 C 3902.47 1.94882 -0.227024 0
M  V30 43775 O 3901.59 2.05817 0.668446 0
M  V30 43776 C 3902.19 2.08212 -2.6727 0
M  V30 43777 C 3900.75 2.61708 -2.70529 0
M  V30 43778 C 3899.89 1.37984 -2.40532 0
M  V30 43779 H 3902.84 0.349158 -1.54811 0
M  V30 43780 H 3902.87 2.92008 -2.4395 0
M  V30 43781 H 3902.38 1.4964 -3.58091 0
M  V30 43782 H 3900.48 3.24093 -1.83833 0
M  V30 43783 H 3900.59 3.03049 -3.71077 0
M  V30 43784 H 3898.96 1.68486 -1.9101 0
M  V30 43785 H 3899.74 0.812118 -3.33556 0
M  V30 43786 N 3902.18 1.35274 0.808615 0
M  V30 43787 C 3903.13 1.28029 1.92034 0
M  V30 43788 C 3904.1 0.15264 1.65397 0
M  V30 43789 O 3905.29 0.336005 1.87818 0
M  V30 43790 C 3902.43 1.05613 3.28542 0
M  V30 43791 C 3901.54 2.27282 3.67378 0
M  V30 43792 C 3900.67 1.98032 4.92906 0
M  V30 43793 C 3899.71 3.15766 5.24365 0
M  V30 43794 N 3898.85 2.86306 6.41072 0
M  V30 43795 H 3903.69 2.23098 1.97563 0
M  V30 43796 H 3901.23 1.10903 0.966378 0
M  V30 43797 H 3903.18 0.90649 4.07233 0
M  V30 43798 H 3901.81 0.142072 3.22487 0
M  V30 43799 H 3900.87 2.53117 2.83964 0
M  V30 43800 H 3902.18 3.15201 3.86587 0
M  V30 43801 H 3901.33 1.79887 5.79418 0
M  V30 43802 H 3900.07 1.07395 4.75729 0
M  V30 43803 H 3899.08 3.34491 4.36344 0
M  V30 43804 H 3900.3 4.07202 5.43473 0
M  V30 43805 H 3898.25 1.9826 6.25323 0
M  V30 43806 H 3898.16 3.67759 6.60522 0
M  V30 43807 H 3899.43 2.71697 7.30617 0
M  V30 43808 N 3903.66 -1.03053 1.19239 0
M  V30 43809 C 3904.89 -1.80592 1.01986 0
M  V30 43810 C 3905.31 -1.83193 -0.426842 0
M  V30 43811 O 3904.67 -1.25672 -1.30676 0
M  V30 43812 C 3904.72 -3.23582 1.59144 0
M  V30 43813 O 3903.82 -4.04173 0.819647 0
M  V30 43814 H 3903.16 -0.557555 0.360595 0
M  V30 43815 H 3905.69 -1.29716 1.58224 0
M  V30 43816 H 3905.7 -3.74334 1.62289 0
M  V30 43817 H 3904.38 -3.21004 2.64442 0
M  V30 43818 H 3902.96 -3.62816 0.861317 0
M  V30 43819 N 3905.14 -0.996042 -1.22134 0
M  V30 43820 C 3906.38 -0.681916 -1.9269 0
M  V30 43821 C 3906.74 0.772123 -1.7579 0
M  V30 43822 O 3907.95 1.19781 -2.40636 0
M  V30 43823 C 3906.22 -1.08054 -3.40675 0
M  V30 43824 S 3907.78 -0.885257 -4.29777 0
M  V30 43825 H 3904.59 -0.249228 -0.665888 0
M  V30 43826 H 3907.2 -1.27898 -1.47859 0
M  V30 43827 H 3905.9 -2.13509 -3.50488 0
M  V30 43828 H 3905.43 -0.475397 -3.90517 0
M  V30 43829 H 3907.45 0.222525 -4.95701 0
M  V30 43830 N 3906.62 1.37529 -0.769636 0
M  V30 43831 C 3907.87 1.99743 -0.333001 0
M  V30 43832 C 3908.19 1.61096 1.08987 0
M  V30 43833 O 3907.45 0.847687 1.76388 0
M  V30 43834 C 3907.75 3.54906 -0.421448 0
M  V30 43835 C 3907.41 4.13315 -1.80227 0
M  V30 43836 C 3906.08 4.2898 -2.18013 0
M  V30 43837 C 3908.43 4.45369 -2.70732 0
M  V30 43838 C 3905.76 4.74002 -3.45744 0
M  V30 43839 C 3908.11 4.91815 -3.97871 0
M  V30 43840 C 3906.77 5.05686 -4.35704 0
M  V30 43841 H 3906.04 0.730912 -0.121854 0
M  V30 43842 H 3908.69 1.6433 -0.983249 0
M  V30 43843 H 3906.99 3.90553 0.312342 0
M  V30 43844 H 3908.69 4.00947 -0.064941 0
M  V30 43845 H 3905.28 4.01547 -1.49859 0
M  V30 43846 H 3909.46 4.32853 -2.428 0
M  V30 43847 H 3904.72 4.82928 -3.74954 0
M  V30 43848 H 3908.89 5.15584 -4.6813 0
M  V30 43849 H 3906.52 5.40332 -5.34739 0
M  V30 43850 N 3908.1 0.520003 1.48774 0
M  V30 43851 C 3909.34 -0.0177149 2.02492 0
M  V30 43852 C 3909.67 -1.35223 1.39803 0
M  V30 43853 O 3908.93 -1.88397 0.529624 0
M  V30 43854 C 3909.23 -0.199141 3.56845 0
M  V30 43855 C 3908.89 1.05976 4.38269 0
M  V30 43856 C 3907.55 1.4048 4.60238 0
M  V30 43857 C 3909.91 1.89568 4.85503 0
M  V30 43858 C 3907.23 2.58492 5.26687 0
M  V30 43859 C 3909.59 3.06749 5.53252 0
M  V30 43860 C 3908.25 3.41611 5.73462 0
M  V30 43861 H 3907.52 -0.00648234 0.740972 0
M  V30 43862 H 3910.17 0.684008 1.78867 0
M  V30 43863 H 3908.47 -0.983551 3.79254 0
M  V30 43864 H 3910.17 -0.62995 3.96021 0
M  V30 43865 H 3906.76 0.781029 4.21424 0
M  V30 43866 H 3910.94 1.64223 4.68342 0
M  V30 43867 H 3906.2 2.85717 5.40533 0
M  V30 43868 H 3910.37 3.71835 5.88822 0
M  V30 43869 H 3908 4.33155 6.24724 0
M  V30 43870 N 3909.57 -1.55529 0.254676 0
M  V30 43871 C 3910.85 -1.91068 -0.41863 0
M  V30 43872 C 3911.23 -1.17641 -1.75282 0
M  V30 43873 O 3910.58 -0.296451 -2.26569 0
M  V30 43874 C 3910.79 -3.44163 -0.579064 0
M  V30 43875 C 3912.14 -4.15562 -0.871378 0
M  V30 43876 O 3913.16 -3.49944 -0.66464 0
M  V30 43877 O 3912.02 -5.31645 -1.26553 0
M  V30 43878 H 3909.11 -0.795545 -0.225916 0
M  V30 43879 H 3911.66 -1.67039 0.299318 0
M  V30 43880 H 3910.43 -3.89634 0.360689 0
M  V30 43881 H 3910.06 -3.74078 -1.34726 0
M  V30 43882 N 3911.05 0.0183372 -1.57589 0
M  V30 43883 C 3912.28 0.722138 -1.94422 0
M  V30 43884 C 3912.7 1.6752 -0.855501 0
M  V30 43885 O 3912.06 1.80323 0.187922 0
M  V30 43886 C 3912.11 1.4461 -3.30334 0
M  V30 43887 O 3911.21 2.55977 -3.23341 0
M  V30 43888 H 3910.55 0.193455 -0.635194 0
M  V30 43889 H 3913.08 -0.0293887 -2.04579 0
M  V30 43890 H 3913.09 1.81363 -3.65474 0
M  V30 43891 H 3911.77 0.747184 -4.09133 0
M  V30 43892 H 3910.35 2.21687 -2.99849 0
M  V30 43893 N 3912.53 1.54894 0.290797 0
M  V30 43894 C 3913.95 1.46336 0.637028 0
M  V30 43895 C 3914.15 0.662883 1.90284 0
M  V30 43896 O 3913.2 0.174634 2.51895 0
M  V30 43897 C 3914.52 2.90393 0.780534 0
M  V30 43898 C 3916.06 3.00499 0.875754 0
M  V30 43899 C 3916.54 4.45774 1.05118 0
M  V30 43900 N 3918.03 4.49527 1.11714 0
M  V30 43901 C 3918.76 5.59128 1.27135 0
M  V30 43902 N 3918.26 6.78633 1.39389 0
M  V30 43903 N 3920.05 5.46836 1.30104 0
M  V30 43904 H 3912.2 2.05401 -0.540743 0
M  V30 43905 H 3914.47 0.930685 -0.180361 0
M  V30 43906 H 3914.17 3.51612 -0.0788473 0
M  V30 43907 H 3914.05 3.38395 1.66639 0
M  V30 43908 H 3916.43 2.39388 1.72561 0
M  V30 43909 H 3916.52 2.55777 -0.0343293 0
M  V30 43910 H 3916.16 5.07482 0.206045 0
M  V30 43911 H 3916.09 4.88135 1.97564 0
M  V30 43912 H 3918.58 3.63435 1.03555 0
M  V30 43913 H 3918.89 7.57916 1.5094 0
M  V30 43914 H 3917.24 6.81479 1.36426 0
M  V30 43915 H 3920.43 4.52418 1.20149 0
M  V30 43916 H 3920.6 6.323 1.41779 0
M  V30 43917 N 3914.01 -0.55448 1.47524 0
M  V30 43918 C 3915.23 -1.34169 1.58157 0
M  V30 43919 C 3915.66 -1.86649 0.233157 0
M  V30 43920 O 3915.02 -1.63115 -0.79141 0
M  V30 43921 C 3915.06 -2.48562 2.61246 0
M  V30 43922 O 3914.17 -3.50874 2.16706 0
M  V30 43923 H 3913.51 -0.398412 0.531191 0
M  V30 43924 H 3916.04 -0.669807 1.93325 0
M  V30 43925 H 3916.05 -2.95093 2.81752 0
M  V30 43926 H 3914.72 -2.09721 3.59152 0
M  V30 43927 H 3913.3 -3.10629 2.06311 0
M  V30 43928 N 3915.49 -1.35701 -0.80143 0
M  V30 43929 C 3916.43 -1.29046 -1.91352 0
M  V30 43930 C 3917.4 -0.16141 -1.65314 0
M  V30 43931 O 3918.59 -0.345961 -1.87637 0
M  V30 43932 C 3915.73 -1.07354 -3.27977 0
M  V30 43933 C 3914.84 -2.29227 -3.66168 0
M  V30 43934 C 3913.98 -2.00643 -4.91849 0
M  V30 43935 C 3913.02 -3.18542 -5.22683 0
M  V30 43936 N 3912.15 -2.89701 -6.39545 0
M  V30 43937 H 3916.99 -2.24143 -1.96377 0
M  V30 43938 H 3914.53 -1.11414 -0.960482 0
M  V30 43939 H 3916.49 -0.928074 -4.06746 0
M  V30 43940 H 3915.12 -0.159172 -3.22407 0
M  V30 43941 H 3914.17 -2.5462 -2.82618 0
M  V30 43942 H 3915.48 -3.17247 -3.8491 0
M  V30 43943 H 3914.64 -1.82957 -5.78456 0
M  V30 43944 H 3913.37 -1.09916 -4.75152 0
M  V30 43945 H 3912.38 -3.368 -4.34564 0
M  V30 43946 H 3913.6 -4.10079 -5.41306 0
M  V30 43947 H 3911.55 -2.01573 -6.24263 0
M  V30 43948 H 3911.47 -3.71257 -6.58562 0
M  V30 43949 H 3912.74 -2.75568 -7.29166 0
M  V30 43950 N 3916.96 1.02419 -1.19783 0
M  V30 43951 C 3918.19 1.80049 -1.02942 0
M  V30 43952 C 3918.61 1.83417 0.417121 0
M  V30 43953 O 3917.97 1.26363 1.30008 0
M  V30 43954 C 3918.02 3.22734 -1.60858 0
M  V30 43955 O 3917.12 4.03732 -0.84107 0
M  V30 43956 H 3916.47 0.555634 -0.363547 0
M  V30 43957 H 3919 1.28875 -1.5891 0
M  V30 43958 H 3919.01 3.73468 -1.64272 0
M  V30 43959 H 3917.68 3.19597 -2.6614 0
M  V30 43960 H 3916.26 3.62355 -0.880546 0
M  V30 43961 N 3918.44 1.0025 1.21604 0
M  V30 43962 C 3919.37 0.580951 2.26157 0
M  V30 43963 C 3920.35 -0.396988 1.65403 0
M  V30 43964 O 3921.54 -0.285518 1.9209 0
M  V30 43965 C 3918.67 -0.0956954 3.47168 0
M  V30 43966 C 3917.62 0.801769 4.20423 0
M  V30 43967 C 3916.95 -0.00832843 5.34699 0
M  V30 43968 C 3918.25 2.1032 4.78083 0
M  V30 43969 H 3919.94 1.45491 2.61673 0
M  V30 43970 H 3917.49 0.701017 1.25785 0
M  V30 43971 H 3919.44 -0.402067 4.19478 0
M  V30 43972 H 3918.17 -1.00427 3.10776 0
M  V30 43973 H 3916.83 1.09193 3.49961 0
M  V30 43974 H 3916.47 -0.918119 4.9455 0
M  V30 43975 H 3916.17 0.589208 5.84638 0
M  V30 43976 H 3917.7 -0.308573 6.0982 0
M  V30 43977 H 3919.11 1.86014 5.42284 0
M  V30 43978 H 3917.51 2.65037 5.38401 0
M  V30 43979 H 3918.58 2.77562 3.97602 0
M  V30 43980 N 3919.92 -1.37119 0.776919 0
M  V30 43981 C 3921.33 -1.8218 0.408343 0
M  V30 43982 C 3921.68 -1.64703 -1.06618 0
M  V30 43983 O 3920.81 -1.16101 -1.82619 0
M  V30 43984 C 3921.4 -3.30745 0.734397 0
M  V30 43985 C 3919.96 -3.74063 0.418812 0
M  V30 43986 C 3919.11 -2.59573 0.975555 0
M  V30 43987 H 3922.06 -1.25518 0.971133 0
M  V30 43988 H 3922.08 -3.80494 0.0209226 0
M  V30 43989 H 3921.59 -3.43433 1.80763 0
M  V30 43990 H 3919.69 -3.66941 -0.646897 0
M  V30 43991 H 3919.81 -4.69974 0.93068 0
M  V30 43992 H 3918.17 -2.51547 0.399493 0
M  V30 43993 H 3918.95 -2.75052 2.0543 0
M  V30 43994 N 3921.4 -0.527886 -1.48496 0
M  V30 43995 C 3922.62 0.00507079 -2.07399 0
M  V30 43996 C 3923.05 1.27588 -1.38213 0
M  V30 43997 O 3922.41 1.75693 -0.447404 0
M  V30 43998 C 3922.46 0.214232 -3.59963 0
M  V30 43999 O 3921.56 1.28335 -3.91923 0
M  V30 44000 H 3920.9 -0.0381955 -0.662901 0
M  V30 44001 H 3923.43 -0.735199 -1.90934 0
M  V30 44002 H 3923.44 0.437532 -4.05647 0
M  V30 44003 H 3922.12 -0.7141 -4.09724 0
M  V30 44004 H 3920.69 1.04287 -3.5802 0
M  V30 44005 N 3922.88 1.55391 -0.26292 0
M  V30 44006 C 3924.29 1.85187 0.237192 0
M  V30 44007 C 3924.64 1.18489 1.56381 0
M  V30 44008 O 3923.76 0.468886 2.11259 0
M  V30 44009 C 3924.36 3.35968 0.437146 0
M  V30 44010 C 3922.92 3.65932 0.881503 0
M  V30 44011 C 3922.07 2.77281 -0.0321977 0
M  V30 44012 H 3925.02 1.51106 -0.485052 0
M  V30 44013 H 3925.04 3.58414 1.27748 0
M  V30 44014 H 3924.55 3.84484 -0.528541 0
M  V30 44015 H 3922.65 3.22906 1.85909 0
M  V30 44016 H 3922.76 4.73548 0.727271 0
M  V30 44017 H 3921.13 2.50098 0.481996 0
M  V30 44018 H 3921.91 3.28608 -0.993548 0
M  V30 44019 N 3924.36 -0.00997961 1.57597 0
M  V30 44020 C 3925.31 -1.01288 2.04266 0
M  V30 44021 C 3926.29 -1.3091 0.935493 0
M  V30 44022 O 3927.48 -1.30175 1.19931 0
M  V30 44023 C 3924.61 -2.30806 2.54133 0
M  V30 44024 C 3923.7 -2.04192 3.71708 0
M  V30 44025 N 3924.09 -1.47701 4.83754 0
M  V30 44026 C 3922.39 -2.34384 3.79447 0
M  V30 44027 C 3923.09 -1.37329 5.65257 0
M  V30 44028 N 3922.06 -1.85547 5.10953 0
M  V30 44029 H 3925.86 -0.570438 2.88311 0
M  V30 44030 H 3923.38 -0.215891 1.60959 0
M  V30 44031 H 3925.38 -3.03484 2.85838 0
M  V30 44032 H 3924.04 -2.75712 1.71502 0
M  V30 44033 H 3925.05 -1.15715 5.04807 0
M  V30 44034 H 3921.72 -2.82234 3.07653 0
M  V30 44035 H 3923.11 -0.939801 6.65295 0
M  V30 44036 N 3925.83 -1.55046 -0.282578 0
M  V30 44037 C 3927.24 -1.66007 -0.854309 0
M  V30 44038 C 3927.6 -0.580786 -1.87407 0
M  V30 44039 O 3926.72 0.279412 -2.14589 0
M  V30 44040 C 3927.32 -3.00939 -1.55632 0
M  V30 44041 C 3925.87 -3.1396 -2.07621 0
M  V30 44042 C 3925.02 -2.61768 -0.915018 0
M  V30 44043 H 3927.97 -1.5859 -0.0591432 0
M  V30 44044 H 3927.99 -2.93392 -2.42283 0
M  V30 44045 H 3927.51 -3.7947 -0.813875 0
M  V30 44046 H 3925.61 -2.40184 -2.84855 0
M  V30 44047 H 3925.72 -4.20386 -2.29809 0
M  V30 44048 H 3924.08 -2.18684 -1.30574 0
M  V30 44049 H 3924.87 -3.42794 -0.186238 0
M  V30 44050 N 3927.31 0.546649 -1.47816 0
M  V30 44051 C 3928.56 1.30526 -1.55212 0
M  V30 44052 C 3928.89 1.92971 -0.218162 0
M  V30 44053 O 3928.17 1.78425 0.774266 0
M  V30 44054 C 3928.45 2.40735 -2.67804 0
M  V30 44055 C 3928.3 1.8309 -4.1085 0
M  V30 44056 C 3929.62 3.42603 -2.76244 0
M  V30 44057 H 3926.74 0.473219 -0.565007 0
M  V30 44058 H 3929.38 0.610682 -1.79919 0
M  V30 44059 H 3927.53 2.99981 -2.46868 0
M  V30 44060 H 3929.2 1.28023 -4.43179 0
M  V30 44061 H 3927.45 1.13708 -4.18632 0
M  V30 44062 H 3928.12 2.6281 -4.85423 0
M  V30 44063 H 3930.59 2.9329 -2.95161 0
M  V30 44064 H 3929.47 4.17131 -3.56782 0
M  V30 44065 H 3929.73 4.02116 -1.83726 0
M  V30 44066 N 3928.79 1.36124 0.794222 0
M  V30 44067 C 3930.21 1.16433 1.09158 0
M  V30 44068 C 3930.41 -0.0148443 2.01495 0
M  V30 44069 O 3929.46 -0.681687 2.43124 0
M  V30 44070 C 3930.77 2.47298 1.71067 0
M  V30 44071 C 3932.32 2.53618 1.83431 0
M  V30 44072 C 3932.8 3.84558 2.48755 0
M  V30 44073 N 3934.29 3.85878 2.56228 0
M  V30 44074 C 3935.02 4.8393 3.07571 0
M  V30 44075 N 3934.52 5.92374 3.59257 0
M  V30 44076 N 3936.31 4.71354 3.06238 0
M  V30 44077 H 3928.46 2.1163 0.180668 0
M  V30 44078 H 3930.73 0.93719 0.142758 0
M  V30 44079 H 3930.43 3.33828 1.10688 0
M  V30 44080 H 3930.31 2.62754 2.7063 0
M  V30 44081 H 3932.69 1.6751 2.4295 0
M  V30 44082 H 3932.77 2.42067 0.826877 0
M  V30 44083 H 3932.42 4.7107 1.89882 0
M  V30 44084 H 3932.35 3.93403 3.50059 0
M  V30 44085 H 3934.84 3.07529 2.19623 0
M  V30 44086 H 3935.15 6.63169 3.9677 0
M  V30 44087 H 3933.5 5.96049 3.57422 0
M  V30 44088 H 3936.69 3.85767 2.65144 0
M  V30 44089 H 3936.86 5.4793 3.45944 0
M  V30 44090 N 3930.27 -1.01782 1.20325 0
M  V30 44091 C 3931.5 -1.78705 1.03674 0
M  V30 44092 C 3931.91 -1.84544 -0.417156 0
M  V30 44093 O 3931.25 -1.29647 -1.30144 0
M  V30 44094 C 3931.31 -3.24691 1.54324 0
M  V30 44095 C 3930.97 -3.42461 3.02604 0
M  V30 44096 C 3931.97 -3.3178 4.00273 0
M  V30 44097 C 3929.66 -3.68317 3.41537 0
M  V30 44098 C 3931.65 -3.46698 5.34864 0
M  V30 44099 C 3929.34 -3.82879 4.76284 0
M  V30 44100 C 3930.34 -3.72073 5.72757 0
M  V30 44101 O 3930.02 -3.86191 7.05062 0
M  V30 44102 H 3929.76 -0.568873 0.365184 0
M  V30 44103 H 3932.31 -1.29011 1.59829 0
M  V30 44104 H 3930.54 -3.75461 0.92554 0
M  V30 44105 H 3932.23 -3.83244 1.33712 0
M  V30 44106 H 3932.99 -3.11743 3.71539 0
M  V30 44107 H 3928.87 -3.75816 2.6699 0
M  V30 44108 H 3932.42 -3.3818 6.10148 0
M  V30 44109 H 3928.31 -4.02417 5.04709 0
M  V30 44110 H 3929.08 -4.03216 7.12291 0
M  V30 44111 N 3931.75 -1.00894 -1.21071 0
M  V30 44112 C 3932.99 -0.693884 -1.90241 0
M  V30 44113 C 3933.32 0.775749 -1.7836 0
M  V30 44114 O 3932.58 1.57837 -1.15697 0
M  V30 44115 C 3932.87 -1.06556 -3.41146 0
M  V30 44116 C 3932.54 -2.53012 -3.73224 0
M  V30 44117 C 3931.2 -2.9303 -3.81689 0
M  V30 44118 C 3933.55 -3.47862 -3.88126 0
M  V30 44119 C 3930.88 -4.26854 -4.02508 0
M  V30 44120 C 3933.23 -4.81364 -4.10452 0
M  V30 44121 C 3931.9 -5.21101 -4.17145 0
M  V30 44122 H 3931.17 -0.25391 -0.69614 0
M  V30 44123 H 3933.82 -1.26811 -1.43497 0
M  V30 44124 H 3932.12 -0.409644 -3.89653 0
M  V30 44125 H 3933.82 -0.799594 -3.92947 0
M  V30 44126 H 3930.41 -2.21 -3.67229 0
M  V30 44127 H 3934.59 -3.18107 -3.80948 0
M  V30 44128 H 3929.85 -4.57206 -4.05922 0
M  V30 44129 H 3934.02 -5.54793 -4.20925 0
M  V30 44130 H 3931.65 -6.24811 -4.3303 0
M  V30 44131 N 3933.22 1.36705 -0.78418 0
M  V30 44132 C 3934.5 1.93609 -0.278372 0
M  V30 44133 C 3934.88 1.71663 1.22862 0
M  V30 44134 O 3934.23 1.07255 2.01764 0
M  V30 44135 C 3934.44 3.426 -0.665292 0
M  V30 44136 C 3935.79 4.19717 -0.642079 0
M  V30 44137 O 3936.81 3.51017 -0.605443 0
M  V30 44138 O 3935.67 5.4225 -0.680274 0
M  V30 44139 H 3932.76 0.824235 -0.0675748 0
M  V30 44140 H 3935.31 1.45918 -0.866371 0
M  V30 44141 H 3934.08 3.52208 -1.70485 0
M  V30 44142 H 3933.71 3.97567 -0.0508994 0
M  V30 44143 N 3934.7 0.535753 1.48214 0
M  V30 44144 C 3935.65 -0.237169 2.31388 0
M  V30 44145 C 3936.64 -0.92997 1.41591 0
M  V30 44146 O 3937.85 -0.853697 1.58468 0
M  V30 44147 H 3934.23 -0.0953532 0.74593 0
M  V30 44148 H 3936.2 0.483824 2.94452 0
M  V30 44149 C 3934.95 -1.26751 3.23774 0
M  V30 44150 H 3934.27 -0.743833 3.9282 0
M  V30 44151 H 3935.71 -1.77963 3.84844 0
M  V30 44152 C 3934.17 -2.30417 2.45783 0
M  V30 44153 O 3934.7 -3.3696 2.18679 0
M  V30 44154 N 3932.9 -2.03782 2.07175 0
M  V30 44155 H 3932.45 -1.17155 2.29418 0
M  V30 44156 H 3932.41 -2.73363 1.55305 0
M  V30 44157 N 3936.18 -1.5525 0.271158 0
M  V30 44158 C 3937.41 -2.04372 -0.353103 0
M  V30 44159 C 3937.83 -1.14838 -1.48976 0
M  V30 44160 O 3937.19 -0.14617 -1.8071 0
M  V30 44161 C 3937.24 -3.51261 -0.815363 0
M  V30 44162 O 3936.34 -3.64824 -1.92295 0
M  V30 44163 H 3935.68 -0.659907 -0.0736091 0
M  V30 44164 H 3938.21 -2.00566 0.404301 0
M  V30 44165 H 3938.22 -3.92549 -1.11217 0
M  V30 44166 H 3936.9 -4.15897 0.016281 0
M  V30 44167 H 3935.47 -3.35438 -1.62899 0
M  V30 44168 N 3937.66 0.00162173 -1.576 0
M  V30 44169 C 3938.88 0.701477 -1.95177 0
M  V30 44170 C 3939.31 1.66603 -0.87322 0
M  V30 44171 O 3938.67 1.80513 0.168786 0
M  V30 44172 C 3938.71 1.41098 -3.31849 0
M  V30 44173 O 3937.82 2.52533 -3.26038 0
M  V30 44174 H 3937.16 0.186707 -0.63721 0
M  V30 44175 H 3939.69 -0.0510853 -2.04536 0
M  V30 44176 H 3939.7 1.77477 -3.67377 0
M  V30 44177 H 3938.37 0.703748 -4.09903 0
M  V30 44178 H 3936.95 2.18494 -3.02183 0
M  V30 44179 N 3939.14 1.55194 0.274352 0
M  V30 44180 C 3940.07 1.90989 1.34333 0
M  V30 44181 C 3941.05 0.771608 1.51592 0
M  V30 44182 O 3942.23 1.02963 1.64658 0
M  V30 44183 C 3939.36 2.18062 2.70308 0
M  V30 44184 C 3938.32 3.33882 2.67781 0
M  V30 44185 C 3937.64 3.46432 4.07295 0
M  V30 44186 C 3938.94 4.7031 2.2717 0
M  V30 44187 H 3940.64 2.80526 1.04622 0
M  V30 44188 H 3938.18 1.34972 0.501843 0
M  V30 44189 H 3940.14 2.41691 3.45201 0
M  V30 44190 H 3938.86 1.25324 3.01598 0
M  V30 44191 H 3937.52 3.10219 1.95345 0
M  V30 44192 H 3937.17 2.51162 4.35806 0
M  V30 44193 H 3936.87 4.24302 4.06499 0
M  V30 44194 H 3938.39 3.72351 4.83929 0
M  V30 44195 H 3939.8 4.93492 2.91785 0
M  V30 44196 H 3938.2 5.51086 2.37538 0
M  V30 44197 H 3939.27 4.69223 1.22301 0
M  V30 44198 N 3940.61 -0.538802 1.48104 0
M  V30 44199 C 3941.86 -1.29254 1.55364 0
M  V30 44200 C 3942.18 -1.93692 0.225461 0
M  V30 44201 O 3941.45 -1.80881 -0.752248 0
M  V30 44202 H 3940.03 -0.480039 0.572339 0
M  V30 44203 H 3942.7 -0.627717 1.84515 0
M  V30 44204 H 3941.79 -2.07645 2.33002 0
M  V30 44205 N 3942.09 -1.36544 -0.786992 0
M  V30 44206 C 3943.02 -1.33752 -1.91396 0
M  V30 44207 C 3944 -0.208588 -1.68816 0
M  V30 44208 O 3945.19 -0.406607 -1.89896 0
M  V30 44209 C 3942.32 -1.12848 -3.28455 0
M  V30 44210 C 3941.27 -2.22591 -3.65564 0
M  V30 44211 C 3940.6 -1.86827 -5.00999 0
M  V30 44212 C 3941.9 -3.64691 -3.73896 0
M  V30 44213 H 3943.59 -2.28054 -1.93989 0
M  V30 44214 H 3941.14 -1.09778 -0.931918 0
M  V30 44215 H 3943.09 -1.09529 -4.06917 0
M  V30 44216 H 3941.82 -0.149975 -3.26255 0
M  V30 44217 H 3940.47 -2.2504 -2.89401 0
M  V30 44218 H 3940.12 -0.875448 -4.95323 0
M  V30 44219 H 3939.82 -2.60304 -5.26798 0
M  V30 44220 H 3941.35 -1.85068 -5.81878 0
M  V30 44221 H 3942.76 -3.64456 -4.42543 0
M  V30 44222 H 3941.16 -4.37093 -4.11181 0
M  V30 44223 H 3942.23 -3.99421 -2.74939 0
M  V30 44224 N 3943.57 1.01143 -1.20863 0
M  V30 44225 C 3944.81 1.76359 -1.0333 0
M  V30 44226 C 3945.17 1.87203 0.426506 0
M  V30 44227 O 3946.38 2.58917 0.722173 0
M  V30 44228 C 3944.65 3.14162 -1.70403 0
M  V30 44229 S 3946.21 4.05349 -1.6804 0
M  V30 44230 H 3943.02 0.60689 -0.370413 0
M  V30 44231 H 3945.63 1.21066 -1.53503 0
M  V30 44232 H 3944.33 3.03898 -2.75815 0
M  V30 44233 H 3943.86 3.74529 -1.20382 0
M  V30 44234 H 3945.88 4.90993 -0.716935 0
M  V30 44235 N 3945.05 1.01535 1.20534 0
M  V30 44236 C 3946.46 0.735717 1.71593 0
M  V30 44237 C 3946.81 -0.745841 1.81471 0
M  V30 44238 O 3945.94 -1.58213 1.4764 0
M  V30 44239 C 3946.53 1.32886 3.11652 0
M  V30 44240 C 3945.09 1.09812 3.60025 0
M  V30 44241 C 3944.24 1.43532 2.37263 0
M  V30 44242 H 3947.19 1.18497 1.05566 0
M  V30 44243 H 3947.21 0.718791 3.73649 0
M  V30 44244 H 3946.72 2.40715 3.0443 0
M  V30 44245 H 3944.82 0.0374417 3.72581 0
M  V30 44246 H 3944.93 1.7773 4.44915 0
M  V30 44247 H 3943.3 0.85431 2.39945 0
M  V30 44248 H 3944.08 2.52414 2.32684 0
M  V30 44249 N 3946.53 -1.36288 0.791419 0
M  V30 44250 C 3947.44 -2.3381 0.192403 0
M  V30 44251 C 3948.45 -1.61139 -0.656527 0
M  V30 44252 O 3949.63 -1.93111 -0.571844 0
M  V30 44253 C 3946.69 -3.40336 -0.661223 0
M  V30 44254 C 3945.75 -4.28803 0.206436 0
M  V30 44255 C 3944.99 -5.30242 -0.606543 0
M  V30 44256 O 3945.21 -5.39827 -1.84238 0
M  V30 44257 O 3944.14 -6.019 -0.00538536 0
M  V30 44258 H 3947.97 -2.86807 0.998774 0
M  V30 44259 H 3945.56 -1.38792 0.552914 0
M  V30 44260 H 3947.44 -4.05463 -1.14793 0
M  V30 44261 H 3946.11 -2.89635 -1.44545 0
M  V30 44262 H 3945.02 -3.66709 0.739941 0
M  V30 44263 H 3946.35 -4.82862 0.954227 0
M  V30 44264 N 3948.01 -0.543606 -1.47928 0
M  V30 44265 C 3949.25 -0.0145236 -2.02795 0
M  V30 44266 C 3949.58 1.32635 -1.4185 0
M  V30 44267 O 3948.86 1.85987 -0.569132 0
M  V30 44268 C 3949.14 0.0930337 -3.5998 0
M  V30 44269 C 3949 -1.27397 -4.31381 0
M  V30 44270 C 3950.31 0.813175 -4.32522 0
M  V30 44271 H 3947.43 -0.006752 -0.736969 0
M  V30 44272 H 3950.08 -0.703269 -1.76505 0
M  V30 44273 H 3948.23 0.679617 -3.82509 0
M  V30 44274 H 3949.9 -1.90271 -4.20231 0
M  V30 44275 H 3948.14 -1.85228 -3.92266 0
M  V30 44276 H 3948.81 -1.15157 -5.39854 0
M  V30 44277 H 3951.29 0.315261 -4.14904 0
M  V30 44278 H 3950.16 0.857361 -5.42163 0
M  V30 44279 H 3950.42 1.86642 -4.00771 0
M  V30 44280 N 3949.48 1.55104 -0.279387 0
M  V30 44281 C 3950.42 2.20097 0.639533 0
M  V30 44282 C 3951.43 1.18698 1.11421 0
M  V30 44283 O 3952.62 1.45404 1.03538 0
M  V30 44284 C 3949.72 2.81647 1.88489 0
M  V30 44285 C 3948.89 4.08776 1.55632 0
M  V30 44286 C 3947.95 4.54333 2.65458 0
M  V30 44287 O 3946.98 5.20013 2.31464 0
M  V30 44288 N 3948.18 4.24832 3.95599 0
M  V30 44289 H 3950.94 2.99584 0.0832522 0
M  V30 44290 H 3948.5 1.61587 -0.100666 0
M  V30 44291 H 3950.5 3.09067 2.61266 0
M  V30 44292 H 3949.07 2.06127 2.35012 0
M  V30 44293 H 3948.29 3.88598 0.662184 0
M  V30 44294 H 3949.57 4.91597 1.31187 0
M  V30 44295 H 3948.97 3.72169 4.26036 0
M  V30 44296 H 3947.53 4.57012 4.6474 0
M  V30 44297 N 3950.96 0.0067362 1.57599 0
M  V30 44298 C 3951.91 -1.00067 2.09975 0
M  V30 44299 C 3952.9 -1.35156 1.02123 0
M  V30 44300 O 3954.11 -1.33642 1.20582 0
M  V30 44301 H 3950.48 -0.340387 0.670553 0
M  V30 44302 H 3952.46 -0.533419 2.93594 0
M  V30 44303 C 3951.2 -2.28149 2.6238 0
M  V30 44304 H 3950.53 -2.02018 3.45006 0
M  V30 44305 H 3951.97 -2.96899 3.02699 0
M  V30 44306 C 3950.43 -2.99592 1.54098 0
M  V30 44307 O 3950.96 -3.90839 0.927791 0
M  V30 44308 N 3949.16 -2.61534 1.26681 0
M  V30 44309 H 3948.71 -1.87414 1.76731 0
M  V30 44310 H 3948.67 -3.09649 0.544518 0
M  V30 44311 N 3952.44 -1.55337 -0.266118 0
M  V30 44312 C 3953.4 -1.87907 -1.31239 0
M  V30 44313 C 3954.4 -0.754108 -1.42021 0
M  V30 44314 O 3955.59 -1.02224 -1.41053 0
M  V30 44315 C 3952.72 -2.09046 -2.69282 0
M  V30 44316 H 3953.92 -2.81442 -1.03587 0
M  V30 44317 H 3951.47 -1.47934 -0.504511 0
M  V30 44318 H 3952.21 -1.17915 -3.02104 0
M  V30 44319 H 3951.99 -2.90959 -2.62841 0
M  V30 44320 H 3953.48 -2.35494 -3.44866 0
M  V30 44321 N 3953.92 0.53094 -1.48387 0
M  V30 44322 C 3955.17 1.28428 -1.56047 0
M  V30 44323 C 3955.49 1.9357 -0.235729 0
M  V30 44324 O 3954.76 1.81278 0.742645 0
M  V30 44325 H 3953.34 0.476997 -0.574876 0
M  V30 44326 H 3956 0.617923 -1.84845 0
M  V30 44327 H 3955.09 2.06406 -2.341 0
M  V30 44328 N 3955.4 1.36959 0.779739 0
M  V30 44329 C 3956.36 1.31909 1.87437 0
M  V30 44330 C 3957.36 0.224767 1.59221 0
M  V30 44331 O 3958.55 0.480138 1.67452 0
M  V30 44332 C 3955.68 1.04721 3.24417 0
M  V30 44333 H 3956.87 2.29269 1.93329 0
M  V30 44334 H 3954.43 1.21872 0.978613 0
M  V30 44335 H 3955.16 0.0786012 3.24205 0
M  V30 44336 H 3954.95 1.83923 3.46287 0
M  V30 44337 H 3956.44 1.03817 4.04489 0
M  V30 44338 N 3956.87 -1.00501 1.21398 0
M  V30 44339 C 3957.78 -2.12722 0.989258 0
M  V30 44340 C 3958.8 -1.73901 -0.0586341 0
M  V30 44341 O 3959.98 -2.00971 0.131412 0
M  V30 44342 C 3957.04 -3.422 0.556791 0
M  V30 44343 C 3956.1 -3.95195 1.6769 0
M  V30 44344 C 3955.33 -5.18492 1.26497 0
M  V30 44345 O 3955.56 -5.70232 0.13857 0
M  V30 44346 O 3954.49 -5.64933 2.07688 0
M  V30 44347 H 3958.32 -2.34557 1.92917 0
M  V30 44348 H 3955.9 -1.111 0.998857 0
M  V30 44349 H 3957.78 -4.20142 0.325401 0
M  V30 44350 H 3956.46 -3.21754 -0.3544 0
M  V30 44351 H 3955.37 -3.1848 1.96269 0
M  V30 44352 H 3956.7 -4.2005 2.56551 0
M  V30 44353 N 3958.35 -1.02172 -1.19994 0
M  V30 44354 C 3959.58 -0.733241 -1.94006 0
M  V30 44355 C 3960 0.700579 -1.74567 0
M  V30 44356 O 3959.36 1.48274 -1.04328 0
M  V30 44357 C 3959.41 -1.08063 -3.44027 0
M  V30 44358 O 3958.51 -0.195208 -4.11938 0
M  V30 44359 H 3957.85 -0.271573 -0.605924 0
M  V30 44360 H 3960.38 -1.36648 -1.52278 0
M  V30 44361 H 3960.39 -1.0345 -3.94667 0
M  V30 44362 H 3959.07 -2.12526 -3.57499 0
M  V30 44363 H 3957.64 -0.299311 -3.71697 0
M  V30 44364 N 3959.83 1.35866 -0.798635 0
M  V30 44365 C 3961.08 1.99287 -0.375851 0
M  V30 44366 C 3961.41 1.63225 1.0522 0
M  V30 44367 O 3960.68 0.891607 1.7286 0
M  V30 44368 C 3960.97 3.55871 -0.55026 0
M  V30 44369 C 3960.82 4.01756 -2.02267 0
M  V30 44370 C 3962.14 4.4009 0.0290088 0
M  V30 44371 H 3959.26 0.723958 -0.138037 0
M  V30 44372 H 3961.9 1.61139 -1.00669 0
M  V30 44373 H 3960.05 3.88498 -0.0132422 0
M  V30 44374 H 3961.72 3.79575 -2.62145 0
M  V30 44375 H 3959.96 3.52957 -2.52197 0
M  V30 44376 H 3960.64 5.10674 -2.09562 0
M  V30 44377 H 3963.11 4.13877 -0.429516 0
M  V30 44378 H 3961.99 5.48762 -0.12299 0
M  V30 44379 H 3962.25 4.27626 1.12198 0
M  V30 44380 N 3961.31 0.551443 1.47638 0
M  V30 44381 C 3962.58 -0.0401639 1.95559 0
M  V30 44382 C 3962.96 -1.49141 1.49399 0
M  V30 44383 O 3962.31 -2.16519 0.730186 0
M  V30 44384 C 3962.52 0.099329 3.48859 0
M  V30 44385 C 3963.87 -0.0489771 4.24572 0
M  V30 44386 O 3964.89 0.0265896 3.5619 0
M  V30 44387 O 3963.75 -0.210542 5.46094 0
M  V30 44388 H 3960.85 -0.0673549 0.824253 0
M  V30 44389 H 3963.39 0.617559 1.58064 0
M  V30 44390 H 3962.17 1.10942 3.75243 0
M  V30 44391 H 3961.79 -0.59627 3.93104 0
M  V30 44392 N 3962.79 -1.54953 0.287609 0
M  V30 44393 C 3964.01 -2.04735 -0.331406 0
M  V30 44394 C 3964.44 -1.16412 -1.4775 0
M  V30 44395 O 3963.79 -0.165329 -1.80545 0
M  V30 44396 C 3963.84 -3.52106 -0.778061 0
M  V30 44397 O 3962.95 -3.66843 -1.88415 0
M  V30 44398 H 3962.29 -0.660651 -0.0666057 0
M  V30 44399 H 3964.82 -2.00126 0.425551 0
M  V30 44400 H 3964.83 -3.93707 -1.07048 0
M  V30 44401 H 3963.5 -4.15856 0.0603915 0
M  V30 44402 H 3962.08 -3.37147 -1.59332 0
M  V30 44403 N 3964.26 -0.0150939 -1.57593 0
M  V30 44404 C 3965.2 0.999876 -2.0624 0
M  V30 44405 C 3966.21 1.29762 -0.983135 0
M  V30 44406 O 3967.4 1.26474 -1.25963 0
M  V30 44407 C 3964.5 2.33088 -2.46015 0
M  V30 44408 C 3963.67 2.22034 -3.76855 0
M  V30 44409 C 3962.73 3.37949 -4.03332 0
M  V30 44410 O 3961.76 3.15461 -4.73786 0
M  V30 44411 N 3962.96 4.61291 -3.52407 0
M  V30 44412 H 3965.72 0.5849 -2.93937 0
M  V30 44413 H 3963.28 0.171973 -1.60984 0
M  V30 44414 H 3965.28 3.09434 -2.60831 0
M  V30 44415 H 3963.85 2.66274 -1.63758 0
M  V30 44416 H 3963.07 1.30502 -3.71971 0
M  V30 44417 H 3964.35 2.11837 -4.62604 0
M  V30 44418 H 3963.75 4.82458 -2.95382 0
M  V30 44419 H 3962.31 5.34853 -3.72526 0
M  V30 44420 N 3965.74 1.55476 0.257876 0
M  V30 44421 C 3967.15 1.67346 0.827791 0
M  V30 44422 C 3967.5 0.610527 1.86459 0
M  V30 44423 O 3966.63 -0.245237 2.15006 0
M  V30 44424 C 3967.22 3.03377 1.50824 0
M  V30 44425 C 3965.78 3.17223 2.02599 0
M  V30 44426 C 3964.93 2.63191 0.873257 0
M  V30 44427 H 3967.88 1.58664 0.0339055 0
M  V30 44428 H 3967.9 2.9721 2.37585 0
M  V30 44429 H 3967.41 3.80717 0.753402 0
M  V30 44430 H 3965.52 2.44685 2.80998 0
M  V30 44431 H 3965.63 4.23989 2.23092 0
M  V30 44432 H 3963.99 2.20733 1.27078 0
M  V30 44433 H 3964.78 3.43047 0.131679 0
M  V30 44434 N 3967.22 -0.523064 1.48667 0
M  V30 44435 C 3968.47 -1.27599 1.56726 0
M  V30 44436 C 3968.79 -1.93442 0.245992 0
M  V30 44437 O 3968.06 -1.81669 -0.733021 0
M  V30 44438 H 3966.64 -0.473942 0.577398 0
M  V30 44439 H 3969.3 -0.608111 1.8517 0
M  V30 44440 H 3968.4 -2.05162 2.35191 0
M  V30 44441 N 3968.7 -1.37371 -0.772465 0
M  V30 44442 C 3970.11 -1.291 -1.3487 0
M  V30 44443 C 3970.46 0.0617088 -1.96103 0
M  V30 44444 O 3969.59 0.963528 -1.93766 0
M  V30 44445 C 3970.18 -2.33785 -2.45214 0
M  V30 44446 C 3968.74 -2.29151 -2.98608 0
M  V30 44447 C 3967.89 -2.17654 -1.7182 0
M  V30 44448 H 3970.84 -1.48003 -0.572779 0
M  V30 44449 H 3970.86 -1.9841 -3.24675 0
M  V30 44450 H 3970.37 -3.32226 -2.00618 0
M  V30 44451 H 3968.47 -1.34232 -3.47581 0
M  V30 44452 H 3968.58 -3.22535 -3.54271 0
M  V30 44453 H 3966.95 -1.64188 -1.94716 0
M  V30 44454 H 3967.73 -3.18008 -1.29328 0
M  V30 44455 N 3970.18 0.998553 -1.21929 0
M  V30 44456 C 3971.42 1.7408 -1.05202 0
M  V30 44457 C 3971.78 1.87995 0.409354 0
M  V30 44458 O 3971.07 1.40791 1.29956 0
M  V30 44459 C 3971.26 3.14908 -1.69021 0
M  V30 44460 C 3971.09 3.14726 -3.21213 0
M  V30 44461 C 3969.86 3.20939 -3.9029 0
M  V30 44462 C 3972.06 2.99327 -4.1822 0
M  V30 44463 N 3970.04 3.10451 -5.29616 0
M  V30 44464 C 3971.41 2.96807 -5.4434 0
M  V30 44465 C 3973.47 2.83677 -4.09184 0
M  V30 44466 C 3972.17 2.80239 -6.62464 0
M  V30 44467 C 3974.2 2.68468 -5.26952 0
M  V30 44468 C 3973.56 2.6663 -6.51988 0
M  V30 44469 H 3969.66 0.64691 -0.439353 0
M  V30 44470 H 3972.24 1.18634 -1.54383 0
M  V30 44471 H 3970.41 3.6861 -1.22399 0
M  V30 44472 H 3972.15 3.77663 -1.45439 0
M  V30 44473 H 3968.9 3.28394 -3.41254 0
M  V30 44474 H 3969.33 3.08532 -6.02608 0
M  V30 44475 H 3973.97 2.839 -3.13306 0
M  V30 44476 H 3971.69 2.78763 -7.58496 0
M  V30 44477 H 3975.27 2.57349 -5.21788 0
M  V30 44478 H 3974.15 2.55003 -7.41582 0
M  V30 44479 N 3971.65 1.02807 1.1945 0
M  V30 44480 C 3972.6 0.578771 2.20532 0
M  V30 44481 C 3973.59 -0.372053 1.56539 0
M  V30 44482 O 3974.78 -0.193154 1.75943 0
M  V30 44483 C 3971.91 -0.0698379 3.43229 0
M  V30 44484 C 3971 0.903379 4.14367 0
M  V30 44485 N 3971.39 2.06548 4.61705 0
M  V30 44486 C 3969.68 0.72665 4.40041 0
M  V30 44487 C 3970.39 2.67923 5.16326 0
M  V30 44488 N 3969.36 1.95893 5.07077 0
M  V30 44489 H 3973.16 1.46455 2.5481 0
M  V30 44490 H 3970.68 0.894951 1.35515 0
M  V30 44491 H 3972.67 -0.409338 4.14886 0
M  V30 44492 H 3971.33 -0.951313 3.10451 0
M  V30 44493 H 3972.35 2.44493 4.56556 0
M  V30 44494 H 3969.02 -0.105802 4.17366 0
M  V30 44495 H 3970.41 3.66336 5.63248 0
M  V30 44496 N 3973.13 -1.35441 0.805829 0
M  V30 44497 C 3974.1 -2.28129 0.221318 0
M  V30 44498 C 3975.1 -1.4955 -0.590893 0
M  V30 44499 O 3976.29 -1.69319 -0.409488 0
M  V30 44500 C 3973.42 -3.33811 -0.691585 0
M  V30 44501 H 3974.61 -2.81334 1.0388 0
M  V30 44502 H 3972.16 -1.45283 0.576426 0
M  V30 44503 H 3972.9 -2.85791 -1.53278 0
M  V30 44504 H 3972.68 -3.91943 -0.110903 0
M  V30 44505 H 3974.17 -4.02991 -1.09489 0
M  V30 44506 N 3974.61 -0.559265 -1.47343 0
M  V30 44507 C 3975.84 -0.0389228 -2.07363 0
M  V30 44508 C 3976.26 1.24628 -1.40889 0
M  V30 44509 O 3975.62 1.74704 -0.48457 0
M  V30 44510 C 3975.67 0.137831 -3.60336 0
M  V30 44511 O 3974.77 1.19993 -3.94557 0
M  V30 44512 H 3974.11 -0.052248 -0.661941 0
M  V30 44513 H 3976.64 -0.775534 -1.89332 0
M  V30 44514 H 3976.65 0.35139 -4.06484 0
M  V30 44515 H 3975.33 -0.800848 -4.08117 0
M  V30 44516 H 3973.9 0.966694 -3.60152 0
M  V30 44517 N 3976.09 1.54799 -0.295822 0
M  V30 44518 C 3977.31 2.04908 0.320544 0
M  V30 44519 C 3977.74 1.17193 1.4713 0
M  V30 44520 O 3977.1 0.174901 1.80454 0
M  V30 44521 C 3977.14 3.52514 0.759377 0
M  V30 44522 O 3976.25 3.67837 1.86467 0
M  V30 44523 H 3975.59 0.660995 0.0631012 0
M  V30 44524 H 3978.12 1.99897 -0.436158 0
M  V30 44525 H 3978.13 3.94269 1.04958 0
M  V30 44526 H 3976.8 4.15818 -0.0824445 0
M  V30 44527 H 3975.38 3.37987 1.57541 0
M  V30 44528 N 3977.57 0.0234513 1.57583 0
M  V30 44529 C 3978.82 -0.655119 1.91187 0
M  V30 44530 C 3979.14 -1.72993 0.899911 0
M  V30 44531 O 3978.41 -1.9581 -0.0593934 0
M  V30 44532 H 3976.99 -0.244969 0.705691 0
M  V30 44533 H 3979.65 0.0699167 1.94775 0
M  V30 44534 H 3978.74 -1.11147 2.91638 0
M  V30 44535 N 3979.05 -1.5561 -0.249627 0
M  V30 44536 C 3979.99 -1.90087 -1.30902 0
M  V30 44537 C 3980.96 -0.75481 -1.47959 0
M  V30 44538 O 3982.15 -1.00822 -1.61986 0
M  V30 44539 C 3979.29 -2.19864 -2.65996 0
M  V30 44540 C 3978.4 -3.47262 -2.5697 0
M  V30 44541 C 3977.54 -3.66622 -3.84398 0
M  V30 44542 C 3976.57 -4.8763 -3.69978 0
M  V30 44543 N 3975.71 -5.03525 -4.89292 0
M  V30 44544 H 3980.55 -2.80434 -1.008 0
M  V30 44545 H 3978.09 -1.38823 -0.486484 0
M  V30 44546 H 3980.05 -2.35133 -3.44628 0
M  V30 44547 H 3978.68 -1.32725 -2.94252 0
M  V30 44548 H 3977.73 -3.4034 -1.69921 0
M  V30 44549 H 3979.04 -4.36038 -2.42223 0
M  V30 44550 H 3978.19 -3.81835 -4.71473 0
M  V30 44551 H 3976.93 -2.76073 -4.02038 0
M  V30 44552 H 3975.94 -4.72396 -2.81286 0
M  V30 44553 H 3977.16 -5.79636 -3.53835 0
M  V30 44554 H 3975.11 -4.15913 -5.07299 0
M  V30 44555 H 3975.03 -5.86386 -4.77166 0
M  V30 44556 H 3976.29 -5.23147 -5.77874 0
M  V30 44557 N 3980.52 0.515172 -1.48942 0
M  V30 44558 C 3981.8 1.27648 -1.48207 0
M  V30 44559 C 3982.18 2.10132 -0.201903 0
M  V30 44560 O 3981.53 2.1343 0.816078 0
M  V30 44561 C 3981.74 2.14531 -2.75277 0
M  V30 44562 C 3983.09 2.74186 -3.24202 0
M  V30 44563 O 3984.11 2.24808 -2.76297 0
M  V30 44564 O 3982.97 3.6404 -4.076 0
M  V30 44565 H 3980.06 0.576894 -0.592556 0
M  V30 44566 H 3982.61 0.530607 -1.61191 0
M  V30 44567 H 3981.38 1.53462 -3.59951 0
M  V30 44568 H 3981 2.96337 -2.65085 0
M  V30 44569 N 3982 1.37779 0.765169 0
M  V30 44570 C 3983.25 1.33547 1.5262 0
M  V30 44571 C 3983.58 -0.0779579 1.94043 0
M  V30 44572 O 3982.86 -1.0367 1.64568 0
M  V30 44573 C 3983.14 2.28061 2.78675 0
M  V30 44574 C 3982.99 3.78213 2.43465 0
M  V30 44575 C 3984.31 2.20906 3.80642 0
M  V30 44576 H 3981.43 0.486435 0.553669 0
M  V30 44577 H 3984.07 1.68533 0.877297 0
M  V30 44578 H 3982.22 1.98356 3.34047 0
M  V30 44579 H 3983.89 4.18543 1.93957 0
M  V30 44580 H 3982.14 3.9646 1.76074 0
M  V30 44581 H 3982.81 4.39789 3.33601 0
M  V30 44582 H 3985.28 2.47105 3.34781 0
M  V30 44583 H 3984.16 2.89167 4.66555 0
M  V30 44584 H 3984.42 1.20411 4.25386 0
M  V30 44585 N 3983.48 -0.992073 1.22457 0
M  V30 44586 C 3984.89 -1.54626 1.04632 0
M  V30 44587 C 3985.24 -1.92285 -0.389977 0
M  V30 44588 O 3984.37 -1.74845 -1.27508 0
M  V30 44589 C 3984.96 -2.80974 1.89311 0
M  V30 44590 C 3983.52 -3.32833 1.75781 0
M  V30 44591 C 3982.67 -2.05914 1.85728 0
M  V30 44592 H 3985.62 -0.813065 1.3629 0
M  V30 44593 H 3985.64 -3.53371 1.41101 0
M  V30 44594 H 3985.15 -2.53534 2.93841 0
M  V30 44595 H 3983.25 -3.6518 0.739886 0
M  V30 44596 H 3983.37 -4.0338 2.58498 0
M  V30 44597 H 3981.73 -2.19512 1.29177 0
M  V30 44598 H 3982.51 -1.80869 2.9179 0
M  V30 44599 N 3984.96 -1.03439 -1.18904 0
M  V30 44600 C 3985.87 -0.630179 -2.25978 0
M  V30 44601 C 3986.88 0.340638 -1.70633 0
M  V30 44602 O 3988.06 0.197139 -2.00433 0
M  V30 44603 C 3985.12 0.00707701 -3.46699 0
M  V30 44604 C 3984.19 -1.01194 -4.17203 0
M  V30 44605 C 3983.42 -0.405002 -5.32161 0
M  V30 44606 O 3983.64 0.790538 -5.64895 0
M  V30 44607 O 3982.58 -1.13059 -5.91186 0
M  V30 44608 H 3986.4 -1.52208 -2.62805 0
M  V30 44609 H 3983.99 -0.8049 -1.25864 0
M  V30 44610 H 3985.87 0.362131 -4.19841 0
M  V30 44611 H 3984.54 0.872894 -3.11709 0
M  V30 44612 H 3983.45 -1.41868 -3.46156 0
M  V30 44613 H 3984.78 -1.84831 -4.56178 0
M  V30 44614 N 3986.44 1.35011 -0.813001 0
M  V30 44615 C 3987.68 2.00406 -0.402103 0
M  V30 44616 C 3988.04 1.63081 1.01334 0
M  V30 44617 O 3989.24 2.21244 1.52659 0
M  V30 44618 C 3987.51 3.52545 -0.587091 0
M  V30 44619 S 3989.07 4.37983 -0.267568 0
M  V30 44620 H 3985.89 0.694476 -0.152395 0
M  V30 44621 H 3988.49 1.64484 -1.05665 0
M  V30 44622 H 3987.19 3.77197 -1.61711 0
M  V30 44623 H 3986.73 3.93313 0.0825486 0
M  V30 44624 H 3988.74 4.87551 0.922422 0
M  V30 44625 N 3987.91 0.567071 1.47044 0
M  V30 44626 C 3988.86 -0.175075 2.30135 0
M  V30 44627 C 3989.83 -0.899024 1.39667 0
M  V30 44628 O 3991.02 -0.892779 1.68624 0
M  V30 44629 C 3988.16 -1.19283 3.2383 0
M  V30 44630 C 3987.27 -0.473936 4.29392 0
M  V30 44631 C 3986.4 -1.47784 5.10229 0
M  V30 44632 C 3985.44 -0.744477 6.07556 0
M  V30 44633 N 3984.58 -1.69569 6.81315 0
M  V30 44634 H 3989.42 0.53958 2.93074 0
M  V30 44635 H 3986.96 0.277915 1.44451 0
M  V30 44636 H 3988.91 -1.7956 3.76582 0
M  V30 44637 H 3987.54 -1.87539 2.62733 0
M  V30 44638 H 3986.6 0.243561 3.79619 0
M  V30 44639 H 3987.91 0.100109 4.987 0
M  V30 44640 H 3987.06 -2.15387 5.6718 0
M  V30 44641 H 3985.8 -2.08581 4.40846 0
M  V30 44642 H 3984.81 -0.0545865 5.49773 0
M  V30 44643 H 3986.03 -0.142116 6.78951 0
M  V30 44644 H 3983.98 -2.29205 6.14655 0
M  V30 44645 H 3983.89 -1.17405 7.46828 0
M  V30 44646 H 3985.16 -2.36255 7.42835 0
M  V30 44647 N 3989.39 -1.5464 0.304027 0
M  V30 44648 C 3990.62 -2.04611 -0.30688 0
M  V30 44649 C 3991.03 -1.18117 -1.47288 0
M  V30 44650 O 3990.39 -0.207462 -1.81317 0
M  V30 44651 C 3990.44 -3.53416 -0.760201 0
M  V30 44652 O 3990.16 -4.36623 0.359397 0
M  V30 44653 C 3991.66 -4.19399 -1.43595 0
M  V30 44654 H 3988.88 -0.667723 -0.0662353 0
M  V30 44655 H 3991.43 -1.9961 0.444539 0
M  V30 44656 H 3989.58 -3.58769 -1.46164 0
M  V30 44657 H 3990 -5.245 0.00591495 0
M  V30 44658 H 3991.47 -5.25032 -1.70427 0
M  V30 44659 H 3991.95 -3.69319 -2.37698 0
M  V30 44660 H 3992.55 -4.18131 -0.77761 0
M  V30 44661 N 3990.87 -0.0318079 -1.57568 0
M  V30 44662 C 3991.8 0.977945 -2.07289 0
M  V30 44663 C 3992.81 1.28712 -0.996842 0
M  V30 44664 O 3994 1.25131 -1.27297 0
M  V30 44665 C 3991.1 2.30465 -2.48473 0
M  V30 44666 C 3990.28 2.18024 -3.79189 0
M  V30 44667 C 3989.34 3.33652 -4.06894 0
M  V30 44668 O 3988.36 3.10418 -4.77105 0
M  V30 44669 N 3989.56 4.57528 -3.5728 0
M  V30 44670 H 3992.33 0.553691 -2.94541 0
M  V30 44671 H 3989.89 0.154889 -1.61157 0
M  V30 44672 H 3991.88 3.0665 -2.64098 0
M  V30 44673 H 3990.45 2.64523 -1.66573 0
M  V30 44674 H 3989.67 1.2655 -3.73335 0
M  V30 44675 H 3990.96 2.06918 -4.64825 0
M  V30 44676 H 3990.36 4.79298 -3.00483 0
M  V30 44677 H 3988.91 5.30872 -3.78178 0
M  V30 44678 O 3992.39 1.61127 0.109767 0
M  V30 44679 H 3993.08 1.79006 0.740042 0
M  V30 END ATOM
M  V30 BEGIN BOND
M  V30 END BOND
M  V30 END CTAB
M  END
$$$$
