drugbank_target|Q02383 Semenogelin-2 (DB14533; DB14548)
 OpenBabel12092121223D

  0  0  0     0  0            999 V3000
M  V30 BEGIN CTAB
M  V30 COUNTS 9046 9126 0 0 0
M  V30 BEGIN ATOM
M  V30 1 H -0.908 1.98254 -0.117106 0
M  V30 2 N 0 1.576 0 0
M  V30 3 C 0.933 2.03868 1.02534 0
M  V30 4 C 1.911 0.928543 1.3348 0
M  V30 5 O 3.095 1.19667 1.45644 0
M  V30 6 C 0.222 2.43627 2.35294 0
M  V30 7 C -0.732 3.65373 2.2001 0
M  V30 8 S 0.101 5.13292 1.52614 0
M  V30 9 C 1.257 5.56322 2.86805 0
M  V30 10 H 1.49 2.90518 0.631377 0
M  V30 11 H -0.977 1.52953 0.210867 0
M  V30 12 H 0.981 2.67203 3.11629 0
M  V30 13 H -0.358 1.57376 2.7183 0
M  V30 14 H -1.165 3.90944 3.18086 0
M  V30 15 H -1.563 3.418 1.51819 0
M  V30 16 H 0.729 5.58782 3.83104 0
M  V30 17 H 1.672 6.56266 2.65933 0
M  V30 18 H 2.08 4.83886 2.90714 0
M  V30 19 N 1.4781 -0.272755 1.55222 0
M  V30 20 C 2.4251 -1.33716 1.88119 0
M  V30 21 C 3.3951 -1.49066 0.73271 0
M  V30 22 O 4.5801 -1.63469 0.984002 0
M  V30 23 C 1.7201 -2.69238 2.15882 0
M  V30 24 C 0.8331 -2.62108 3.43399 0
M  V30 25 C -0.0319 -3.89811 3.60861 0
M  V30 26 C -0.9929 -3.77193 4.8207 0
M  V30 27 N -1.8559 -4.9673 4.96189 0
M  V30 28 H 2.9841 -1.04962 2.78903 0
M  V30 29 H 0.5211 -0.507088 1.38083 0
M  V30 30 H 2.4791 -3.48089 2.29978 0
M  V30 31 H 1.1091 -2.96194 1.28331 0
M  V30 32 H 0.1611 -1.74967 3.37773 0
M  V30 33 H 1.4731 -2.48685 4.32386 0
M  V30 34 H 0.6271 -4.77103 3.74777 0
M  V30 35 H -0.6339 -4.06102 2.7006 0
M  V30 36 H -1.6289 -2.88284 4.68159 0
M  V30 37 H -0.4039 -3.62421 5.74307 0
M  V30 38 H -2.4579 -5.13431 4.08319 0
M  V30 39 H -2.5409 -4.85839 5.79221 0
M  V30 40 H -1.2729 -5.85594 5.1449 0
M  V30 41 N 2.9562 -1.48159 -0.537278 0
M  V30 42 C 4.1812 -1.59707 -1.32319 0
M  V30 43 C 4.6062 -0.254859 -1.86365 0
M  V30 44 O 3.9642 0.772378 -1.64024 0
M  V30 45 C 4.0122 -2.6412 -2.45505 0
M  V30 46 O 3.1162 -2.20774 -3.48328 0
M  V30 47 H 2.4572 -0.535791 -0.392204 0
M  V30 48 H 4.9872 -1.94092 -0.647268 0
M  V30 49 H 4.9972 -2.85166 -2.91795 0
M  V30 50 H 3.6722 -3.61567 -2.05528 0
M  V30 51 H 2.2492 -2.09911 -3.08207 0
M  V30 52 N 4.4343 0.785586 -1.36625 0
M  V30 53 C 5.6833 1.53883 -1.30396 0
M  V30 54 C 5.9963 1.95271 0.113452 0
M  V30 55 O 7.2023 2.69858 0.298142 0
M  V30 56 C 5.6583 2.77808 -2.28802 0
M  V30 57 C 5.2663 2.43574 -3.75999 0
M  V30 58 C 7.0103 3.55783 -2.31558 0
M  V30 59 C 4.9173 3.63919 -4.66173 0
M  V30 60 H 3.8473 0.577678 -0.484566 0
M  V30 61 H 6.4983 0.861705 -1.62009 0
M  V30 62 H 4.8803 3.47339 -1.90188 0
M  V30 63 H 6.0543 1.81916 -4.23371 0
M  V30 64 H 4.3693 1.78803 -3.76056 0
M  V30 65 H 6.9663 4.45205 -2.96137 0
M  V30 66 H 7.3093 3.94644 -1.3252 0
M  V30 67 H 7.8423 2.93235 -2.68809 0
M  V30 68 H 4.5813 3.3015 -5.66287 0
M  V30 69 H 4.1013 4.2473 -4.23515 0
M  V30 70 H 5.7803 4.30901 -4.82632 0
M  V30 71 N 5.9124 1.20967 1.01018 0
M  V30 72 C 7.1614 1.01796 1.74128 0
M  V30 73 C 7.4744 -0.449691 1.90361 0
M  V30 74 O 8.6804 -0.76068 2.60626 0
M  V30 75 C 7.1364 1.7727 3.13215 0
M  V30 76 C 6.7444 3.28171 3.04972 0
M  V30 77 C 8.4884 1.66489 3.90489 0
M  V30 78 C 6.3954 3.96156 4.39107 0
M  V30 79 H 5.3254 0.377276 0.652824 0
M  V30 80 H 7.9764 1.44651 1.12909 0
M  V30 81 H 6.3584 1.27205 3.75013 0
M  V30 82 H 7.5324 3.85499 2.52443 0
M  V30 83 H 5.8474 3.39437 2.41188 0
M  V30 84 H 8.4444 2.14617 4.89738 0
M  V30 85 H 8.7874 0.6222 4.11624 0
M  V30 86 H 9.3204 2.14003 3.35332 0
M  V30 87 H 6.0594 5.00604 4.23174 0
M  V30 88 H 5.5794 3.43617 4.91617 0
M  V30 89 H 7.2584 4.00774 5.07926 0
M  V30 90 N 7.3905 -1.2043 1.01659 0
M  V30 91 C 8.3205 -2.25466 0.607226 0
M  V30 92 C 9.3015 -1.65853 -0.377716 0
M  V30 93 O 10.4865 -1.92409 -0.263149 0
M  V30 94 C 7.6165 -3.47256 -0.0552949 0
M  V30 95 C 6.5705 -4.19462 0.850632 0
M  V30 96 C 5.8965 -5.34673 0.0538859 0
M  V30 97 C 7.1965 -4.75603 2.15868 0
M  V30 98 H 8.8905 -2.59962 1.48526 0
M  V30 99 H 6.4365 -1.2496 0.715605 0
M  V30 100 H 8.3895 -4.19917 -0.353233 0
M  V30 101 H 7.1135 -3.11924 -0.968045 0
M  V30 102 H 5.7725 -3.48667 1.13257 0
M  V30 103 H 5.4205 -4.95585 -0.860514 0
M  V30 104 H 5.1205 -5.83913 0.657192 0
M  V30 105 H 6.6445 -6.10138 -0.237598 0
M  V30 106 H 8.0585 -5.40083 1.92311 0
M  V30 107 H 6.4555 -5.3528 2.71284 0
M  V30 108 H 7.5255 -3.94346 2.82169 0
M  V30 109 N 8.8686 -0.792821 -1.36206 0
M  V30 110 C 10.1156 -0.366786 -1.99151 0
M  V30 111 C 10.4436 1.06243 -1.62919 0
M  V30 112 O 9.6986 1.74927 -0.877442 0
M  V30 113 C 9.9976 -0.481501 -3.54142 0
M  V30 114 C 9.6636 -1.87202 -4.10203 0
M  V30 115 C 8.3256 -2.25248 -4.25226 0
M  V30 116 C 10.6776 -2.78237 -4.40719 0
M  V30 117 C 8.0056 -3.53723 -4.68078 0
M  V30 118 C 10.3576 -4.06144 -4.85005 0
M  V30 119 C 9.0216 -4.44207 -4.98234 0
M  V30 120 H 8.2916 -0.134217 -0.728743 0
M  V30 121 H 10.9386 -1.01094 -1.62641 0
M  V30 122 H 9.2436 0.246146 -3.91026 0
M  V30 123 H 10.9406 -0.132844 -4.0078 0
M  V30 124 H 7.5306 -1.56639 -3.98951 0
M  V30 125 H 11.7146 -2.50097 -4.28679 0
M  V30 126 H 6.9706 -3.8308 -4.76508 0
M  V30 127 H 11.1446 -4.76796 -5.07581 0
M  V30 128 H 8.7716 -5.43814 -5.31197 0
M  V30 129 N 10.3467 1.47872 -0.545128 0
M  V30 130 C 11.5927 2.02793 -0.0166104 0
M  V30 131 C 11.9257 1.41987 1.32489 0
M  V30 132 O 11.2007 0.571045 1.85928 0
M  V30 133 C 11.4837 3.59989 0.0893294 0
M  V30 134 C 11.3367 4.3125 -1.27841 0
M  V30 135 C 12.6557 4.32606 0.808724 0
M  V30 136 H 9.7747 0.736962 -0.00751035 0
M  V30 137 H 12.4167 1.76433 -0.705085 0
M  V30 138 H 10.5667 3.82579 0.675681 0
M  V30 139 H 12.2387 4.20035 -1.90704 0
M  V30 140 H 10.4817 3.92076 -1.85632 0
M  V30 141 H 11.1527 5.39736 -1.15713 0
M  V30 142 H 13.6287 4.14936 0.310992 0
M  V30 143 H 12.5047 5.42251 0.851782 0
M  V30 144 H 12.7657 4.00963 1.86229 0
M  V30 145 N 11.8248 0.280983 1.55075 0
M  V30 146 C 12.7548 -0.597469 2.25727 0
M  V30 147 C 13.7358 -1.15417 1.24952 0
M  V30 148 O 14.9208 -1.18722 1.53684 0
M  V30 149 C 12.0508 -1.7789 2.98283 0
M  V30 150 C 11.0048 -1.35347 4.06036 0
M  V30 151 C 10.3308 -2.61846 4.66198 0
M  V30 152 C 11.6308 -0.499354 5.19907 0
M  V30 153 H 13.3248 -0.00824265 2.99399 0
M  V30 154 H 10.8708 -0.0025244 1.44 0
M  V30 155 H 12.8238 -2.39937 3.46422 0
M  V30 156 H 11.5478 -2.39405 2.22155 0
M  V30 157 H 10.2068 -0.756156 3.58717 0
M  V30 158 H 9.8548 -3.21632 3.86732 0
M  V30 159 H 9.5548 -2.3409 5.38958 0
M  V30 160 H 11.0788 -3.24732 5.1709 0
M  V30 161 H 12.4928 -1.02498 5.64063 0
M  V30 162 H 10.8898 -0.316424 5.99265 0
M  V30 163 H 11.9598 0.480459 4.82514 0
M  V30 164 N 13.3029 -1.57598 0.00835791 0
M  V30 165 C 14.5279 -1.95617 -0.689103 0
M  V30 166 C 14.9529 -0.883753 -1.66046 0
M  V30 167 O 14.3109 0.157352 -1.80616 0
M  V30 168 C 14.3589 -3.32736 -1.38994 0
M  V30 169 O 13.4629 -3.27631 -2.50463 0
M  V30 170 H 12.8039 -0.638379 -0.182668 0
M  V30 171 H 15.3339 -2.045 0.064036 0
M  V30 172 H 15.3439 -3.68494 -1.75147 0
M  V30 173 H 14.0189 -4.1034 -0.677778 0
M  V30 174 H 12.5959 -3.03561 -2.16576 0
M  V30 175 N 14.781 0.264519 -1.55364 0
M  V30 176 C 15.711 1.33121 -1.91836 0
M  V30 177 C 16.692 1.51101 -0.781192 0
M  V30 178 O 17.877 1.64003 -1.04003 0
M  V30 179 C 15.007 2.68921 -2.19769 0
M  V30 180 C 13.961 2.65661 -3.35571 0
M  V30 181 C 13.287 4.05093 -3.49004 0
M  V30 182 C 14.587 2.24187 -4.71739 0
M  V30 183 H 16.281 1.02844 -2.81182 0
M  V30 184 H 13.827 0.493286 -1.35287 0
M  V30 185 H 15.78 3.43663 -2.43872 0
M  V30 186 H 14.504 3.00799 -1.27231 0
M  V30 187 H 13.163 1.93377 -3.1145 0
M  V30 188 H 12.811 4.34206 -2.53917 0
M  V30 189 H 12.511 4.03804 -4.26868 0
M  V30 190 H 14.035 4.81561 -3.75408 0
M  V30 191 H 15.449 2.88654 -4.9533 0
M  V30 192 H 13.846 2.34044 -5.52579 0
M  V30 193 H 14.916 1.19327 -4.69988 0
M  V30 194 N 16.2591 1.48442 0.529413 0
M  V30 195 C 17.1891 1.65902 1.64313 0
M  V30 196 C 18.1701 0.507897 1.6234 0
M  V30 197 O 19.3551 0.740503 1.79528 0
M  V30 198 C 16.4851 1.69911 3.02898 0
M  V30 199 C 15.4391 2.8453 3.19729 0
M  V30 200 C 14.7651 2.73629 4.59381 0
M  V30 201 C 16.0651 4.25821 3.02447 0
M  V30 202 H 17.7591 2.5914 1.49955 0
M  V30 203 H 15.3051 1.24709 0.719982 0
M  V30 204 H 17.2581 1.80715 3.80684 0
M  V30 205 H 15.9821 0.732524 3.18279 0
M  V30 206 H 14.6411 2.73283 2.44361 0
M  V30 207 H 14.2891 1.74938 4.71599 0
M  V30 208 H 13.9891 3.50541 4.71588 0
M  V30 209 H 15.5131 2.86401 5.39265 0
M  V30 210 H 16.9271 4.37898 3.70024 0
M  V30 211 H 15.3241 5.03735 3.26146 0
M  V30 212 H 16.3941 4.42244 1.98867 0
M  V30 213 N 17.7372 -0.778329 1.37039 0
M  V30 214 C 18.6672 -1.90546 1.34962 0
M  V30 215 C 19.6482 -1.68681 0.219274 0
M  V30 216 O 20.8332 -1.89634 0.418624 0
M  V30 217 C 17.9632 -3.27734 1.14925 0
M  V30 218 C 16.9172 -3.64147 2.24902 0
M  V30 219 C 16.2432 -4.99806 1.89996 0
M  V30 220 C 17.5432 -3.71579 3.67051 0
M  V30 221 H 19.2372 -1.92541 2.29277 0
M  V30 222 H 16.7832 -0.924948 1.10366 0
M  V30 223 H 18.7362 -4.06215 1.12104 0
M  V30 224 H 17.4602 -3.26154 0.170631 0
M  V30 225 H 16.1192 -2.8797 2.26868 0
M  V30 226 H 15.7672 -4.94759 0.906796 0
M  V30 227 H 15.4672 -5.25139 2.63634 0
M  V30 228 H 16.9912 -5.80694 1.88749 0
M  V30 229 H 18.4052 -4.40227 3.67251 0
M  V30 230 H 16.8022 -4.08405 4.39688 0
M  V30 231 H 17.8722 -2.72404 4.01154 0
M  V30 232 N 19.2153 -1.21501 -1.00376 0
M  V30 233 C 20.4643 -1.02718 -1.73586 0
M  V30 234 C 20.7773 0.439589 -1.90596 0
M  V30 235 O 21.9833 0.746848 -2.61026 0
M  V30 236 C 20.4393 -1.78929 -3.1227 0
M  V30 237 C 20.0473 -3.29783 -3.03228 0
M  V30 238 C 21.7913 -1.68557 -3.89601 0
M  V30 239 C 19.6983 -3.98479 -4.36999 0
M  V30 240 H 18.6283 -0.380733 -0.650814 0
M  V30 241 H 21.2793 -1.45248 -1.1214 0
M  V30 242 H 19.6613 -1.29192 -3.74333 0
M  V30 243 H 20.8353 -3.86832 -2.50395 0
M  V30 244 H 19.1503 -3.40711 -2.39385 0
M  V30 245 H 21.7473 -2.17211 -4.88593 0
M  V30 246 H 22.0903 -0.644021 -4.11288 0
M  V30 247 H 22.6233 -2.15778 -3.34193 0
M  V30 248 H 19.3623 -5.02841 -4.20513 0
M  V30 249 H 18.8823 -3.46219 -4.89788 0
M  V30 250 H 20.5613 -4.03462 -5.05794 0
M  V30 251 N 20.6934 1.19889 -1.02296 0
M  V30 252 C 21.6234 2.25141 -0.619174 0
M  V30 253 C 22.6044 1.66051 0.368915 0
M  V30 254 O 23.7894 1.92546 0.252941 0
M  V30 255 C 20.9194 3.4728 0.0368783 0
M  V30 256 C 19.8734 4.19005 -0.872865 0
M  V30 257 C 19.1994 5.34637 -0.0822402 0
M  V30 258 C 20.4994 4.74452 -2.18387 0
M  V30 259 H 22.1934 2.59171 -1.49903 0
M  V30 260 H 19.7394 1.24579 -0.722222 0
M  V30 261 H 21.6924 4.20098 0.330958 0
M  V30 262 H 20.4164 3.12433 0.95149 0
M  V30 263 H 19.0754 3.48061 -1.15105 0
M  V30 264 H 18.7234 4.96034 0.83422 0
M  V30 265 H 18.4234 5.83557 -0.688149 0
M  V30 266 H 19.9474 6.10255 0.205238 0
M  V30 267 H 21.3614 5.39055 -1.95172 0
M  V30 268 H 19.7584 5.33834 -2.74119 0
M  V30 269 H 20.8284 3.92844 -2.84257 0
M  V30 270 N 22.1715 0.800033 1.35784 0
M  V30 271 C 23.0815 0.207204 2.33683 0
M  V30 272 C 24.0975 -0.64631 1.61551 0
M  V30 273 O 25.2735 -0.559604 1.93469 0
M  V30 274 C 22.3385 -0.639659 3.40748 0
M  V30 275 C 21.3995 0.233585 4.28664 0
M  V30 276 C 20.6325 -0.572954 5.30616 0
M  V30 277 O 20.8555 -1.80816 5.40982 0
M  V30 278 O 19.7895 0.0327285 6.01891 0
M  V30 279 H 23.6155 1.01692 2.86169 0
M  V30 280 H 21.2005 0.561691 1.38439 0
M  V30 281 H 23.0825 -1.12223 4.06182 0
M  V30 282 H 21.7575 -1.42708 2.90544 0
M  V30 283 H 20.6645 0.763147 3.66233 0
M  V30 284 H 21.9975 0.984784 4.82248 0
M  V30 285 N 23.6496 -1.47581 0.552962 0
M  V30 286 C 24.5966 -2.29957 -0.197108 0
M  V30 287 C 25.5666 -1.38799 -0.912359 0
M  V30 288 O 26.7516 -1.67761 -0.908888 0
M  V30 289 C 23.8916 -3.22672 -1.22379 0
M  V30 290 C 23.0046 -4.28919 -0.515038 0
M  V30 291 C 22.1396 -5.0879 -1.52664 0
M  V30 292 C 21.1786 -6.06815 -0.802631 0
M  V30 293 N 20.3156 -6.7966 -1.76086 0
M  V30 294 H 25.1556 -2.93578 0.511486 0
M  V30 295 H 22.6926 -1.4471 0.264067 0
M  V30 296 H 24.6506 -3.74845 -1.83159 0
M  V30 297 H 23.2806 -2.60925 -1.90047 0
M  V30 298 H 22.3326 -3.79835 0.207192 0
M  V30 299 H 23.6446 -4.98773 0.0523425 0
M  V30 300 H 22.7986 -5.65091 -2.20809 0
M  V30 301 H 21.5376 -4.38828 -2.12794 0
M  V30 302 H 20.5426 -5.49695 -0.107238 0
M  V30 303 H 21.7676 -6.78784 -0.207135 0
M  V30 304 H 19.7136 -6.12432 -2.35081 0
M  V30 305 H 19.6306 -7.45669 -1.24552 0
M  V30 306 H 20.8986 -7.40538 -2.43359 0
M  V30 307 N 25.1277 -0.289203 -1.54924 0
M  V30 308 C 26.0597 0.625583 -2.20497 0
M  V30 309 C 27.0727 1.10667 -1.19402 0
M  V30 310 O 28.2617 1.02615 -1.46056 0
M  V30 311 C 25.3617 1.86702 -2.82835 0
M  V30 312 C 24.5347 1.5304 -4.09753 0
M  V30 313 C 23.5937 2.62576 -4.56005 0
M  V30 314 O 22.6197 2.28167 -5.21468 0
M  V30 315 N 23.8217 3.92901 -4.27328 0
M  V30 316 H 26.5867 0.0642801 -2.99631 0
M  V30 317 H 24.1477 -0.110896 -1.6152 0
M  V30 318 H 26.1397 2.59304 -3.10715 0
M  V30 319 H 24.7097 2.33702 -2.07611 0
M  V30 320 H 23.9297 0.637564 -3.8901 0
M  V30 321 H 25.2177 1.28072 -4.92418 0
M  V30 322 H 24.6157 4.23671 -3.74859 0
M  V30 323 H 23.1727 4.61837 -4.59946 0
M  V30 324 N 26.6058 1.57591 -0.0167156 0
M  V30 325 C 27.5688 2.08393 0.954204 0
M  V30 326 C 28.5688 0.996531 1.26198 0
M  V30 327 O 29.7588 1.25858 1.20438 0
M  V30 328 C 26.8908 2.5394 2.27436 0
M  V30 329 H 28.0838 2.95455 0.514451 0
M  V30 330 H 25.6368 1.54582 0.231089 0
M  V30 331 H 26.3718 1.70171 2.76066 0
M  V30 332 H 26.1568 3.33371 2.06412 0
M  V30 333 H 27.6468 2.93512 2.97053 0
M  V30 334 N 28.0839 -0.256276 1.55502 0
M  V30 335 C 29.0469 -1.30047 1.88734 0
M  V30 336 C 30.0469 -1.4154 0.763086 0
M  V30 337 O 31.2369 -1.40403 1.03115 0
M  V30 338 C 28.3689 -2.67953 2.10747 0
M  V30 339 H 29.5619 -1.01802 2.82093 0
M  V30 340 H 27.1149 -0.495134 1.4825 0
M  V30 341 H 27.8499 -3.01351 1.19825 0
M  V30 342 H 27.6349 -2.60993 2.92617 0
M  V30 343 H 29.1249 -3.43368 2.37673 0
M  V30 344 N 29.562 -1.4872 -0.521534 0
M  V30 345 C 30.808 -1.574 -1.27879 0
M  V30 346 C 31.141 -0.250817 -1.92573 0
M  V30 347 O 30.416 0.743934 -1.79711 0
M  V30 348 C 30.699 -2.71843 -2.36164 0
M  V30 349 C 30.552 -4.13893 -1.76105 0
M  V30 350 C 31.871 -2.82008 -3.37875 0
M  V30 351 H 28.99 -0.572941 -0.463581 0
M  V30 352 H 31.632 -1.80927 -0.580119 0
M  V30 353 H 29.782 -2.51914 -2.95756 0
M  V30 354 H 31.454 -4.45284 -1.20499 0
M  V30 355 H 29.697 -4.20498 -1.06601 0
M  V30 356 H 30.368 -4.89804 -2.5455 0
M  V30 357 H 32.844 -3.00086 -2.88249 0
M  V30 358 H 31.72 -3.63796 -4.11028 0
M  V30 359 H 31.981 -1.90511 -3.98946 0
M  V30 360 N 31.0401 0.771051 -1.3745 0
M  V30 361 C 31.9731 1.89166 -1.27638 0
M  V30 362 C 32.9511 1.61842 -0.156782 0
M  V30 363 O 34.1351 1.85569 -0.331111 0
M  V30 364 C 31.2621 3.24405 -0.973621 0
M  V30 365 C 30.3081 3.70638 -2.1102 0
M  V30 366 S 31.1411 3.84228 -3.73 0
M  V30 367 C 32.2971 5.22313 -3.44876 0
M  V30 368 H 32.5301 1.972 -2.22485 0
M  V30 369 H 30.0631 0.932224 -1.23081 0
M  V30 370 H 32.0211 4.02514 -0.805766 0
M  V30 371 H 30.6821 3.14071 -0.0426279 0
M  V30 372 H 29.8751 4.68685 -1.85338 0
M  V30 373 H 29.4771 2.99632 -2.23822 0
M  V30 374 H 31.7691 6.07505 -2.99908 0
M  V30 375 H 32.7121 5.53008 -4.42253 0
M  V30 376 H 33.1201 4.90284 -2.79789 0
M  V30 377 N 32.5182 1.22032 0.997298 0
M  V30 378 C 33.7662 1.04016 1.73278 0
M  V30 379 C 34.0872 -0.426255 1.90284 0
M  V30 380 O 33.3572 -1.30694 1.45931 0
M  V30 381 H 31.9372 0.381897 0.642 0
M  V30 382 H 34.5992 1.5347 1.20137 0
M  V30 383 H 33.6952 1.51441 2.72896 0
M  V30 384 N 33.9963 -1.19345 1.0293 0
M  V30 385 C 34.9283 -2.22036 0.56857 0
M  V30 386 C 35.9413 -1.58865 -0.355779 0
M  V30 387 O 37.1303 -1.77851 -0.152103 0
M  V30 388 C 34.2303 -3.38363 -0.190752 0
M  V30 389 C 33.4033 -4.31118 0.738643 0
M  V30 390 C 32.4623 -5.26194 0.0246497 0
M  V30 391 O 31.4883 -5.65461 0.651354 0
M  V30 392 N 32.6903 -5.66971 -1.24594 0
M  V30 393 H 35.4553 -2.6219 1.45177 0
M  V30 394 H 33.0163 -1.34015 0.908381 0
M  V30 395 H 35.0083 -3.98981 -0.677961 0
M  V30 396 H 33.5783 -2.96994 -0.975366 0
M  V30 397 H 32.7983 -3.68276 1.40593 0
M  V30 398 H 34.0863 -4.90001 1.37029 0
M  V30 399 H 33.4843 -5.37104 -1.77583 0
M  V30 400 H 32.0413 -6.2984 -1.67764 0
M  V30 401 N 35.4744 -0.807222 -1.35358 0
M  V30 402 C 36.4214 -0.216037 -2.29787 0
M  V30 403 C 37.3914 0.650278 -1.52842 0
M  V30 404 O 38.5764 0.595227 -1.81278 0
M  V30 405 C 35.7164 0.628893 -3.39321 0
M  V30 406 C 34.8294 -0.257927 -4.31229 0
M  V30 407 C 33.9644 0.595069 -5.27856 0
M  V30 408 C 33.0034 -0.292111 -6.11403 0
M  V30 409 N 32.1404 0.520895 -7.00165 0
M  V30 410 H 36.9804 -1.02671 -2.79755 0
M  V30 411 H 34.5174 -0.517839 -1.37684 0
M  V30 412 H 36.4754 1.13393 -4.01494 0
M  V30 413 H 35.1054 1.40482 -2.90628 0
M  V30 414 H 34.1574 -0.881076 -3.70056 0
M  V30 415 H 35.4694 -0.940759 -4.89848 0
M  V30 416 H 34.6234 1.16522 -5.95405 0
M  V30 417 H 33.3624 1.31146 -4.69736 0
M  V30 418 H 32.3674 -0.874525 -5.428 0
M  V30 419 H 33.5924 -1.00638 -6.71602 0
M  V30 420 H 31.5384 1.22125 -6.44532 0
M  V30 421 H 31.4554 -0.103877 -7.55929 0
M  V30 422 H 32.7234 1.0743 -7.72062 0
M  V30 423 N 36.9525 1.47285 -0.560781 0
M  V30 424 C 38.2005 2.02064 -0.0379868 0
M  V30 425 C 38.5215 1.43711 1.31803 0
M  V30 426 O 37.7915 0.61362 1.86042 0
M  V30 427 H 36.3715 0.746918 -0.0110531 0
M  V30 428 H 39.0335 1.80648 -0.731598 0
M  V30 429 H 38.1295 3.12064 0.0474463 0
M  V30 430 N 38.4306 0.297415 1.54768 0
M  V30 431 C 39.6786 -0.312295 1.99673 0
M  V30 432 C 39.9996 -1.54686 1.18732 0
M  V30 433 O 39.2696 -1.93854 0.282382 0
M  V30 434 H 37.8496 -0.118381 0.73756 0
M  V30 435 H 40.5116 0.407915 1.90583 0
M  V30 436 H 39.6076 -0.586813 3.06534 0
M  V30 437 N 39.9087 -1.5758 0.0250728 0
M  V30 438 C 41.1337 -1.96337 -0.668317 0
M  V30 439 C 41.5587 -0.901314 -1.651 0
M  V30 440 O 40.9167 0.138187 -1.80773 0
M  V30 441 C 40.9647 -3.34191 -1.35457 0
M  V30 442 O 40.0687 -3.30269 -2.46974 0
M  V30 443 H 39.4097 -0.640281 -0.175887 0
M  V30 444 H 41.9397 -2.0442 0.0857224 0
M  V30 445 H 41.9497 -3.70331 -1.71228 0
M  V30 446 H 40.6247 -4.11036 -0.634218 0
M  V30 447 H 39.2017 -3.05841 -2.13344 0
M  V30 448 N 41.3868 0.248026 -1.55636 0
M  V30 449 C 42.3338 1.30707 -1.90222 0
M  V30 450 C 43.3038 1.47881 -0.756332 0
M  V30 451 O 44.4888 1.61883 -1.00988 0
M  V30 452 C 41.6288 2.65769 -2.20138 0
M  V30 453 C 40.7418 2.56612 -3.47526 0
M  V30 454 C 39.8768 3.8402 -3.67017 0
M  V30 455 C 38.9158 3.69476 -4.8801 0
M  V30 456 N 38.0528 4.88774 -5.04029 0
M  V30 457 H 42.8928 1.00512 -2.80538 0
M  V30 458 H 40.4298 0.485055 -1.38873 0
M  V30 459 H 42.3878 3.44386 -2.35487 0
M  V30 460 H 41.0178 2.94115 -1.33027 0
M  V30 461 H 40.0698 1.69571 -3.40514 0
M  V30 462 H 41.3818 2.41774 -4.36287 0
M  V30 463 H 40.5358 4.7108 -3.8232 0
M  V30 464 H 39.2748 4.01754 -2.76487 0
M  V30 465 H 38.2798 2.80799 -4.72686 0
M  V30 466 H 39.5048 3.53238 -5.8 0
M  V30 467 H 37.4508 5.0687 -4.16435 0
M  V30 468 H 37.3678 4.76562 -5.86877 0
M  V30 469 H 38.6358 5.77335 -5.23741 0
M  V30 470 N 42.8649 1.48995 0.513639 0
M  V30 471 C 44.1129 1.57531 1.26604 0
M  V30 472 C 44.4339 0.258236 1.93283 0
M  V30 473 O 43.7039 -0.721502 1.8213 0
M  V30 474 H 42.2839 0.580387 0.470276 0
M  V30 475 H 44.9459 1.85552 0.596373 0
M  V30 476 H 44.0419 2.36486 2.03669 0
M  V30 477 N 44.343 -0.763751 1.37857 0
M  V30 478 C 45.275 -1.88664 1.30148 0
M  V30 479 C 46.288 -1.61365 0.215685 0
M  V30 480 O 47.477 -1.72134 0.472459 0
M  V30 481 C 44.577 -3.24075 0.991396 0
M  V30 482 C 43.75 -3.78958 2.18426 0
M  V30 483 C 42.809 -4.92862 1.8432 0
M  V30 484 O 41.835 -5.08027 2.56704 0
M  V30 485 N 43.037 -5.75071 0.792081 0
M  V30 486 H 45.802 -1.95791 2.26905 0
M  V30 487 H 43.363 -0.943226 1.31586 0
M  V30 488 H 45.355 -3.97804 0.743935 0
M  V30 489 H 43.925 -3.12399 0.112122 0
M  V30 490 H 43.145 -2.96913 2.59299 0
M  V30 491 H 44.433 -4.12357 2.98058 0
M  V30 492 H 43.831 -5.65375 0.191595 0
M  V30 493 H 42.388 -6.48991 0.60449 0
M  V30 494 N 45.8211 -1.22559 -0.990812 0
M  V30 495 C 46.7511 -1.0218 -2.09956 0
M  V30 496 C 47.7321 0.0579394 -1.70001 0
M  V30 497 O 48.9171 -0.104684 -1.93918 0
M  V30 498 C 46.0471 -0.601023 -3.4206 0
M  V30 499 C 45.0011 -1.62694 -3.95872 0
M  V30 500 C 44.3271 -1.06193 -5.24049 0
M  V30 501 C 45.6271 -3.01743 -4.2632 0
M  V30 502 H 47.3211 -1.94916 -2.27262 0
M  V30 503 H 44.8671 -0.938566 -1.09211 0
M  V30 504 H 46.8201 -0.445561 -4.19038 0
M  V30 505 H 45.5441 0.362005 -3.24588 0
M  V30 506 H 44.2031 -1.77021 -3.21028 0
M  V30 507 H 43.8511 -0.0901903 -5.02919 0
M  V30 508 H 43.5511 -1.74732 -5.61019 0
M  V30 509 H 45.0751 -0.918092 -6.03658 0
M  V30 510 H 46.4891 -2.90777 -4.94087 0
M  V30 511 H 44.8861 -3.67425 -4.74467 0
M  V30 512 H 45.9561 -3.51518 -3.34011 0
M  V30 513 N 47.2992 1.18797 -1.03562 0
M  V30 514 C 48.7102 1.70322 -0.764676 0
M  V30 515 C 49.0612 1.82708 0.714996 0
M  V30 516 O 48.1862 1.50299 1.55689 0
M  V30 517 C 48.7812 3.09356 -1.38145 0
M  V30 518 C 47.3402 3.58114 -1.15895 0
M  V30 519 C 46.4872 2.34798 -1.4753 0
M  V30 520 H 49.4382 1.03543 -1.20268 0
M  V30 521 H 49.4592 3.72378 -0.781977 0
M  V30 522 H 48.9712 3.00309 -2.45837 0
M  V30 523 H 47.0722 3.72464 -0.100544 0
M  V30 524 H 47.1852 4.4184 -1.8524 0
M  V30 525 H 45.5492 2.38464 -0.894829 0
M  V30 526 H 46.3322 2.28375 -2.56319 0
M  V30 527 N 48.7773 0.814389 1.34928 0
M  V30 528 C 50.0023 0.410097 2.03305 0
M  V30 529 C 50.4273 -0.973464 1.60951 0
M  V30 530 O 49.7853 -1.63185 0.789964 0
M  V30 531 C 49.8333 0.51049 3.56968 0
M  V30 532 O 48.9373 -0.473035 4.09678 0
M  V30 533 H 48.2783 0.170088 0.641846 0
M  V30 534 H 50.8083 1.10244 1.72358 0
M  V30 535 H 50.8183 0.383135 4.06197 0
M  V30 536 H 49.4933 1.51963 3.87144 0
M  V30 537 H 48.0703 -0.305272 3.71648 0
M  V30 538 N 50.2554 -1.46986 0.568584 0
M  V30 539 C 51.5034 -2.02041 0.0487022 0
M  V30 540 C 51.8244 -1.44408 -1.31039 0
M  V30 541 O 51.0944 -0.623477 -1.85714 0
M  V30 542 H 49.6744 -0.746849 0.015014 0
M  V30 543 H 52.3364 -1.80257 0.741168 0
M  V30 544 H 51.4324 -3.12085 -0.0308961 0
M  V30 545 N 51.7335 -0.305618 -1.54608 0
M  V30 546 C 52.9585 0.307562 -2.05107 0
M  V30 547 C 53.3835 1.46385 -1.18123 0
M  V30 548 O 52.7415 1.8034 -0.186324 0
M  V30 549 C 52.7895 0.73704 -3.52987 0
M  V30 550 O 51.8935 1.84134 -3.6901 0
M  V30 551 H 51.2345 0.0589143 -0.661381 0
M  V30 552 H 53.7645 -0.448807 -1.99617 0
M  V30 553 H 53.7745 1.02459 -3.94925 0
M  V30 554 H 52.4495 -0.108773 -4.15758 0
M  V30 555 H 51.0265 1.55398 -3.38978 0
M  V30 556 N 53.2116 1.57565 -0.0334293 0
M  V30 557 C 54.4366 1.96689 0.657895 0
M  V30 558 C 54.8616 0.910057 1.64619 0
M  V30 559 O 54.2196 -0.128598 1.80843 0
M  V30 560 C 54.2676 3.34905 1.33683 0
M  V30 561 O 53.3716 3.31574 2.45219 0
M  V30 562 H 52.7126 0.641205 0.172489 0
M  V30 563 H 55.2426 2.04372 -0.0965621 0
M  V30 564 H 55.2526 3.71234 1.69262 0
M  V30 565 H 53.9276 4.11366 0.612411 0
M  V30 566 H 52.5046 3.06968 2.11719 0
M  V30 567 N 54.6897 -0.239769 1.55765 0
M  V30 568 C 55.6217 -1.32001 1.87372 0
M  V30 569 C 56.6347 -1.43944 0.760522 0
M  V30 570 O 57.8237 -1.45167 1.0387 0
M  V30 571 C 54.9237 -2.69779 2.05115 0
M  V30 572 C 54.0967 -2.80014 3.36022 0
M  V30 573 C 53.1557 -3.98684 3.4342 0
M  V30 574 O 52.1817 -3.87877 4.16582 0
M  V30 575 N 53.3837 -5.12176 2.73232 0
M  V30 576 H 56.1487 -1.0522 2.80622 0
M  V30 577 H 53.7097 -0.429857 1.56089 0
M  V30 578 H 55.7017 -3.47517 2.07399 0
M  V30 579 H 54.2717 -2.89237 1.18577 0
M  V30 580 H 53.4917 -1.88896 3.45994 0
M  V30 581 H 54.7797 -2.83808 4.22292 0
M  V30 582 H 54.1777 -5.2385 2.13536 0
M  V30 583 H 52.7347 -5.88022 2.81199 0
M  V30 584 N 56.1678 -1.49265 -0.50573 0
M  V30 585 C 57.4148 -1.58513 -1.26015 0
M  V30 586 C 57.7428 -0.26972 -1.92621 0
M  V30 587 O 56.9978 0.741997 -1.81088 0
M  V30 588 C 57.2968 -2.69008 -2.35308 0
M  V30 589 C 56.9628 -4.10662 -1.86192 0
M  V30 590 C 55.6248 -4.49212 -1.72516 0
M  V30 591 C 57.9768 -4.99336 -1.49375 0
M  V30 592 C 55.3048 -5.74214 -1.20394 0
M  V30 593 C 57.6568 -6.24852 -0.987072 0
M  V30 594 C 56.3208 -6.62236 -0.836669 0
M  V30 595 H 55.5908 -0.580041 -0.461122 0
M  V30 596 H 58.2378 -1.83078 -0.561665 0
M  V30 597 H 56.5428 -2.38396 -3.10926 0
M  V30 598 H 58.2398 -2.73373 -2.93374 0
M  V30 599 H 54.8298 -3.8023 -1.97795 0
M  V30 600 H 59.0138 -4.70212 -1.5879 0
M  V30 601 H 54.2698 -6.01883 -1.07458 0
M  V30 602 H 58.4438 -6.92944 -0.692983 0
M  V30 603 H 56.0708 -7.58979 -0.430607 0
M  V30 604 N 57.6459 0.756429 -1.3826 0
M  V30 605 C 59.0569 1.33359 -1.30661 0
M  V30 606 C 59.4079 1.96161 0.0388875 0
M  V30 607 O 58.5329 1.94874 0.940918 0
M  V30 608 C 59.1279 2.42477 -2.36622 0
M  V30 609 C 57.6869 2.95922 -2.3261 0
M  V30 610 C 56.8339 1.69275 -2.19639 0
M  V30 611 H 59.7849 0.55552 -1.4866 0
M  V30 612 H 59.8059 3.22345 -2.02174 0
M  V30 613 H 59.3179 1.96739 -3.34538 0
M  V30 614 H 57.4189 3.45996 -1.38267 0
M  V30 615 H 57.5319 3.50494 -3.26636 0
M  V30 616 H 55.8959 1.92793 -1.66442 0
M  V30 617 H 56.6789 1.25619 -3.19491 0
M  V30 618 N 59.124 1.23083 0.984299 0
M  V30 619 C 60.074 0.975749 2.06066 0
M  V30 620 C 61.058 -0.0768251 1.60716 0
M  V30 621 O 62.25 0.134805 1.76486 0
M  V30 622 C 59.379 0.564673 3.38624 0
M  V30 623 C 58.465 1.65244 3.90583 0
M  V30 624 N 58.856 2.88193 4.15666 0
M  V30 625 C 57.154 1.52612 4.19077 0
M  V30 626 C 57.855 3.58593 4.58024 0
M  V30 627 N 56.831 2.86093 4.62225 0
M  V30 628 H 60.633 1.90957 2.23411 0
M  V30 629 H 58.147 1.12963 1.16675 0
M  V30 630 H 60.144 0.36322 4.15315 0
M  V30 631 H 58.804 -0.362147 3.22674 0
M  V30 632 H 59.815 3.24537 4.03604 0
M  V30 633 H 56.492 0.666121 4.12152 0
M  V30 634 H 57.882 4.63974 4.85982 0
M  V30 635 N 60.6021 -1.18246 1.0419 0
M  V30 636 C 61.8501 -1.87886 0.744543 0
M  V30 637 C 62.1711 -1.8082 -0.730006 0
M  V30 638 O 61.4411 -1.22736 -1.52685 0
M  V30 639 H 60.0211 -0.695556 0.272417 0
M  V30 640 H 62.6831 -1.43494 1.31892 0
M  V30 641 H 61.7791 -2.9389 1.05049 0
M  V30 642 N 62.0802 -0.821533 -1.34494 0
M  V30 643 C 63.0122 -0.199946 -2.28326 0
M  V30 644 C 64.0252 0.609377 -1.50965 0
M  V30 645 O 65.2142 0.439285 -1.7301 0
M  V30 646 C 62.3142 0.738431 -3.30757 0
M  V30 647 C 61.4872 -0.0277632 -4.37391 0
M  V30 648 C 60.5462 0.831332 -5.19591 0
M  V30 649 O 59.5722 0.276822 -5.68526 0
M  V30 650 N 60.7742 2.15132 -5.39165 0
M  V30 651 H 63.5392 -1.00609 -2.82308 0
M  V30 652 H 61.1002 -0.678366 -1.47003 0
M  V30 653 H 63.0922 1.31773 -3.82646 0
M  V30 654 H 61.6622 1.44533 -2.7718 0
M  V30 655 H 60.8822 -0.788359 -3.86236 0
M  V30 656 H 62.1702 -0.555251 -5.05761 0
M  V30 657 H 61.5682 2.62559 -5.01078 0
M  V30 658 H 60.1252 2.6795 -5.94177 0
M  V30 659 N 63.5583 1.46682 -0.576371 0
M  V30 660 C 64.5053 2.30241 0.160499 0
M  V30 661 C 65.4753 1.40233 0.890162 0
M  V30 662 O 66.6603 1.69186 0.882084 0
M  V30 663 C 63.8003 3.24578 1.1723 0
M  V30 664 C 62.9133 4.29684 0.446736 0
M  V30 665 C 62.0483 5.11154 1.44551 0
M  V30 666 C 61.0873 6.08015 0.70599 0
M  V30 667 N 60.2243 6.82376 1.65251 0
M  V30 668 H 65.0643 2.92727 -0.558127 0
M  V30 669 H 62.6013 1.44272 -0.287056 0
M  V30 670 H 64.5593 3.77711 1.77172 0
M  V30 671 H 63.1893 2.63916 1.85872 0
M  V30 672 H 62.2413 3.79458 -0.267594 0
M  V30 673 H 63.5533 4.98626 -0.131686 0
M  V30 674 H 62.7073 5.68533 2.11791 0
M  V30 675 H 61.4463 4.42158 2.05786 0
M  V30 676 H 60.4513 5.49796 0.0197725 0
M  V30 677 H 61.6763 6.79028 0.09912 0
M  V30 678 H 59.6223 6.16094 2.25308 0
M  V30 679 H 59.5393 7.47556 1.12673 0
M  V30 680 H 60.8073 7.44316 2.31546 0
M  V30 681 N 65.0364 0.313813 1.54444 0
M  V30 682 C 66.2844 -0.291099 1.99993 0
M  V30 683 C 66.6054 -1.53418 1.20366 0
M  V30 684 O 65.8754 -1.93544 0.302927 0
M  V30 685 H 64.4554 -0.110552 0.738774 0
M  V30 686 H 67.1174 0.428106 1.9014 0
M  V30 687 H 66.2134 -0.554268 3.07139 0
M  V30 688 N 66.5145 -1.57545 0.0417849 0
M  V30 689 C 67.4465 -2.07904 -0.964799 0
M  V30 690 C 68.4595 -1.00497 -1.28079 0
M  V30 691 O 69.6485 -1.28087 -1.24322 0
M  V30 692 C 66.7485 -2.49928 -2.28887 0
M  V30 693 C 65.9215 -3.80562 -2.15619 0
M  V30 694 C 64.9805 -4.08999 -3.31069 0
M  V30 695 O 64.0065 -4.79061 -3.0739 0
M  V30 696 N 65.2085 -3.6017 -4.55256 0
M  V30 697 H 67.9735 -2.94886 -0.535029 0
M  V30 698 H 65.5345 -1.61252 -0.144681 0
M  V30 699 H 67.5265 -2.66034 -3.04972 0
M  V30 700 H 66.0965 -1.68245 -2.63463 0
M  V30 701 H 65.3165 -3.74129 -1.24183 0
M  V30 702 H 66.6045 -4.66126 -2.03971 0
M  V30 703 H 66.0025 -3.03512 -4.77386 0
M  V30 704 H 64.5595 -3.81532 -5.28466 0
M  V30 705 N 67.9926 0.231505 -1.5589 0
M  V30 706 C 68.9426 1.29007 -1.87993 0
M  V30 707 C 69.9266 1.42764 -0.742102 0
M  V30 708 O 71.1186 1.45747 -1.00433 0
M  V30 709 C 68.2476 2.6425 -2.1915 0
M  V30 710 C 67.3336 2.54435 -3.39299 0
M  V30 711 N 67.7246 2.14262 -4.58176 0
M  V30 712 C 66.0226 2.85416 -3.42715 0
M  V30 713 C 66.7236 2.15455 -5.40328 0
M  V30 714 N 65.6996 2.55558 -4.79783 0
M  V30 715 H 69.5016 0.970213 -2.77424 0
M  V30 716 H 67.0156 0.440097 -1.56323 0
M  V30 717 H 69.0126 3.40665 -2.40319 0
M  V30 718 H 67.6726 2.9709 -1.31025 0
M  V30 719 H 68.6836 1.85554 -4.83518 0
M  V30 720 H 65.3606 3.22693 -2.64906 0
M  V30 721 H 66.7506 1.86605 -6.45467 0
M  V30 722 N 69.4707 1.49531 0.497807 0
M  V30 723 C 70.7007 1.62657 1.27382 0
M  V30 724 C 71.1087 0.298488 1.86831 0
M  V30 725 O 70.4517 -0.72647 1.68725 0
M  V30 726 C 70.5137 2.6393 2.44093 0
M  V30 727 C 70.1777 4.08195 2.05489 0
M  V30 728 C 71.1747 4.949 1.59279 0
M  V30 729 C 68.8597 4.53948 2.15026 0
M  V30 730 C 70.8537 6.25397 1.23113 0
M  V30 731 C 68.5407 5.84458 1.78473 0
M  V30 732 C 69.5387 6.70006 1.32591 0
M  V30 733 O 69.2267 7.98083 0.965327 0
M  V30 734 H 68.9587 0.550429 0.392434 0
M  V30 735 H 71.5127 1.96325 0.603801 0
M  V30 736 H 69.7427 2.25449 3.14181 0
M  V30 737 H 71.4317 2.66552 3.06113 0
M  V30 738 H 72.1977 4.60779 1.51354 0
M  V30 739 H 68.0767 3.87525 2.4969 0
M  V30 740 H 71.6207 6.92125 0.872299 0
M  V30 741 H 67.5177 6.18107 1.86048 0
M  V30 742 H 68.2857 8.11122 1.09652 0
M  V30 743 N 70.9488 -0.749086 1.3866 0
M  V30 744 C 72.1958 -1.50833 1.35114 0
M  V30 745 C 72.5238 -1.94415 -0.0574049 0
M  V30 746 O 71.7788 -1.66065 -1.03541 0
M  V30 747 C 72.0778 -2.7712 2.25697 0
M  V30 748 C 71.7438 -2.52477 3.73585 0
M  V30 749 C 70.4058 -2.45466 4.13884 0
M  V30 750 C 72.7578 -2.31066 4.67181 0
M  V30 751 C 70.0858 -2.15064 5.45861 0
M  V30 752 C 72.4378 -2.02183 5.9942 0
M  V30 753 C 71.1018 -1.93631 6.38798 0
M  V30 754 H 70.3718 -0.551936 0.494416 0
M  V30 755 H 73.0188 -0.860979 1.71054 0
M  V30 756 H 71.3238 -3.46528 1.82827 0
M  V30 757 H 73.0208 -3.35096 2.20254 0
M  V30 758 H 69.6108 -2.58807 3.41638 0
M  V30 759 H 73.7948 -2.35459 4.3689 0
M  V30 760 H 69.0508 -2.06954 5.75308 0
M  V30 761 H 73.2248 -1.8462 6.71482 0
M  V30 762 H 70.8518 -1.69839 7.40985 0
M  V30 763 N 72.4269 -1.23603 -0.977757 0
M  V30 764 C 73.6749 -1.06759 -1.71601 0
M  V30 765 C 73.9959 0.395929 -1.90938 0
M  V30 766 O 73.2659 1.28356 -1.47992 0
M  V30 767 H 71.8459 -0.392062 -0.635843 0
M  V30 768 H 74.5079 -1.55362 -1.1768 0
M  V30 769 H 73.6039 -1.55763 -2.70452 0
M  V30 770 N 73.905 1.17692 -1.04816 0
M  V30 771 C 74.837 2.21103 -0.603822 0
M  V30 772 C 75.85 1.59411 0.33046 0
M  V30 773 O 77.039 1.7807 0.12379 0
M  V30 774 C 74.139 3.38623 0.136898 0
M  V30 775 C 73.312 4.29888 -0.807137 0
M  V30 776 C 72.371 5.26088 -0.10836 0
M  V30 777 O 71.397 5.64353 -0.741232 0
M  V30 778 N 72.599 5.68882 1.15558 0
M  V30 779 H 75.364 2.59848 -1.49329 0
M  V30 780 H 72.925 1.32553 -0.929587 0
M  V30 781 H 74.917 4.00009 0.614401 0
M  V30 782 H 73.487 2.98508 0.927993 0
M  V30 783 H 72.707 3.65993 -1.46434 0
M  V30 784 H 73.995 4.87759 -1.44807 0
M  V30 785 H 73.393 5.39861 1.69015 0
M  V30 786 H 71.95 6.32429 1.57722 0
M  V30 787 N 75.3831 0.828654 1.34056 0
M  V30 788 C 76.3301 0.252567 2.29414 0
M  V30 789 C 77.3001 -0.62588 1.53857 0
M  V30 790 O 78.4851 -0.566312 1.82202 0
M  V30 791 C 75.6251 -0.574831 3.40279 0
M  V30 792 C 74.7381 0.326499 4.30764 0
M  V30 793 C 73.8731 -0.511016 5.28736 0
M  V30 794 C 72.9121 0.389342 6.1086 0
M  V30 795 N 72.0491 -0.409439 7.00905 0
M  V30 796 H 76.8891 1.07108 2.78086 0
M  V30 797 H 74.4261 0.539677 1.36843 0
M  V30 798 H 76.3841 -1.06992 4.03248 0
M  V30 799 H 75.0141 -1.35841 2.92826 0
M  V30 800 H 74.0661 0.939837 3.68607 0
M  V30 801 H 75.3781 1.01857 4.88289 0
M  V30 802 H 74.5321 -1.07035 5.97184 0
M  V30 803 H 73.2711 -1.23657 4.71763 0
M  V30 804 H 72.2761 0.960769 5.4134 0
M  V30 805 H 73.5011 1.1131 6.69916 0
M  V30 806 H 71.4471 -1.11856 6.46393 0
M  V30 807 H 71.3641 0.224126 7.55668 0
M  V30 808 H 72.6321 -0.951336 7.73673 0
M  V30 809 N 76.8612 -1.46375 0.584142 0
M  V30 810 C 78.1382 -1.956 0.0033388 0
M  V30 811 C 78.5182 -1.52679 -1.45782 0
M  V30 812 O 77.8662 -0.77816 -2.14842 0
M  V30 813 C 78.0762 -3.48551 0.176891 0
M  V30 814 C 79.4242 -4.24576 0.0454609 0
M  V30 815 O 80.4482 -3.56043 0.105801 0
M  V30 816 O 79.3072 -5.46427 -0.0890376 0
M  V30 817 H 76.4012 -0.825547 -0.0490066 0
M  V30 818 H 78.9472 -1.56652 0.65256 0
M  V30 819 H 77.7192 -3.72683 1.1926 0
M  V30 820 H 77.3422 -3.94332 -0.508695 0
M  V30 821 N 78.3393 -0.321999 -1.54275 0
M  V30 822 C 79.2713 0.578671 -2.21775 0
M  V30 823 C 80.2843 1.08109 -1.21722 0
M  V30 824 O 81.4733 0.994938 -1.482 0
M  V30 825 C 78.5733 1.80661 -2.86731 0
M  V30 826 C 77.7463 1.44314 -4.12907 0
M  V30 827 C 76.8053 2.52845 -4.61472 0
M  V30 828 O 75.8313 2.17054 -5.2619 0
M  V30 829 N 77.0333 3.83748 -4.35566 0
M  V30 830 H 79.7983 0.000709447 -2.997 0
M  V30 831 H 77.3593 -0.145132 -1.61248 0
M  V30 832 H 79.3513 2.52655 -3.16145 0
M  V30 833 H 77.9213 2.29245 -2.12521 0
M  V30 834 H 77.1413 0.554906 -3.90275 0
M  V30 835 H 78.4293 1.17598 -4.95023 0
M  V30 836 H 77.8273 4.15625 -3.83761 0
M  V30 837 H 76.3843 4.51977 -4.69638 0
M  V30 838 N 79.8174 1.5752 -0.0501392 0
M  V30 839 C 80.7494 2.08413 0.95376 0
M  V30 840 C 81.7624 1.01175 1.27544 0
M  V30 841 O 82.9514 1.28744 1.23641 0
M  V30 842 C 80.0514 2.51138 2.27559 0
M  V30 843 C 79.2244 3.817 2.13598 0
M  V30 844 C 78.2834 4.10749 3.28895 0
M  V30 845 O 77.3094 4.80685 3.04845 0
M  V30 846 N 78.5114 3.62579 4.5334 0
M  V30 847 H 81.2764 2.95165 0.519383 0
M  V30 848 H 78.8374 1.61327 0.136127 0
M  V30 849 H 80.8294 2.67648 3.03557 0
M  V30 850 H 79.3994 1.6964 2.62567 0
M  V30 851 H 78.6194 3.74782 1.22197 0
M  V30 852 H 79.9074 4.67201 2.01496 0
M  V30 853 H 79.3054 3.06039 4.75769 0
M  V30 854 H 77.8624 3.84329 5.26436 0
M  V30 855 N 81.2955 -0.223234 1.56011 0
M  V30 856 C 82.2455 -1.28008 1.88674 0
M  V30 857 C 83.2295 -1.42369 0.749663 0
M  V30 858 O 84.4215 -1.45212 1.01205 0
M  V30 859 C 81.5505 -2.63084 2.20548 0
M  V30 860 C 80.6365 -2.52632 3.40643 0
M  V30 861 N 81.0275 -2.11829 4.59306 0
M  V30 862 C 79.3255 -2.83594 3.44224 0
M  V30 863 C 80.0265 -2.12587 5.41463 0
M  V30 864 N 79.0025 -2.5301 4.81131 0
M  V30 865 H 82.8045 -0.955487 2.77935 0
M  V30 866 H 80.3185 -0.431801 1.56554 0
M  V30 867 H 82.3155 -3.39385 2.42122 0
M  V30 868 H 80.9755 -2.96391 1.32599 0
M  V30 869 H 81.9865 -1.82988 4.84496 0
M  V30 870 H 78.6635 -3.21284 2.66614 0
M  V30 871 H 80.0535 -1.83179 6.46448 0
M  V30 872 N 82.7736 -1.49793 -0.48987 0
M  V30 873 C 84.0016 -1.63568 -1.26701 0
M  V30 874 C 84.4166 -0.311465 -1.86213 0
M  V30 875 O 83.7736 0.704416 -1.68357 0
M  V30 876 C 83.8246 -2.71284 -2.38929 0
M  V30 877 O 83.5456 -3.9857 -1.81861 0
M  V30 878 C 85.0466 -2.95864 -3.3012 0
M  V30 879 H 82.2666 -0.550342 -0.383881 0
M  V30 880 H 84.8106 -1.95898 -0.586864 0
M  V30 881 H 82.9656 -2.417 -3.02753 0
M  V30 882 H 83.3796 -4.57993 -2.55622 0
M  V30 883 H 84.8536 -3.74941 -4.05121 0
M  V30 884 H 85.3306 -2.06206 -3.87783 0
M  V30 885 H 85.9366 -3.26907 -2.72051 0
M  V30 886 N 84.2517 0.741722 -1.39055 0
M  V30 887 C 85.1987 1.85566 -1.37237 0
M  V30 888 C 86.1687 1.64457 -0.233072 0
M  V30 889 O 87.3537 1.85957 -0.427147 0
M  V30 890 C 84.4937 3.23004 -1.215 0
M  V30 891 C 83.6067 3.55864 -2.44918 0
M  V30 892 C 82.7417 4.82669 -2.21821 0
M  V30 893 C 81.7807 5.08351 -3.40948 0
M  V30 894 N 80.9177 6.26356 -3.17211 0
M  V30 895 H 85.7577 1.86455 -2.32462 0
M  V30 896 H 83.2947 0.911176 -1.15482 0
M  V30 897 H 85.2527 4.02331 -1.10389 0
M  V30 898 H 83.8827 3.21411 -0.29908 0
M  V30 899 H 82.9347 2.7129 -2.66657 0
M  V30 900 H 84.2467 3.70765 -3.33668 0
M  V30 901 H 83.4007 5.69962 -2.07914 0
M  V30 902 H 82.1397 4.69929 -1.30454 0
M  V30 903 H 81.1447 4.19522 -3.55361 0
M  V30 904 H 82.3697 5.22981 -4.33207 0
M  V30 905 H 80.3157 6.14917 -2.28502 0
M  V30 906 H 80.2327 6.41813 -3.99515 0
M  V30 907 H 81.5007 7.16506 -3.06984 0
M  V30 908 N 85.7298 1.2412 0.971189 0
M  V30 909 C 86.9548 1.10667 1.75407 0
M  V30 910 C 87.3798 -0.337048 1.85056 0
M  V30 911 O 86.7378 -1.24396 1.31892 0
M  V30 912 C 86.7858 1.74726 3.15441 0
M  V30 913 O 85.8898 1.01566 3.99697 0
M  V30 914 H 85.2308 0.387341 0.539317 0
M  V30 915 H 87.7608 1.64358 1.2185 0
M  V30 916 H 87.7708 1.80341 3.6598 0
M  V30 917 H 86.4458 2.79773 3.07734 0
M  V30 918 H 85.0228 1.03713 3.58187 0
M  V30 919 N 87.2079 -1.17134 1.05439 0
M  V30 920 C 88.1549 -2.21235 0.657539 0
M  V30 921 C 89.1249 -1.62551 -0.341543 0
M  V30 922 O 90.3099 -1.89379 -0.232393 0
M  V30 923 C 87.4499 -3.45076 0.0410575 0
M  V30 924 C 86.5629 -4.18042 1.08927 0
M  V30 925 C 85.6979 -5.29376 0.439848 0
M  V30 926 C 84.7369 -5.94132 1.4722 0
M  V30 927 N 83.8739 -6.96975 0.846756 0
M  V30 928 H 88.7139 -2.54534 1.54972 0
M  V30 929 H 86.2509 -1.25028 0.775006 0
M  V30 930 H 88.2089 -4.15862 -0.33383 0
M  V30 931 H 86.8389 -3.12353 -0.814568 0
M  V30 932 H 85.8909 -3.45945 1.58196 0
M  V30 933 H 87.2029 -4.62306 1.87282 0
M  V30 934 H 86.3569 -6.06699 0.0115125 0
M  V30 935 H 85.0959 -4.86251 -0.375656 0
M  V30 936 H 84.1009 -5.15538 1.91052 0
M  V30 937 H 85.3259 -6.39337 2.28965 0
M  V30 938 H 83.2719 -6.5598 0.0518075 0
M  V30 939 H 83.1889 -7.39565 1.5678 0
M  V30 940 H 84.4569 -7.78239 0.443277 0
M  V30 941 N 88.686 -0.835752 -1.33615 0
M  V30 942 C 89.934 -0.429109 -1.97492 0
M  V30 943 C 90.255 1.01433 -1.66543 0
M  V30 944 O 89.525 1.70611 -0.962744 0
M  V30 945 H 88.105 -0.155686 -0.730596 0
M  V30 946 H 90.767 -1.06802 -1.63031 0
M  V30 947 H 89.863 -0.55861 -3.0706 0
M  V30 948 N 90.1641 1.46063 -0.591896 0
M  V30 949 C 91.3891 2.07226 -0.0850314 0
M  V30 950 C 91.8141 1.43625 1.21463 0
M  V30 951 O 91.1721 0.523305 1.73583 0
M  V30 952 C 91.2201 3.60554 0.0576567 0
M  V30 953 O 90.3241 3.97128 1.11188 0
M  V30 954 H 89.6651 0.660615 -0.0669568 0
M  V30 955 H 92.1951 1.8756 -0.81745 0
M  V30 956 H 92.2051 4.07165 0.2609 0
M  V30 957 H 90.8801 4.06235 -0.891416 0
M  V30 958 H 89.4571 3.62213 0.886356 0
M  V30 959 N 91.6422 0.330177 1.54103 0
M  V30 960 C 92.8892 -0.270405 2.00686 0
M  V30 961 C 93.2172 -1.51621 1.21825 0
M  V30 962 O 92.4722 -1.93536 0.29025 0
M  V30 963 C 92.7712 -0.643134 3.51566 0
M  V30 964 C 92.4372 0.504251 4.48072 0
M  V30 965 C 91.0992 0.819163 4.74176 0
M  V30 966 C 93.4512 1.27465 5.05373 0
M  V30 967 C 90.7792 1.90708 5.5484 0
M  V30 968 C 93.1312 2.35271 5.87223 0
M  V30 969 C 91.7952 2.67336 6.11627 0
M  V30 970 H 91.0652 -0.0989482 0.734364 0
M  V30 971 H 93.7122 0.455324 1.86008 0
M  V30 972 H 92.0172 -1.44938 3.64006 0
M  V30 973 H 93.7142 -1.11949 3.85056 0
M  V30 974 H 90.3042 0.248733 4.27878 0
M  V30 975 H 94.4882 1.04462 4.85182 0
M  V30 976 H 89.7442 2.15991 5.71977 0
M  V30 977 H 93.9182 2.95405 6.30641 0
M  V30 978 H 91.5452 3.51763 6.73919 0
M  V30 979 N 93.1203 -1.57491 0.0584922 0
M  V30 980 C 94.3453 -1.97711 -0.62652 0
M  V30 981 C 94.7703 -0.936132 -1.63151 0
M  V30 982 O 94.1283 0.099811 -1.81025 0
M  V30 983 C 94.1763 -3.36989 -1.28338 0
M  V30 984 O 93.2803 -3.35433 -2.39913 0
M  V30 985 H 92.6213 -0.643868 -0.162266 0
M  V30 986 H 95.1513 -2.04193 0.129064 0
M  V30 987 H 95.1613 -3.73879 -1.63335 0
M  V30 988 H 93.8363 -4.12289 -0.546889 0
M  V30 989 H 92.4133 -3.10298 -2.06809 0
M  V30 990 N 94.5984 0.214957 -1.56127 0
M  V30 991 C 95.8474 0.936451 -1.78643 0
M  V30 992 C 96.1604 1.85237 -0.628229 0
M  V30 993 O 97.3664 2.613 -0.737186 0
M  V30 994 C 95.8224 1.7154 -3.16389 0
M  V30 995 C 95.4304 0.845299 -4.39953 0
M  V30 996 C 97.1744 2.42772 -3.48227 0
M  V30 997 C 95.0814 1.62198 -5.68723 0
M  V30 998 H 94.0114 0.353401 -0.666051 0
M  V30 999 H 96.6624 0.190169 -1.82512 0
M  V30 1000 H 95.0444 2.50484 -3.06715 0
M  V30 1001 H 96.2184 0.0959353 -4.607 0
M  V30 1002 H 94.5334 0.244789 -4.1568 0
M  V30 1003 H 97.1304 3.01394 -4.41663 0
M  V30 1004 H 97.4734 3.15984 -2.71035 0
M  V30 1005 H 98.0064 1.70813 -3.5926 0
M  V30 1006 H 94.7454 0.933011 -6.48826 0
M  V30 1007 H 94.2654 2.34579 -5.52026 0
M  V30 1008 H 95.9444 2.18095 -6.09133 0
M  V30 1009 N 96.0765 1.50051 0.48192 0
M  V30 1010 C 97.0085 1.64263 1.59844 0
M  V30 1011 C 98.0215 0.52451 1.54119 0
M  V30 1012 O 99.2105 0.797293 1.59704 0
M  V30 1013 C 96.3105 1.60102 2.98698 0
M  V30 1014 C 95.4835 2.87767 3.29407 0
M  V30 1015 C 94.5425 2.76397 4.47762 0
M  V30 1016 O 93.5685 3.50348 4.48603 0
M  V30 1017 N 94.7705 1.89222 5.48794 0
M  V30 1018 H 97.5355 2.60566 1.48073 0
M  V30 1019 H 95.0965 1.47379 0.670149 0
M  V30 1020 H 97.0885 1.50123 3.75826 0
M  V30 1021 H 95.6585 0.715798 3.04294 0
M  V30 1022 H 94.8785 3.11954 2.40994 0
M  V30 1023 H 96.1665 3.72365 3.4673 0
M  V30 1024 H 95.5645 1.28434 5.50928 0
M  V30 1025 H 94.1215 1.85154 6.24949 0
M  V30 1026 N 97.5546 -0.734337 1.39446 0
M  V30 1027 C 98.5046 -1.83949 1.34709 0
M  V30 1028 C 99.4886 -1.59279 0.227851 0
M  V30 1029 O 100.681 -1.70771 0.465438 0
M  V30 1030 C 97.8096 -3.21884 1.19356 0
M  V30 1031 C 96.8956 -3.52381 2.35984 0
M  V30 1032 N 97.2866 -3.53811 3.61457 0
M  V30 1033 C 95.5846 -3.82747 2.28956 0
M  V30 1034 C 96.2856 -3.82122 4.38586 0
M  V30 1035 N 95.2616 -3.9993 3.68181 0
M  V30 1036 H 99.0636 -1.83361 2.29687 0
M  V30 1037 H 96.5776 -0.932609 1.32952 0
M  V30 1038 H 98.5746 -4.00998 1.14046 0
M  V30 1039 H 97.2346 -3.23711 0.253295 0
M  V30 1040 H 98.2456 -3.35107 3.94872 0
M  V30 1041 H 94.9226 -3.92175 1.43194 0
M  V30 1042 H 96.3126 -3.89691 5.47349 0
M  V30 1043 N 99.0327 -1.24633 -0.964593 0
M  V30 1044 C 100.261 -1.11501 -1.74285 0
M  V30 1045 C 100.676 0.332165 -1.85855 0
M  V30 1046 O 100.033 1.22903 -1.34911 0
M  V30 1047 C 100.084 -1.75258 -3.16175 0
M  V30 1048 O 99.8047 -3.14318 -3.05182 0
M  V30 1049 C 101.306 -1.67776 -4.10324 0
M  V30 1050 H 98.5257 -0.389407 -0.546446 0
M  V30 1051 H 101.07 -1.64801 -1.21083 0
M  V30 1052 H 99.2247 -1.25954 -3.66353 0
M  V30 1053 H 99.6387 -3.4551 -3.94618 0
M  V30 1054 H 101.113 -2.17064 -5.0753 0
M  V30 1055 H 101.59 -0.639584 -4.34518 0
M  V30 1056 H 102.196 -2.16522 -3.66058 0
M  V30 1057 N 100.511 1.16574 -1.06058 0
M  V30 1058 C 101.741 1.90675 -0.795397 0
M  V30 1059 C 102.149 1.77547 0.653735 0
M  V30 1060 O 101.492 1.11611 1.45907 0
M  V30 1061 C 101.554 3.42011 -1.10764 0
M  V30 1062 C 101.218 3.78924 -2.55471 0
M  V30 1063 C 102.215 3.81042 -3.53699 0
M  V30 1064 C 99.8998 4.09626 -2.90708 0
M  V30 1065 C 101.894 4.13346 -4.85205 0
M  V30 1066 C 99.5808 4.41597 -4.22416 0
M  V30 1067 C 100.579 4.43436 -5.19474 0
M  V30 1068 O 100.267 4.74649 -6.48817 0
M  V30 1069 H 99.9988 0.611554 -0.288058 0
M  V30 1070 H 102.553 1.48711 -1.41683 0
M  V30 1071 H 100.783 3.84312 -0.429128 0
M  V30 1072 H 102.472 3.97384 -0.827077 0
M  V30 1073 H 103.238 3.57437 -3.27817 0
M  V30 1074 H 99.1168 4.07361 -2.15819 0
M  V30 1075 H 102.661 4.14696 -5.60957 0
M  V30 1076 H 98.5578 4.64667 -4.48056 0
M  V30 1077 H 99.3258 4.9247 -6.5377 0
M  V30 1078 N 101.989 0.842826 1.3317 0
M  V30 1079 C 102.939 0.250877 2.26616 0
M  V30 1080 C 103.923 -0.596427 1.49437 0
M  V30 1081 O 105.115 -0.447747 1.71243 0
M  V30 1082 C 102.244 -0.569779 3.38539 0
M  V30 1083 C 101.33 0.289254 4.23112 0
M  V30 1084 N 101.721 1.36987 4.86897 0
M  V30 1085 C 100.019 0.0769631 4.45934 0
M  V30 1086 C 100.72 1.89737 5.49886 0
M  V30 1087 N 99.6959 1.19827 5.30229 0
M  V30 1088 H 103.498 1.07718 2.73448 0
M  V30 1089 H 101.012 0.687693 1.47121 0
M  V30 1090 H 103.009 -1.01018 4.04476 0
M  V30 1091 H 101.669 -1.39401 2.93253 0
M  V30 1092 H 102.68 1.75277 4.87338 0
M  V30 1093 H 99.3569 -0.713507 4.11358 0
M  V30 1094 H 100.747 2.80253 6.10662 0
M  V30 1095 N 103.467 -1.45747 0.599634 0
M  V30 1096 C 104.713 -2.02592 0.0918643 0
M  V30 1097 C 105.046 -1.46806 -1.27128 0
M  V30 1098 O 104.321 -0.639658 -1.83681 0
M  V30 1099 C 104.604 -3.60073 0.0443398 0
M  V30 1100 C 104.457 -4.26208 1.43759 0
M  V30 1101 C 105.776 -4.35309 -0.647608 0
M  V30 1102 H 102.895 -0.736175 0.034857 0
M  V30 1103 H 105.537 -1.73694 0.770081 0
M  V30 1104 H 103.687 -3.84823 -0.533224 0
M  V30 1105 H 105.359 -4.12668 2.06162 0
M  V30 1106 H 103.602 -3.84916 2.00056 0
M  V30 1107 H 104.273 -5.35069 1.35665 0
M  V30 1108 H 106.749 -4.15805 -0.156776 0
M  V30 1109 H 105.625 -5.45038 -0.649942 0
M  V30 1110 H 105.886 -4.07598 -1.71219 0
M  V30 1111 N 104.945 -0.338344 -1.53925 0
M  V30 1112 C 106.222 0.314774 -1.93051 0
M  V30 1113 C 106.602 1.68669 -1.26941 0
M  V30 1114 O 105.95 2.24636 -0.418445 0
M  V30 1115 C 106.16 0.392249 -3.46789 0
M  V30 1116 C 107.508 0.645554 -4.19664 0
M  V30 1117 O 108.532 0.474575 -3.53024 0
M  V30 1118 O 107.391 0.976408 -5.37707 0
M  V30 1119 H 104.485 0.182598 -0.80659 0
M  V30 1120 H 107.031 -0.389141 -1.65178 0
M  V30 1121 H 105.803 -0.570702 -3.87116 0
M  V30 1122 H 105.426 1.14316 -3.80812 0
M  V30 1123 N 106.423 1.57458 -0.0668435 0
M  V30 1124 C 107.672 1.92477 0.602947 0
M  V30 1125 C 107.985 0.948419 1.71068 0
M  V30 1126 O 109.191 1.19124 2.43971 0
M  V30 1127 C 107.647 3.41903 1.12383 0
M  V30 1128 C 107.255 4.47975 0.04737 0
M  V30 1129 C 108.999 3.85931 1.76797 0
M  V30 1130 C 106.906 5.88529 0.582022 0
M  V30 1131 H 105.836 0.718387 0.22899 0
M  V30 1132 H 108.487 1.82978 -0.138276 0
M  V30 1133 H 106.869 3.46459 1.91787 0
M  V30 1134 H 108.043 4.55029 -0.726978 0
M  V30 1135 H 106.358 4.13384 -0.500243 0
M  V30 1136 H 108.955 4.88322 2.17821 0
M  V30 1137 H 109.298 3.23029 2.62599 0
M  V30 1138 H 109.831 3.83958 1.04024 0
M  V30 1139 H 106.57 6.55065 -0.238721 0
M  V30 1140 H 106.09 5.85004 1.324 0
M  V30 1141 H 107.769 6.38258 1.05999 0
M  V30 1142 N 107.901 -0.206675 1.56239 0
M  V30 1143 C 108.849 -1.27571 1.94495 0
M  V30 1144 C 109.843 -1.47737 0.828862 0
M  V30 1145 O 111.049 -1.48735 1.0138 0
M  V30 1146 H 107.424 -0.428029 0.6183 0
M  V30 1147 H 109.395 -0.925961 2.8367 0
M  V30 1148 C 108.144 -2.61568 2.29079 0
M  V30 1149 H 107.467 -2.46863 3.14482 0
M  V30 1150 H 108.907 -3.35144 2.5972 0
M  V30 1151 C 107.366 -3.17695 1.12123 0
M  V30 1152 O 107.896 -3.99801 0.390153 0
M  V30 1153 N 106.102 -2.76276 0.901097 0
M  V30 1154 H 105.649 -2.09613 1.49733 0
M  V30 1155 H 105.607 -3.1417 0.120319 0
M  V30 1156 N 109.379 -1.50304 -0.473955 0
M  V30 1157 C 110.656 -1.51667 -1.23518 0
M  V30 1158 C 111.036 -0.259701 -2.09496 0
M  V30 1159 O 110.384 0.756986 -2.15597 0
M  V30 1160 C 110.594 -2.81082 -2.06868 0
M  V30 1161 C 111.942 -3.31631 -2.65153 0
M  V30 1162 O 112.966 -2.82384 -2.17113 0
M  V30 1163 O 111.825 -4.17471 -3.52675 0
M  V30 1164 H 108.919 -0.60822 -0.560355 0
M  V30 1165 H 111.465 -1.62592 -0.486011 0
M  V30 1166 H 110.237 -3.64041 -1.4349 0
M  V30 1167 H 109.86 -2.73146 -2.88924 0
M  V30 1168 N 110.857 0.726932 -1.39834 0
M  V30 1169 C 111.807 1.83232 -1.35683 0
M  V30 1170 C 112.791 1.59155 -0.236295 0
M  V30 1171 O 113.983 1.70522 -0.474488 0
M  V30 1172 C 111.112 3.21246 -1.21062 0
M  V30 1173 C 110.198 3.51125 -2.37849 0
M  V30 1174 N 110.589 3.51889 -3.63329 0
M  V30 1175 C 108.887 3.81527 -2.30982 0
M  V30 1176 C 109.588 3.79791 -4.40606 0
M  V30 1177 N 108.564 3.97971 -3.70297 0
M  V30 1178 H 112.366 1.8214 -2.30656 0
M  V30 1179 H 109.88 0.925545 -1.33444 0
M  V30 1180 H 111.877 4.00387 -1.16171 0
M  V30 1181 H 110.537 3.23572 -0.270458 0
M  V30 1182 H 111.548 3.33008 -3.96643 0
M  V30 1183 H 108.225 3.91411 -1.45272 0
M  V30 1184 H 109.615 3.86783 -5.49408 0
M  V30 1185 N 112.336 1.25143 0.95797 0
M  V30 1186 C 113.613 1.00472 1.67823 0
M  V30 1187 C 113.993 -0.470056 2.058 0
M  V30 1188 O 113.341 -1.44663 1.76875 0
M  V30 1189 C 113.551 1.9372 2.90299 0
M  V30 1190 C 114.899 2.21371 3.62326 0
M  V30 1191 O 115.923 1.91451 3.00375 0
M  V30 1192 O 114.782 2.72231 4.7387 0
M  V30 1193 H 111.876 0.380752 0.734137 0
M  V30 1194 H 114.422 1.36283 1.01119 0
M  V30 1195 H 113.194 2.93316 2.59001 0
M  V30 1196 H 112.817 1.58286 3.64735 0
M  V30 1197 N 113.814 -1.1601 1.06675 0
M  V30 1198 C 115.06 -1.87145 0.796766 0
M  V30 1199 C 115.415 -1.8037 -0.669658 0
M  V30 1200 O 114.708 -1.21116 -1.48463 0
M  V30 1201 C 114.902 -3.35547 1.23057 0
M  V30 1202 C 114.731 -3.56769 2.73762 0
M  V30 1203 C 113.501 -3.72635 3.41279 0
M  V30 1204 C 115.699 -3.55166 3.7197 0
M  V30 1205 N 113.681 -3.81845 4.80695 0
M  V30 1206 C 115.052 -3.70406 4.97191 0
M  V30 1207 C 117.107 -3.384 3.65226 0
M  V30 1208 C 115.81 -3.70615 6.16471 0
M  V30 1209 C 117.836 -3.39904 4.83962 0
M  V30 1210 C 117.198 -3.55667 6.08013 0
M  V30 1211 H 113.297 -0.702267 0.344014 0
M  V30 1212 H 115.881 -1.39165 1.36166 0
M  V30 1213 H 114.052 -3.82159 0.693456 0
M  V30 1214 H 115.784 -3.94363 0.908844 0
M  V30 1215 H 112.539 -3.73121 2.91681 0
M  V30 1216 H 112.963 -3.90209 5.53232 0
M  V30 1217 H 117.605 -3.25138 2.70269 0
M  V30 1218 H 115.323 -3.82658 7.11757 0
M  V30 1219 H 118.909 -3.28169 4.80413 0
M  V30 1220 H 117.789 -3.56755 6.98352 0
M  V30 1221 N 115.292 -0.849877 -1.32721 0
M  V30 1222 C 116.52 -0.464754 -2.01613 0
M  V30 1223 C 116.935 0.937191 -1.63897 0
M  V30 1224 O 116.292 1.61081 -0.857856 0
M  V30 1225 C 116.343 -0.588638 -3.56675 0
M  V30 1226 O 116.064 -1.93535 -3.93034 0
M  V30 1227 C 117.565 -0.2019 -4.4284 0
M  V30 1228 H 114.785 -0.183215 -0.645502 0
M  V30 1229 H 117.329 -1.1455 -1.69407 0
M  V30 1230 H 115.484 0.0443159 -3.87375 0
M  V30 1231 H 115.898 -1.92871 -4.87751 0
M  V30 1232 H 117.372 -0.339599 -5.50954 0
M  V30 1233 H 117.849 0.857224 -4.30753 0
M  V30 1234 H 118.455 -0.809733 -4.17521 0
M  V30 1235 N 116.77 1.45427 -0.607355 0
M  V30 1236 C 118.186 1.57283 -0.270985 0
M  V30 1237 C 118.386 1.59875 1.22647 0
M  V30 1238 O 117.442 1.52893 2.00948 0
M  V30 1239 C 118.755 2.85566 -0.941952 0
M  V30 1240 C 120.303 2.9924 -0.917849 0
M  V30 1241 C 120.778 4.30293 -1.56882 0
M  V30 1242 N 122.269 4.37051 -1.5343 0
M  V30 1243 C 123.004 5.37123 -2.00715 0
M  V30 1244 N 122.5 6.43734 -2.56084 0
M  V30 1245 N 124.293 5.28479 -1.91484 0
M  V30 1246 H 116.444 1.41988 -1.57966 0
M  V30 1247 H 118.707 0.67885 -0.661715 0
M  V30 1248 H 118.413 2.8955 -1.99633 0
M  V30 1249 H 118.287 3.74322 -0.465096 0
M  V30 1250 H 120.674 2.94822 0.127984 0
M  V30 1251 H 120.755 2.11895 -1.43297 0
M  V30 1252 H 120.399 4.35469 -2.61398 0
M  V30 1253 H 120.329 5.16454 -1.02873 0
M  V30 1254 H 122.82 3.60615 -1.12982 0
M  V30 1255 H 123.133 7.16341 -2.89958 0
M  V30 1256 H 121.478 6.44485 -2.60122 0
M  V30 1257 H 124.669 4.44098 -1.47967 0
M  V30 1258 H 124.842 6.0632 -2.28648 0
M  V30 1259 N 118.248 0.346503 1.53744 0
M  V30 1260 C 119.195 -0.508914 2.25119 0
M  V30 1261 C 120.165 -1.09315 1.25058 0
M  V30 1262 O 121.35 -1.12921 1.53797 0
M  V30 1263 C 118.49 -1.65246 3.02965 0
M  V30 1264 C 117.603 -1.09525 4.17886 0
M  V30 1265 C 116.738 -2.20634 4.83212 0
M  V30 1266 C 115.777 -1.62279 5.90196 0
M  V30 1267 N 114.914 -2.67143 6.49291 0
M  V30 1268 H 119.754 0.106283 2.9781 0
M  V30 1269 H 117.291 0.0642227 1.4696 0
M  V30 1270 H 119.249 -2.32574 3.4636 0
M  V30 1271 H 117.879 -2.2386 2.32565 0
M  V30 1272 H 116.931 -0.312818 3.79112 0
M  V30 1273 H 118.243 -0.628444 4.94825 0
M  V30 1274 H 117.397 -2.95821 5.29693 0
M  V30 1275 H 116.136 -2.70659 4.05703 0
M  V30 1276 H 115.141 -0.855989 5.43096 0
M  V30 1277 H 116.366 -1.13102 6.69615 0
M  V30 1278 H 114.312 -3.16417 5.74645 0
M  V30 1279 H 114.229 -2.25093 7.21713 0
M  V30 1280 H 115.497 -3.4209 7.00425 0
M  V30 1281 N 119.726 -1.57421 0.075193 0
M  V30 1282 C 120.951 -1.98364 -0.605515 0
M  V30 1283 C 121.376 -0.953383 -1.62149 0
M  V30 1284 O 120.734 0.0806053 -1.81121 0
M  V30 1285 C 120.782 -3.38332 -1.24756 0
M  V30 1286 O 119.886 -3.37959 -2.36342 0
M  V30 1287 H 119.227 -0.645553 -0.155428 0
M  V30 1288 H 121.757 -2.04044 0.150714 0
M  V30 1289 H 121.767 -3.75591 -1.5936 0
M  V30 1290 H 120.442 -4.12846 -0.503129 0
M  V30 1291 H 119.019 -3.12474 -2.03506 0
M  V30 1292 N 121.204 0.198386 -1.56346 0
M  V30 1293 C 122.136 1.26987 -1.90806 0
M  V30 1294 C 123.149 1.41877 -0.798419 0
M  V30 1295 O 124.338 1.42362 -1.07682 0
M  V30 1296 C 121.438 2.64246 -2.12196 0
M  V30 1297 C 120.611 2.71007 -3.43328 0
M  V30 1298 C 119.67 3.89439 -3.5387 0
M  V30 1299 O 118.696 3.76695 -4.26719 0
M  V30 1300 N 119.898 5.04752 -2.86715 0
M  V30 1301 H 122.663 0.977433 -2.83313 0
M  V30 1302 H 120.224 0.388322 -1.57174 0
M  V30 1303 H 122.216 3.41896 -2.1654 0
M  V30 1304 H 120.786 2.85992 -1.26204 0
M  V30 1305 H 120.006 1.79657 -3.50881 0
M  V30 1306 H 121.294 2.72512 -4.29668 0
M  V30 1307 H 120.692 5.18004 -2.2735 0
M  V30 1308 H 119.249 5.8036 -2.96691 0
M  V30 1309 N 122.682 1.50554 0.465978 0
M  V30 1310 C 123.614 1.65949 1.58093 0
M  V30 1311 C 124.627 0.540827 1.53554 0
M  V30 1312 O 125.816 0.814187 1.5885 0
M  V30 1313 C 122.916 1.63261 2.96983 0
M  V30 1314 C 122.089 2.91245 3.26336 0
M  V30 1315 C 121.148 2.8113 4.44806 0
M  V30 1316 O 120.174 3.55086 4.44862 0
M  V30 1317 N 121.376 1.95032 5.46756 0
M  V30 1318 H 124.141 2.62122 1.45301 0
M  V30 1319 H 121.702 1.48082 0.65448 0
M  V30 1320 H 123.694 1.54101 3.74212 0
M  V30 1321 H 122.264 0.748032 3.03518 0
M  V30 1322 H 121.484 3.14493 2.37672 0
M  V30 1323 H 122.772 3.76022 3.42761 0
M  V30 1324 H 122.17 1.3427 5.49534 0
M  V30 1325 H 120.727 1.91772 6.2295 0
M  V30 1326 N 124.16 -0.719506 1.40217 0
M  V30 1327 C 125.39 -1.50646 1.41384 0
M  V30 1328 C 125.798 -1.89197 0.0107743 0
M  V30 1329 O 125.141 -1.55709 -0.974708 0
M  V30 1330 C 125.203 -2.81405 2.23722 0
M  V30 1331 C 124.867 -2.65199 3.72181 0
M  V30 1332 C 125.864 -2.32717 4.64907 0
M  V30 1333 C 123.549 -2.81586 4.1595 0
M  V30 1334 C 125.543 -2.16827 5.99387 0
M  V30 1335 C 123.23 -2.65313 5.50502 0
M  V30 1336 C 124.228 -2.32981 6.42035 0
M  V30 1337 O 123.916 -2.16827 7.74107 0
M  V30 1338 H 123.648 -0.471606 0.484318 0
M  V30 1339 H 126.202 -0.895456 1.84853 0
M  V30 1340 H 124.432 -3.44823 1.75026 0
M  V30 1341 H 126.121 -3.43102 2.16878 0
M  V30 1342 H 126.887 -2.19694 4.32388 0
M  V30 1343 H 122.766 -3.0574 3.45027 0
M  V30 1344 H 126.31 -1.91513 6.70797 0
M  V30 1345 H 122.207 -2.7792 5.82607 0
M  V30 1346 H 122.975 -2.31778 7.84998 0
M  V30 1347 N 125.638 -1.25649 -0.95132 0
M  V30 1348 C 126.915 -1.01361 -1.67288 0
M  V30 1349 C 127.295 0.459135 -2.06046 0
M  V30 1350 O 126.643 1.43723 -1.7764 0
M  V30 1351 C 126.853 -1.95256 -2.89268 0
M  V30 1352 C 128.201 -2.23289 -3.61147 0
M  V30 1353 O 129.225 -1.93041 -2.99355 0
M  V30 1354 O 128.084 -2.74741 -4.72419 0
M  V30 1355 H 125.178 -0.38464 -0.732107 0
M  V30 1356 H 127.724 -1.36817 -1.00395 0
M  V30 1357 H 126.496 -2.94685 -2.57442 0
M  V30 1358 H 126.119 -1.60218 -3.6389 0
M  V30 1359 N 127.117 1.15442 -1.07289 0
M  V30 1360 C 128.047 2.22312 -0.714107 0
M  V30 1361 C 129.028 1.67467 0.298155 0
M  V30 1362 O 130.213 1.93445 0.171048 0
M  V30 1363 C 127.343 3.47124 -0.110448 0
M  V30 1364 C 126.297 4.14926 -1.04979 0
M  V30 1365 C 125.623 5.33807 -0.308924 0
M  V30 1366 C 126.923 4.64762 -2.38314 0
M  V30 1367 H 128.617 2.5258 -1.6076 0
M  V30 1368 H 126.163 1.21404 -0.77441 0
M  V30 1369 H 128.116 4.21124 0.152482 0
M  V30 1370 H 126.84 3.16187 0.81812 0
M  V30 1371 H 125.499 3.42866 -1.29764 0
M  V30 1372 H 125.147 4.99126 0.623084 0
M  V30 1373 H 124.847 5.80113 -0.935036 0
M  V30 1374 H 126.371 6.10576 -0.0537771 0
M  V30 1375 H 127.785 5.30292 -2.1786 0
M  V30 1376 H 126.182 5.21728 -2.96514 0
M  V30 1377 H 127.252 3.80434 -3.00663 0
M  V30 1378 N 128.595 0.856903 1.32268 0
M  V30 1379 C 129.543 0.291987 2.3076 0
M  V30 1380 C 130.537 -0.585857 1.58947 0
M  V30 1381 O 131.743 -0.47341 1.73663 0
M  V30 1382 H 128.118 0.075721 0.748178 0
M  V30 1383 H 130.089 1.13687 2.75895 0
M  V30 1384 C 128.838 -0.502869 3.44044 0
M  V30 1385 H 128.161 0.163328 3.99466 0
M  V30 1386 H 129.601 -0.863691 4.1511 0
M  V30 1387 C 128.06 -1.68898 2.91505 0
M  V30 1388 O 128.59 -2.78811 2.89184 0
M  V30 1389 N 126.796 -1.51679 2.47875 0
M  V30 1390 H 126.343 -0.622666 2.49961 0
M  V30 1391 H 126.301 -2.31184 2.13076 0
M  V30 1392 N 130.073 -1.45103 0.615059 0
M  V30 1393 C 131.036 -2.29025 -0.0895485 0
M  V30 1394 C 132.036 -1.40174 -0.787906 0
M  V30 1395 O 133.226 -1.62217 -0.634933 0
M  V30 1396 C 130.358 -3.21376 -1.13711 0
M  V30 1397 H 131.551 -2.92807 0.648382 0
M  V30 1398 H 129.104 -1.51749 0.374444 0
M  V30 1399 H 129.839 -2.6241 -1.90556 0
M  V30 1400 H 129.624 -3.86834 -0.640475 0
M  V30 1401 H 131.114 -3.84459 -1.63036 0
M  V30 1402 N 131.551 -0.354651 -1.53558 0
M  V30 1403 C 132.481 0.489091 -2.2832 0
M  V30 1404 C 133.462 1.09324 -1.30316 0
M  V30 1405 O 134.647 1.11255 -1.59173 0
M  V30 1406 C 131.777 1.63456 -3.0643 0
M  V30 1407 C 130.731 1.1582 -4.12031 0
M  V30 1408 C 130.057 2.39305 -4.7816 0
M  V30 1409 C 131.357 0.250731 -5.21698 0
M  V30 1410 H 133.051 -0.134614 -2.99097 0
M  V30 1411 H 130.597 -0.0661826 -1.43848 0
M  V30 1412 H 132.55 2.23136 -3.57475 0
M  V30 1413 H 131.274 2.28533 -2.33325 0
M  V30 1414 H 129.933 0.584146 -3.61916 0
M  V30 1415 H 129.581 3.02814 -4.01637 0
M  V30 1416 H 129.281 2.08109 -5.49513 0
M  V30 1417 H 130.805 2.99691 -5.31994 0
M  V30 1418 H 132.219 0.754695 -5.68311 0
M  V30 1419 H 130.616 0.0301468 -6.00092 0
M  V30 1420 H 131.686 -0.710125 -4.79672 0
M  V30 1421 N 133.029 1.57378 -0.0835403 0
M  V30 1422 C 133.979 2.09916 0.889905 0
M  V30 1423 C 134.963 1.01151 1.25129 0
M  V30 1424 O 136.155 1.27443 1.2283 0
M  V30 1425 C 133.284 2.67379 2.15322 0
M  V30 1426 C 132.37 3.83167 1.81779 0
M  V30 1427 N 132.761 4.91665 1.18739 0
M  V30 1428 C 131.059 3.92685 2.11459 0
M  V30 1429 C 131.76 5.72409 1.0355 0
M  V30 1430 N 130.736 5.21062 1.54906 0
M  V30 1431 H 134.538 2.91188 0.398378 0
M  V30 1432 H 132.052 1.61956 0.120013 0
M  V30 1433 H 134.049 3.0334 2.8599 0
M  V30 1434 H 132.709 1.87558 2.65051 0
M  V30 1435 H 133.72 5.10784 0.855604 0
M  V30 1436 H 130.397 3.23856 2.63483 0
M  V30 1437 H 131.787 6.69699 0.543425 0
M  V30 1438 N 134.507 -0.190092 1.56449 0
M  V30 1439 C 135.454 -1.23557 1.94942 0
M  V30 1440 C 136.424 -1.44972 0.810696 0
M  V30 1441 O 137.609 -1.58023 1.06927 0
M  V30 1442 C 134.749 -2.57416 2.2985 0
M  V30 1443 C 133.862 -2.43537 3.5681 0
M  V30 1444 C 132.997 -3.70134 3.81017 0
M  V30 1445 C 132.036 -3.51109 5.01387 0
M  V30 1446 N 131.173 -4.6973 5.21822 0
M  V30 1447 H 136.013 -0.900304 2.84075 0
M  V30 1448 H 133.55 -0.43318 1.40577 0
M  V30 1449 H 135.508 -3.35409 2.48106 0
M  V30 1450 H 134.138 -2.88975 1.43852 0
M  V30 1451 H 133.19 -1.56816 3.46573 0
M  V30 1452 H 134.502 -2.25415 4.4496 0
M  V30 1453 H 133.656 -4.56566 3.9954 0
M  V30 1454 H 132.395 -3.91215 2.91207 0
M  V30 1455 H 131.4 -2.63063 4.82782 0
M  V30 1456 H 132.625 -3.31468 5.9271 0
M  V30 1457 H 130.571 -4.91065 4.34961 0
M  V30 1458 H 130.488 -4.54452 6.0416 0
M  V30 1459 H 131.756 -5.57499 5.44808 0
M  V30 1460 N 135.985 -1.50799 -0.457987 0
M  V30 1461 C 136.948 -1.7005 -1.53674 0
M  V30 1462 C 137.948 -0.570881 -1.50325 0
M  V30 1463 O 139.138 -0.838126 -1.52712 0
M  V30 1464 C 136.27 -1.73788 -2.93276 0
M  V30 1465 H 137.463 -2.66306 -1.37917 0
M  V30 1466 H 135.016 -1.40477 -0.685271 0
M  V30 1467 H 135.751 -0.792717 -3.14462 0
M  V30 1468 H 135.536 -2.55864 -2.97113 0
M  V30 1469 H 137.026 -1.90591 -3.71571 0
M  V30 1470 N 137.463 0.71206 -1.40597 0
M  V30 1471 C 138.691 1.50111 -1.42388 0
M  V30 1472 C 139.106 1.88784 -0.0245395 0
M  V30 1473 O 138.463 1.55681 0.952351 0
M  V30 1474 C 138.514 2.7742 -2.31776 0
M  V30 1475 O 138.235 2.40382 -3.66262 0
M  V30 1476 C 139.736 3.7129 -2.42196 0
M  V30 1477 H 136.956 0.46314 -0.485533 0
M  V30 1478 H 139.5 0.878068 -1.8469 0
M  V30 1479 H 137.655 3.36001 -1.92827 0
M  V30 1480 H 138.069 3.22324 -4.13772 0
M  V30 1481 H 139.543 4.57448 -3.08943 0
M  V30 1482 H 140.02 4.14641 -1.44809 0
M  V30 1483 H 140.626 3.18619 -2.81712 0
M  V30 1484 N 138.941 1.26152 0.944643 0
M  V30 1485 C 139.888 1.07408 2.04285 0
M  V30 1486 C 140.858 -0.0198413 1.66088 0
M  V30 1487 O 142.043 0.139264 1.90291 0
M  V30 1488 C 139.183 0.70945 3.37729 0
M  V30 1489 C 138.296 1.87926 3.88983 0
M  V30 1490 C 137.431 1.45807 5.10797 0
M  V30 1491 C 136.47 2.5964 5.54305 0
M  V30 1492 N 135.607 2.18226 6.67324 0
M  V30 1493 H 140.447 2.01389 2.1965 0
M  V30 1494 H 137.984 1.00275 1.07626 0
M  V30 1495 H 139.942 0.478948 4.14442 0
M  V30 1496 H 138.572 -0.193389 3.2222 0
M  V30 1497 H 137.624 2.22279 3.08701 0
M  V30 1498 H 138.936 2.73377 4.17213 0
M  V30 1499 H 138.09 1.18781 5.94959 0
M  V30 1500 H 136.829 0.574414 4.84305 0
M  V30 1501 H 135.834 2.87399 4.68702 0
M  V30 1502 H 137.059 3.48599 5.828 0
M  V30 1503 H 135.005 1.3229 6.42523 0
M  V30 1504 H 134.922 2.97221 6.95123 0
M  V30 1505 H 136.19 1.94403 7.54869 0
M  V30 1506 N 140.419 -1.14872 1.07899 0
M  V30 1507 C 141.644 -1.90202 0.826926 0
M  V30 1508 C 142.069 -1.77774 -0.614664 0
M  V30 1509 O 141.427 -1.11431 -1.43013 0
M  V30 1510 C 141.475 -3.38352 1.24702 0
M  V30 1511 O 140.579 -4.10497 0.39575 0
M  V30 1512 H 139.92 -0.591968 0.300782 0
M  V30 1513 H 142.45 -1.45437 1.43907 0
M  V30 1514 H 142.46 -3.89156 1.22563 0
M  V30 1515 H 141.135 -3.46715 2.29698 0
M  V30 1516 H 139.712 -3.69796 0.480117 0
M  V30 1517 N 141.898 -0.863906 -1.31812 0
M  V30 1518 C 142.845 -0.313303 -2.28664 0
M  V30 1519 C 143.815 0.584868 -1.55462 0
M  V30 1520 O 145 0.517805 -1.83639 0
M  V30 1521 C 142.14 0.48441 -3.41683 0
M  V30 1522 C 141.253 -0.440594 -4.29747 0
M  V30 1523 C 140.388 0.370652 -5.29905 0
M  V30 1524 C 139.427 -0.551164 -6.09613 0
M  V30 1525 N 138.564 0.223462 -7.01744 0
M  V30 1526 H 143.404 -1.14444 -2.75148 0
M  V30 1527 H 140.941 -0.575769 -1.35364 0
M  V30 1528 H 142.899 0.962627 -4.05943 0
M  V30 1529 H 141.529 1.28029 -2.96325 0
M  V30 1530 H 140.581 -1.03724 -3.65986 0
M  V30 1531 H 141.893 -1.14767 -4.85417 0
M  V30 1532 H 141.047 0.911638 -5.99812 0
M  V30 1533 H 139.786 1.11105 -4.74876 0
M  V30 1534 H 138.791 -1.10396 -5.38603 0
M  V30 1535 H 140.016 -1.29032 -6.66729 0
M  V30 1536 H 137.962 0.946787 -6.49132 0
M  V30 1537 H 137.879 -0.424399 -7.54808 0
M  V30 1538 H 139.147 0.745876 -7.75923 0
M  V30 1539 N 143.376 1.44774 -0.622745 0
M  V30 1540 C 144.308 2.28856 0.125485 0
M  V30 1541 C 145.321 1.40811 0.817069 0
M  V30 1542 O 146.51 1.65044 0.679918 0
M  V30 1543 C 143.61 3.16963 1.19949 0
M  V30 1544 C 142.783 4.33374 0.592064 0
M  V30 1545 C 141.842 5.02577 1.55893 0
M  V30 1546 O 140.868 5.58873 1.07933 0
M  V30 1547 N 142.07 5.03256 2.89334 0
M  V30 1548 H 144.835 2.93713 -0.596068 0
M  V30 1549 H 142.396 1.55129 -0.463303 0
M  V30 1550 H 144.388 3.60123 1.84644 0
M  V30 1551 H 142.958 2.53913 1.82337 0
M  V30 1552 H 142.178 3.93509 -0.233322 0
M  V30 1553 H 143.466 5.08527 0.166738 0
M  V30 1554 H 142.864 4.58836 3.30887 0
M  V30 1555 H 141.421 5.50232 3.49412 0
M  V30 1556 N 144.854 0.36279 1.53368 0
M  V30 1557 C 145.804 -0.501391 2.22419 0
M  V30 1558 C 146.788 -1.0509 1.2184 0
M  V30 1559 O 147.98 -0.981404 1.47301 0
M  V30 1560 C 145.109 -1.64201 3.01484 0
M  V30 1561 C 144.195 -1.10552 4.09438 0
M  V30 1562 N 144.586 -0.291788 5.04958 0
M  V30 1563 C 142.884 -1.3806 4.24094 0
M  V30 1564 C 143.585 0.00162655 5.817 0
M  V30 1565 N 142.561 -0.595244 5.40331 0
M  V30 1566 H 146.363 0.127159 2.93625 0
M  V30 1567 H 143.877 0.170658 1.61501 0
M  V30 1568 H 145.874 -2.27326 3.49469 0
M  V30 1569 H 144.534 -2.27365 2.31809 0
M  V30 1570 H 145.545 0.0687731 5.17854 0
M  V30 1571 H 142.222 -2.01522 3.65644 0
M  V30 1572 H 143.612 0.659278 6.68658 0
M  V30 1573 N 146.332 -1.57332 0.0918853 0
M  V30 1574 C 147.262 -2.16872 -0.865371 0
M  V30 1575 C 148.243 -1.10118 -1.29646 0
M  V30 1576 O 149.428 -1.38242 -1.36392 0
M  V30 1577 C 146.558 -2.74649 -2.12569 0
M  V30 1578 C 145.512 -3.86747 -1.83333 0
M  V30 1579 C 144.838 -4.31212 -3.16166 0
M  V30 1580 C 146.138 -5.10089 -1.1228 0
M  V30 1581 H 147.832 -2.97114 -0.369307 0
M  V30 1582 H 145.378 -1.42918 -0.176194 0
M  V30 1583 H 147.331 -3.14952 -2.7997 0
M  V30 1584 H 146.055 -1.91657 -2.64452 0
M  V30 1585 H 144.714 -3.46978 -1.18331 0
M  V30 1586 H 144.362 -3.45115 -3.6593 0
M  V30 1587 H 144.062 -5.06788 -2.97388 0
M  V30 1588 H 145.586 -4.74146 -3.84731 0
M  V30 1589 H 147 -5.47582 -1.69785 0
M  V30 1590 H 145.397 -5.91073 -1.03693 0
M  V30 1591 H 146.467 -4.84786 -0.105041 0
M  V30 1592 N 147.81 0.181792 -1.56548 0
M  V30 1593 C 149.058 0.89832 -1.81038 0
M  V30 1594 C 149.379 1.83232 -0.667164 0
M  V30 1595 O 148.649 1.93372 0.313673 0
M  V30 1596 H 147.229 0.33471 -0.667816 0
M  V30 1597 H 149.891 0.184116 -1.94028 0
M  V30 1598 H 148.987 1.4815 -2.74696 0
M  V30 1599 N 149.288 1.51039 0.449983 0
M  V30 1600 C 150.536 1.62759 1.19808 0
M  V30 1601 C 150.857 0.339981 1.92013 0
M  V30 1602 O 150.127 -0.643606 1.85026 0
M  V30 1603 H 148.707 0.599811 0.445237 0
M  V30 1604 H 151.369 1.87914 0.517138 0
M  V30 1605 H 150.465 2.44911 1.93455 0
M  V30 1606 N 150.766 -0.704594 1.40972 0
M  V30 1607 C 151.991 -1.49858 1.43378 0
M  V30 1608 C 152.416 -1.88061 0.038184 0
M  V30 1609 O 151.774 -1.5402 -0.956425 0
M  V30 1610 C 151.822 -2.74333 2.34038 0
M  V30 1611 O 150.926 -3.7147 1.7912 0
M  V30 1612 H 150.267 -0.45139 0.486974 0
M  V30 1613 H 152.797 -0.866832 1.8533 0
M  V30 1614 H 152.807 -3.22741 2.49604 0
M  V30 1615 H 151.482 -2.45863 3.35446 0
M  V30 1616 H 150.059 -3.30363 1.72958 0
M  V30 1617 N 152.244 -1.26651 -0.937939 0
M  V30 1618 C 153.176 -1.04283 -2.04102 0
M  V30 1619 C 154.189 -0.00221014 -1.628 0
M  V30 1620 O 155.378 -0.242645 -1.76843 0
M  V30 1621 C 152.478 -0.557846 -3.34277 0
M  V30 1622 C 151.651 -1.66843 -4.04329 0
M  V30 1623 C 150.71 -1.18095 -5.12777 0
M  V30 1624 O 149.736 -1.87865 -5.37304 0
M  V30 1625 N 150.938 -0.0311006 -5.80492 0
M  V30 1626 H 153.703 -1.9927 -2.23856 0
M  V30 1627 H 151.264 -1.1808 -1.10764 0
M  V30 1628 H 153.256 -0.215836 -4.04124 0
M  V30 1629 H 151.826 0.298523 -3.11171 0
M  V30 1630 H 151.046 -2.18123 -3.28353 0
M  V30 1631 H 152.334 -2.41408 -4.47883 0
M  V30 1632 H 151.732 0.551486 -5.63005 0
M  V30 1633 H 150.289 0.251809 -6.51313 0
M  V30 1634 N 153.722 1.14298 -1.08507 0
M  V30 1635 C 154.654 2.1907 -0.673859 0
M  V30 1636 C 155.667 1.60381 0.279577 0
M  V30 1637 O 156.856 1.78374 0.0670754 0
M  V30 1638 C 153.956 3.38888 0.0290979 0
M  V30 1639 C 153.129 4.27103 -0.943494 0
M  V30 1640 C 152.188 5.25477 -0.275676 0
M  V30 1641 O 151.214 5.61709 -0.920401 0
M  V30 1642 N 152.416 5.7227 0.974013 0
M  V30 1643 H 155.181 2.54965 -1.57521 0
M  V30 1644 H 152.742 1.29528 -0.971287 0
M  V30 1645 H 154.734 4.01761 0.48683 0
M  V30 1646 H 153.304 3.01309 0.832555 0
M  V30 1647 H 152.524 3.61149 -1.58004 0
M  V30 1648 H 153.812 4.82905 -1.60251 0
M  V30 1649 H 153.21 5.44965 1.51755 0
M  V30 1650 H 151.767 6.37127 1.37522 0
M  V30 1651 N 155.201 0.870884 1.31352 0
M  V30 1652 C 156.131 0.343096 2.30966 0
M  V30 1653 C 157.112 -0.566507 1.60389 0
M  V30 1654 O 158.297 -0.483336 1.88089 0
M  V30 1655 C 155.427 -0.455487 3.443 0
M  V30 1656 C 154.381 0.361103 4.26474 0
M  V30 1657 C 153.707 -0.563221 5.31725 0
M  V30 1658 C 155.007 1.59566 4.97329 0
M  V30 1659 H 156.701 1.17548 2.75359 0
M  V30 1660 H 154.247 0.566686 1.32381 0
M  V30 1661 H 156.2 -0.83525 4.13039 0
M  V30 1662 H 154.924 -1.32139 2.98675 0
M  V30 1663 H 153.583 0.722825 3.59403 0
M  V30 1664 H 153.231 -1.42643 4.82351 0
M  V30 1665 H 152.931 -0.0207409 5.87596 0
M  V30 1666 H 154.455 -0.939808 6.03324 0
M  V30 1667 H 155.869 1.28728 5.58661 0
M  V30 1668 H 154.266 2.07728 5.63 0
M  V30 1669 H 155.336 2.34798 4.24262 0
M  V30 1670 N 156.679 -1.44442 0.630414 0
M  V30 1671 C 157.609 -2.33418 -0.0618083 0
M  V30 1672 C 158.59 -1.48165 -0.835541 0
M  V30 1673 O 159.775 -1.76886 -0.801564 0
M  V30 1674 C 156.905 -3.31222 -1.04449 0
M  V30 1675 C 155.859 -4.26288 -0.382436 0
M  V30 1676 C 155.185 -5.13954 -1.47497 0
M  V30 1677 C 156.485 -5.1744 0.710865 0
M  V30 1678 H 158.179 -2.91548 0.681184 0
M  V30 1679 H 155.725 -1.40191 0.329026 0
M  V30 1680 H 157.678 -3.92351 -1.53748 0
M  V30 1681 H 156.402 -2.71299 -1.81836 0
M  V30 1682 H 155.061 -3.6649 0.0899054 0
M  V30 1683 H 154.709 -4.50385 -2.2397 0
M  V30 1684 H 154.409 -5.7837 -1.03737 0
M  V30 1685 H 155.933 -5.77955 -1.96979 0
M  V30 1686 H 157.347 -5.72509 0.300996 0
M  V30 1687 H 155.744 -5.90455 1.07156 0
M  V30 1688 H 156.814 -4.58496 1.57829 0
M  V30 1689 N 158.157 -0.370918 -1.53173 0
M  V30 1690 C 159.105 0.488101 -2.27421 0
M  V30 1691 C 160.099 1.07884 -1.30604 0
M  V30 1692 O 161.305 1.02143 -1.48212 0
M  V30 1693 H 157.68 0.176134 -0.731082 0
M  V30 1694 H 159.651 -0.159815 -2.97972 0
M  V30 1695 C 158.4 1.61306 -3.08019 0
M  V30 1696 H 157.723 1.1678 -3.82364 0
M  V30 1697 H 159.163 2.18872 -3.63141 0
M  V30 1698 C 157.622 2.55848 -2.19188 0
M  V30 1699 O 158.152 3.58799 -1.80626 0
M  V30 1700 N 156.358 2.2516 -1.83715 0
M  V30 1701 H 155.905 1.41476 -2.15273 0
M  V30 1702 H 155.863 2.8867 -1.24567 0
M  V30 1703 N 159.635 1.57281 -0.100228 0
M  V30 1704 C 160.865 1.98591 0.569681 0
M  V30 1705 C 161.273 0.978315 1.61943 0
M  V30 1706 O 160.616 -0.0396108 1.83657 0
M  V30 1707 C 160.678 3.36282 1.271 0
M  V30 1708 C 160.342 4.55488 0.371409 0
M  V30 1709 C 161.339 5.18491 -0.382504 0
M  V30 1710 C 159.024 5.01474 0.287965 0
M  V30 1711 C 161.018 6.25852 -1.20779 0
M  V30 1712 C 158.705 6.08701 -0.540965 0
M  V30 1713 C 159.703 6.70755 -1.28749 0
M  V30 1714 O 159.391 7.75914 -2.10269 0
M  V30 1715 H 159.123 0.65752 0.156982 0
M  V30 1716 H 161.677 2.0463 -0.177734 0
M  V30 1717 H 159.907 3.26941 2.0651 0
M  V30 1718 H 161.596 3.62005 1.83595 0
M  V30 1719 H 162.362 4.83891 -0.3278 0
M  V30 1720 H 158.241 4.52932 0.858689 0
M  V30 1721 H 161.785 6.74218 -1.79096 0
M  V30 1722 H 157.682 6.42732 -0.597131 0
M  V30 1723 H 158.45 7.92925 -2.03007 0
M  V30 1724 N 161.113 -0.173488 1.56642 0
M  V30 1725 C 162.06 -1.21482 1.96242 0
M  V30 1726 C 163.03 -1.44104 0.826027 0
M  V30 1727 O 164.215 -1.5688 1.08597 0
M  V30 1728 C 161.355 -2.54964 2.32567 0
M  V30 1729 C 160.468 -2.39739 3.59373 0
M  V30 1730 C 159.603 -3.66072 3.84921 0
M  V30 1731 C 158.642 -3.45771 5.05083 0
M  V30 1732 N 157.779 -4.64169 5.26775 0
M  V30 1733 H 162.619 -0.870123 2.85014 0
M  V30 1734 H 160.156 -0.418245 1.41029 0
M  V30 1735 H 162.114 -3.32758 2.5165 0
M  V30 1736 H 160.744 -2.87433 1.46908 0
M  V30 1737 H 159.796 -1.53131 3.48217 0
M  V30 1738 H 161.108 -2.20683 4.47326 0
M  V30 1739 H 160.262 -4.52303 4.0436 0
M  V30 1740 H 159.001 -3.88105 2.9534 0
M  V30 1741 H 158.006 -2.57927 4.85545 0
M  V30 1742 H 159.231 -3.25163 5.96193 0
M  V30 1743 H 157.177 -4.86425 4.40144 0
M  V30 1744 H 157.094 -4.48019 6.08946 0
M  V30 1745 H 158.362 -5.51689 5.5069 0
M  V30 1746 N 162.591 -1.51276 -0.441967 0
M  V30 1747 C 163.523 -1.68444 -1.55433 0
M  V30 1748 C 164.536 -0.565187 -1.52674 0
M  V30 1749 O 165.725 -0.839356 -1.57534 0
M  V30 1750 C 162.825 -1.67966 -2.94348 0
M  V30 1751 C 161.998 -2.964 -3.21661 0
M  V30 1752 C 161.057 -2.88171 -4.40277 0
M  V30 1753 O 160.083 -3.62119 -4.39157 0
M  V30 1754 N 161.285 -2.03706 -5.43584 0
M  V30 1755 H 164.05 -2.644 -1.41112 0
M  V30 1756 H 161.611 -1.49104 -0.630838 0
M  V30 1757 H 163.603 -1.60035 -3.71713 0
M  V30 1758 H 162.173 -0.796225 -3.0229 0
M  V30 1759 H 161.393 -3.18234 -2.32638 0
M  V30 1760 H 162.681 -3.81427 -3.36736 0
M  V30 1761 H 162.079 -1.42995 -5.47329 0
M  V30 1762 H 160.636 -2.01658 -6.1982 0
M  V30 1763 N 164.069 0.697108 -1.41344 0
M  V30 1764 C 164.979 1.84088 -1.45427 0
M  V30 1765 C 165.995 1.70545 -0.34501 0
M  V30 1766 O 167.171 1.92488 -0.592492 0
M  V30 1767 C 164.236 3.20056 -1.33286 0
M  V30 1768 C 163.297 3.45718 -2.54514 0
M  V30 1769 C 162.53 4.75199 -2.42944 0
M  V30 1770 O 162.753 5.51579 -1.45318 0
M  V30 1771 O 161.687 5.0161 -3.32672 0
M  V30 1772 H 165.513 1.836 -2.41919 0
M  V30 1773 H 163.098 0.849966 -1.22866 0
M  V30 1774 H 164.98 4.01236 -1.28794 0
M  V30 1775 H 163.655 3.2123 -0.39909 0
M  V30 1776 H 162.562 2.64474 -2.64583 0
M  V30 1777 H 163.895 3.49356 -3.46715 0
M  V30 1778 N 165.547 1.27147 0.931209 0
M  V30 1779 C 166.795 1.13055 1.6752 0
M  V30 1780 C 167.116 -0.324791 1.92276 0
M  V30 1781 O 166.386 -1.22775 1.52654 0
M  V30 1782 H 164.966 0.415391 0.620854 0
M  V30 1783 H 167.628 1.59623 1.11833 0
M  V30 1784 H 166.724 1.65694 2.64485 0
M  V30 1785 N 167.025 -1.13721 1.09112 0
M  V30 1786 C 168.441 -1.36914 0.820174 0
M  V30 1787 C 168.641 -1.93356 -0.567079 0
M  V30 1788 O 167.697 -2.15093 -1.32255 0
M  V30 1789 C 169.01 -2.3235 1.90877 0
M  V30 1790 C 170.558 -2.45973 1.93562 0
M  V30 1791 C 171.033 -3.44714 3.01556 0
M  V30 1792 N 172.524 -3.52263 3.00775 0
M  V30 1793 C 173.259 -4.28536 3.80978 0
M  V30 1794 N 172.755 -5.07991 4.71081 0
M  V30 1795 N 174.548 -4.23804 3.69251 0
M  V30 1796 H 166.699 -0.754348 1.98553 0
M  V30 1797 H 168.962 -0.3944 0.862063 0
M  V30 1798 H 168.668 -1.98027 2.90651 0
M  V30 1799 H 168.542 -3.32332 1.78424 0
M  V30 1800 H 170.929 -2.79584 0.944286 0
M  V30 1801 H 171.01 -1.45926 2.10093 0
M  V30 1802 H 170.654 -3.11835 4.00901 0
M  V30 1803 H 170.584 -4.44558 2.82269 0
M  V30 1804 H 173.075 -2.95567 2.35475 0
M  V30 1805 H 173.388 -5.63487 5.28869 0
M  V30 1806 H 171.733 -5.07235 4.75119 0
M  V30 1807 H 174.924 -3.60806 2.98222 0
M  V30 1808 H 175.097 -4.82995 4.31995 0
M  V30 1809 N 168.503 -0.877838 -1.30888 0
M  V30 1810 C 169.78 -0.413052 -1.91189 0
M  V30 1811 C 170.16 1.1056 -1.79832 0
M  V30 1812 O 169.508 1.93771 -1.21099 0
M  V30 1813 C 169.718 -0.903191 -3.3711 0
M  V30 1814 C 171.066 -0.93395 -4.14201 0
M  V30 1815 O 172.09 -0.849373 -3.45925 0
M  V30 1816 O 170.949 -1.05772 -5.36167 0
M  V30 1817 H 168.043 -0.125035 -0.817493 0
M  V30 1818 H 170.589 -0.966269 -1.39504 0
M  V30 1819 H 169.361 -1.94692 -3.39427 0
M  V30 1820 H 168.984 -0.328732 -3.96239 0
M  V30 1821 N 169.982 1.44106 -0.638065 0
M  V30 1822 C 170.932 2.27843 0.0847285 0
M  V30 1823 C 171.916 1.39055 0.809471 0
M  V30 1824 O 173.108 1.62808 0.694435 0
M  V30 1825 C 170.237 3.26497 1.06089 0
M  V30 1826 C 169.323 4.22772 0.33541 0
M  V30 1827 N 169.714 5.01737 -0.639787 0
M  V30 1828 C 168.012 4.42227 0.578921 0
M  V30 1829 C 168.713 5.71792 -1.06904 0
M  V30 1830 N 167.689 5.42079 -0.406395 0
M  V30 1831 H 171.491 2.86305 -0.663814 0
M  V30 1832 H 169.005 1.55627 -0.464122 0
M  V30 1833 H 171.002 3.8525 1.59337 0
M  V30 1834 H 169.662 2.69595 1.80966 0
M  V30 1835 H 170.673 5.07799 -1.01789 0
M  V30 1836 H 167.35 3.96415 1.31003 0
M  V30 1837 H 168.74 6.45205 -1.8751 0
M  V30 1838 N 171.46 0.379036 1.52974 0
M  V30 1839 C 172.737 -0.263479 1.93817 0
M  V30 1840 C 173.117 -1.65244 1.31368 0
M  V30 1841 O 172.465 -2.23448 0.477856 0
M  V30 1842 C 172.675 -0.300166 3.47707 0
M  V30 1843 C 174.023 -0.534061 4.21228 0
M  V30 1844 O 175.047 -0.38081 3.54159 0
M  V30 1845 O 173.906 -0.833501 5.40106 0
M  V30 1846 H 171 -0.161149 0.811147 0
M  V30 1847 H 173.546 0.432798 1.64088 0
M  V30 1848 H 172.318 0.673138 3.85467 0
M  V30 1849 H 171.941 -1.04179 3.83709 0
M  V30 1850 N 172.938 -1.57226 0.108567 0
M  V30 1851 C 173.885 -2.14756 -0.845481 0
M  V30 1852 C 174.855 -1.06971 -1.27068 0
M  V30 1853 O 176.04 -1.34827 -1.35005 0
M  V30 1854 C 173.18 -2.74298 -2.09415 0
M  V30 1855 C 172.293 -3.96358 -1.71826 0
M  V30 1856 C 171.428 -4.44021 -2.9158 0
M  V30 1857 C 170.467 -5.58637 -2.50181 0
M  V30 1858 N 169.604 -6.01091 -3.62814 0
M  V30 1859 H 174.444 -2.95961 -0.348035 0
M  V30 1860 H 171.981 -1.46226 -0.160106 0
M  V30 1861 H 173.939 -3.06945 -2.82561 0
M  V30 1862 H 172.569 -1.95801 -2.56636 0
M  V30 1863 H 171.621 -3.69939 -0.885947 0
M  V30 1864 H 172.933 -4.79504 -1.37394 0
M  V30 1865 H 172.087 -4.78522 -3.72963 0
M  V30 1866 H 170.826 -3.59803 -3.29231 0
M  V30 1867 H 169.831 -5.23751 -1.67228 0
M  V30 1868 H 171.056 -6.44613 -2.13659 0
M  V30 1869 H 169.002 -5.19817 -4.00158 0
M  V30 1870 H 168.919 -6.79066 -3.32273 0
M  V30 1871 H 170.187 -6.40227 -4.44668 0
M  V30 1872 N 174.416 0.165178 -1.56732 0
M  V30 1873 C 175.641 0.900253 -1.86843 0
M  V30 1874 C 176.066 1.74766 -0.695596 0
M  V30 1875 O 175.424 1.77786 0.35522 0
M  V30 1876 C 175.472 1.74777 -3.15413 0
M  V30 1877 O 174.576 2.85007 -2.98068 0
M  V30 1878 H 173.917 0.251832 -0.614391 0
M  V30 1879 H 176.447 0.161468 -2.03962 0
M  V30 1880 H 176.457 2.14646 -3.46974 0
M  V30 1881 H 175.132 1.12537 -4.00385 0
M  V30 1882 H 173.709 2.48676 -2.77875 0
M  V30 1883 N 175.894 1.51508 0.433938 0
M  V30 1884 C 176.841 1.73068 1.52696 0
M  V30 1885 C 177.811 0.572441 1.55924 0
M  V30 1886 O 178.996 0.807253 1.72882 0
M  V30 1887 C 176.136 1.86474 2.90381 0
M  V30 1888 C 175.249 3.14037 2.96656 0
M  V30 1889 C 174.384 3.18019 4.25485 0
M  V30 1890 C 173.423 4.39882 4.2564 0
M  V30 1891 N 172.56 4.41394 5.45999 0
M  V30 1892 H 177.4 2.66366 1.33615 0
M  V30 1893 H 174.937 1.32008 0.649018 0
M  V30 1894 H 176.895 1.92229 3.70275 0
M  V30 1895 H 175.525 0.965809 3.08013 0
M  V30 1896 H 174.577 3.17575 2.09404 0
M  V30 1897 H 175.889 4.0394 2.92633 0
M  V30 1898 H 175.043 3.22708 5.13755 0
M  V30 1899 H 173.782 2.2601 4.3217 0
M  V30 1900 H 172.787 4.35366 3.35763 0
M  V30 1901 H 174.012 5.33159 4.20617 0
M  V30 1902 H 171.958 3.52258 5.53399 0
M  V30 1903 H 171.875 5.25111 5.4387 0
M  V30 1904 H 173.143 4.50281 6.36292 0
M  V30 1905 N 177.372 -0.689602 1.41712 0
M  V30 1906 C 178.62 -1.4468 1.4111 0
M  V30 1907 C 178.941 -1.94986 0.0232196 0
M  V30 1908 O 178.211 -1.72097 -0.935913 0
M  V30 1909 H 176.791 -0.536847 0.519427 0
M  V30 1910 H 179.453 -0.815825 1.77004 0
M  V30 1911 H 178.549 -2.30706 2.10193 0
M  V30 1912 N 178.85 -1.27639 -0.924453 0
M  V30 1913 C 179.8 -1.07295 -2.01176 0
M  V30 1914 C 180.784 5.77352e-05 -1.609 0
M  V30 1915 O 181.976 -0.218855 -1.75642 0
M  V30 1916 C 179.105 -0.725592 -3.35544 0
M  V30 1917 C 178.191 -1.83691 -3.82254 0
M  V30 1918 N 178.582 -3.07697 -4.01443 0
M  V30 1919 C 176.88 -1.72433 -4.11319 0
M  V30 1920 C 177.581 -3.80037 -4.40394 0
M  V30 1921 N 176.557 -3.0782 -4.48049 0
M  V30 1922 H 180.359 -2.01399 -2.14046 0
M  V30 1923 H 177.873 -1.18401 -1.11153 0
M  V30 1924 H 179.87 -0.560959 -4.13109 0
M  V30 1925 H 178.53 0.207782 -3.24034 0
M  V30 1926 H 179.541 -3.43424 -3.8766 0
M  V30 1927 H 176.218 -0.862005 -4.08504 0
M  V30 1928 H 177.608 -4.86632 -4.63291 0
M  V30 1929 N 180.328 1.1314 -1.09713 0
M  V30 1930 C 181.575 1.84484 -0.834987 0
M  V30 1931 C 181.903 1.83689 0.639418 0
M  V30 1932 O 181.158 1.2724 1.4869 0
M  V30 1933 C 181.457 3.32167 -1.3191 0
M  V30 1934 C 181.123 3.53139 -2.80363 0
M  V30 1935 C 179.785 3.58571 -3.20905 0
M  V30 1936 C 182.137 3.60866 -3.76065 0
M  V30 1937 C 179.465 3.69267 -4.55916 0
M  V30 1938 C 181.817 3.73089 -5.10869 0
M  V30 1939 C 180.481 3.76775 -5.50996 0
M  V30 1940 H 179.751 0.675073 -0.305544 0
M  V30 1941 H 182.398 1.33554 -1.37243 0
M  V30 1942 H 180.703 3.85469 -0.701517 0
M  V30 1943 H 182.4 3.85821 -1.09284 0
M  V30 1944 H 178.99 3.49569 -2.47991 0
M  V30 1945 H 183.174 3.55946 -3.45855 0
M  V30 1946 H 178.43 3.70388 -4.86438 0
M  V30 1947 H 182.604 3.78011 -5.84877 0
M  V30 1948 H 180.231 3.84815 -6.55608 0
M  V30 1949 N 181.806 0.884767 1.30421 0
M  V30 1950 C 182.756 0.322846 2.25703 0
M  V30 1951 C 183.74 -0.548582 1.51259 0
M  V30 1952 O 184.932 -0.39304 1.72581 0
M  V30 1953 C 182.061 -0.461787 3.4018 0
M  V30 1954 C 181.147 0.423717 4.21978 0
M  V30 1955 N 181.538 1.52408 4.82292 0
M  V30 1956 C 179.836 0.218795 4.45463 0
M  V30 1957 C 180.537 2.07136 5.43571 0
M  V30 1958 N 179.513 1.36635 5.26148 0
M  V30 1959 H 183.315 1.16363 2.69883 0
M  V30 1960 H 180.829 0.73415 1.44859 0
M  V30 1961 H 182.826 -0.880985 4.07485 0
M  V30 1962 H 181.486 -1.30001 2.9754 0
M  V30 1963 H 182.497 1.90693 4.81515 0
M  V30 1964 H 179.174 -0.582275 4.1342 0
M  V30 1965 H 180.564 2.99538 6.01437 0
M  V30 1966 N 183.284 -1.43765 0.645699 0
M  V30 1967 C 184.217 -2.2798 -0.100072 0
M  V30 1968 C 185.195 -1.39391 -0.837194 0
M  V30 1969 O 186.379 -1.68833 -0.838306 0
M  V30 1970 C 183.506 -3.18643 -1.14823 0
M  V30 1971 C 182.552 -4.2344 -0.510009 0
M  V30 1972 S 183.385 -5.30761 0.710824 0
M  V30 1973 C 184.541 -6.24992 -0.33699 0
M  V30 1974 H 184.774 -2.90884 0.614322 0
M  V30 1975 H 182.307 -1.48166 0.434304 0
M  V30 1976 H 184.265 -3.71424 -1.74799 0
M  V30 1977 H 182.926 -2.54932 -1.8349 0
M  V30 1978 H 182.119 -4.86948 -1.29991 0
M  V30 1979 H 181.721 -3.73997 0.0154577 0
M  V30 1980 H 184.013 -6.66691 -1.20537 0
M  V30 1981 H 184.956 -7.07612 0.262879 0
M  V30 1982 H 185.364 -5.60517 -0.669425 0
M  V30 1983 N 184.763 -0.387143 -1.52771 0
M  V30 1984 C 186.012 0.19697 -2.00736 0
M  V30 1985 C 186.325 1.48082 -1.27793 0
M  V30 1986 O 187.531 2.14485 -1.66458 0
M  V30 1987 C 185.987 0.401568 -3.57653 0
M  V30 1988 C 185.595 -0.868907 -4.39493 0
M  V30 1989 C 187.339 0.942164 -4.13912 0
M  V30 1990 C 185.246 -0.632705 -5.88006 0
M  V30 1991 H 184.176 0.0773827 -0.750019 0
M  V30 1992 H 186.827 -0.50921 -1.76293 0
M  V30 1993 H 185.209 1.16954 -3.78335 0
M  V30 1994 H 186.383 -1.64133 -4.30577 0
M  V30 1995 H 184.698 -1.33429 -3.94443 0
M  V30 1996 H 187.295 1.13455 -5.22525 0
M  V30 1997 H 187.638 1.9106 -3.69867 0
M  V30 1998 H 188.171 0.233814 -3.97112 0
M  V30 1999 H 184.91 -1.57208 -6.36369 0
M  V30 2000 H 184.43 0.100825 -5.99715 0
M  V30 2001 H 186.109 -0.26642 -6.46451 0
M  V30 2002 N 186.241 1.57166 -0.116904 0
M  V30 2003 C 187.487 1.95412 0.542405 0
M  V30 2004 C 187.82 1.00019 1.66463 0
M  V30 2005 O 187.095 0.0370346 1.94465 0
M  V30 2006 C 187.378 3.43615 1.07708 0
M  V30 2007 C 187.231 4.49781 -0.0415868 0
M  V30 2008 C 188.55 3.93616 1.96861 0
M  V30 2009 H 185.669 0.710543 0.195696 0
M  V30 2010 H 188.311 1.89027 -0.192038 0
M  V30 2011 H 186.461 3.49187 1.70296 0
M  V30 2012 H 188.133 4.56308 -0.676793 0
M  V30 2013 H 186.376 4.28033 -0.705019 0
M  V30 2014 H 187.047 5.50733 0.373717 0
M  V30 2015 H 189.523 3.90335 1.44146 0
M  V30 2016 H 188.399 4.97838 2.3119 0
M  V30 2017 H 188.66 3.34188 2.89432 0
M  V30 2018 N 187.719 -0.156864 1.56817 0
M  V30 2019 C 188.968 -0.869504 1.81996 0
M  V30 2020 C 189.281 -1.82777 0.696545 0
M  V30 2021 O 190.487 -2.58384 0.833658 0
M  V30 2022 C 188.943 -1.59679 3.22538 0
M  V30 2023 C 188.551 -0.681431 4.42787 0
M  V30 2024 C 190.295 -2.2968 3.56997 0
M  V30 2025 C 188.202 -1.40978 5.74351 0
M  V30 2026 H 187.132 -0.328438 0.678708 0
M  V30 2027 H 189.783 -0.1223 1.83092 0
M  V30 2028 H 188.165 -2.38927 3.158 0
M  V30 2029 H 189.339 0.0751166 4.60739 0
M  V30 2030 H 187.654 -0.0903431 4.16302 0
M  V30 2031 H 190.251 -2.84794 4.52544 0
M  V30 2032 H 190.594 -3.05707 2.82576 0
M  V30 2033 H 191.127 -1.57361 3.65352 0
M  V30 2034 H 187.866 -0.691561 6.51842 0
M  V30 2035 H 187.386 -2.13929 5.60352 0
M  V30 2036 H 189.065 -1.95337 6.16808 0
M  V30 2037 N 189.197 -1.51736 -0.425897 0
M  V30 2038 C 190.147 -1.70258 -1.51645 0
M  V30 2039 C 191.131 -0.556488 -1.5097 0
M  V30 2040 O 192.323 -0.812879 -1.5723 0
M  V30 2041 C 189.452 -1.84143 -2.89735 0
M  V30 2042 C 188.538 -3.04572 -2.95122 0
M  V30 2043 N 188.929 -4.2756 -2.70233 0
M  V30 2044 C 187.227 -3.04061 -3.26286 0
M  V30 2045 C 187.928 -5.08908 -2.81757 0
M  V30 2046 N 186.904 -4.43797 -3.13919 0
M  V30 2047 H 190.706 -2.63004 -1.31172 0
M  V30 2048 H 188.22 -1.4954 -0.633375 0
M  V30 2049 H 190.217 -1.95525 -3.68206 0
M  V30 2050 H 188.877 -0.925857 -3.1122 0
M  V30 2051 H 189.888 -4.56315 -2.44943 0
M  V30 2052 H 186.565 -2.22179 -3.53473 0
M  V30 2053 H 187.955 -6.16843 -2.66372 0
M  V30 2054 N 190.675 0.682077 -1.42076 0
M  V30 2055 C 191.625 1.78823 -1.41444 0
M  V30 2056 C 192.609 1.58323 -0.28681 0
M  V30 2057 O 193.801 1.68926 -0.528498 0
M  V30 2058 C 190.93 3.17232 -1.3122 0
M  V30 2059 C 190.016 3.4338 -2.489 0
M  V30 2060 N 190.407 3.40152 -3.7434 0
M  V30 2061 C 188.705 3.73986 -2.43003 0
M  V30 2062 C 189.406 3.65581 -4.52466 0
M  V30 2063 N 188.382 3.85989 -3.8277 0
M  V30 2064 H 192.184 1.7471 -2.36334 0
M  V30 2065 H 189.698 0.882622 -1.36321 0
M  V30 2066 H 191.695 3.96489 -1.2885 0
M  V30 2067 H 190.355 3.22547 -0.373263 0
M  V30 2068 H 191.366 3.20221 -4.07037 0
M  V30 2069 H 188.043 3.86591 -1.57651 0
M  V30 2070 H 189.433 3.69108 -5.61435 0
M  V30 2071 N 192.153 1.28127 0.917671 0
M  V30 2072 C 193.1 1.11717 2.0196 0
M  V30 2073 C 194.07 0.0153929 1.66093 0
M  V30 2074 O 195.255 0.179596 1.89953 0
M  V30 2075 C 192.395 0.780927 3.36148 0
M  V30 2076 C 191.508 1.96135 3.84909 0
M  V30 2077 C 190.643 1.56609 5.0759 0
M  V30 2078 C 189.682 2.71339 5.48673 0
M  V30 2079 N 188.819 2.32332 6.62545 0
M  V30 2080 H 193.659 2.06003 2.15329 0
M  V30 2081 H 191.196 1.02535 1.05475 0
M  V30 2082 H 193.154 0.56675 4.13333 0
M  V30 2083 H 191.784 -0.124998 3.22558 0
M  V30 2084 H 190.836 2.28777 3.03916 0
M  V30 2085 H 192.148 2.82165 4.1132 0
M  V30 2086 H 191.302 1.31374 5.92305 0
M  V30 2087 H 190.041 0.677014 4.82978 0
M  V30 2088 H 189.046 2.97276 4.62501 0
M  V30 2089 H 190.271 3.60882 5.75274 0
M  V30 2090 H 188.217 1.45889 6.39572 0
M  V30 2091 H 188.134 3.11899 6.88662 0
M  V30 2092 H 189.402 2.10371 7.50576 0
M  V30 2093 N 193.631 -1.12557 1.10312 0
M  V30 2094 C 194.879 -1.83675 0.843091 0
M  V30 2095 C 195.2 -1.84435 -0.633131 0
M  V30 2096 O 194.47 -1.30657 -1.45964 0
M  V30 2097 H 193.05 -0.680138 0.308904 0
M  V30 2098 H 195.712 -1.36301 1.39313 0
M  V30 2099 H 194.808 -2.87908 1.2048 0
M  V30 2100 N 195.109 -0.891671 -1.2995 0
M  V30 2101 C 196.357 -0.512486 -1.95494 0
M  V30 2102 C 196.678 0.942776 -1.70695 0
M  V30 2103 O 195.948 1.66374 -1.03424 0
M  V30 2104 H 194.528 -0.186533 -0.723336 0
M  V30 2105 H 197.19 -1.13621 -1.58355 0
M  V30 2106 H 196.286 -0.688342 -3.04415 0
M  V30 2107 N 196.587 1.43421 -0.653314 0
M  V30 2108 C 197.519 2.29071 0.0769134 0
M  V30 2109 C 198.532 1.42513 0.787017 0
M  V30 2110 O 199.721 1.66449 0.644757 0
M  V30 2111 C 196.821 3.19436 1.13199 0
M  V30 2112 C 195.994 4.34533 0.500006 0
M  V30 2113 C 195.053 5.05771 1.45198 0
M  V30 2114 O 194.079 5.61037 0.960538 0
M  V30 2115 N 195.281 5.0928 2.78594 0
M  V30 2116 H 198.046 2.92382 -0.658235 0
M  V30 2117 H 195.607 1.54112 -0.496104 0
M  V30 2118 H 197.599 3.63958 1.76964 0
M  V30 2119 H 196.169 2.57724 1.7691 0
M  V30 2120 H 195.389 3.92925 -0.316738 0
M  V30 2121 H 196.677 5.08766 0.0588345 0
M  V30 2122 H 196.075 4.65751 3.2108 0
M  V30 2123 H 194.632 5.57519 3.37662 0
M  V30 2124 N 198.065 0.39524 1.52563 0
M  V30 2125 C 199.028 -0.425001 2.25225 0
M  V30 2126 C 200.028 -0.985266 1.27079 0
M  V30 2127 O 201.218 -0.866332 1.5113 0
M  V30 2128 C 198.35 -1.59686 3.01186 0
M  V30 2129 H 199.543 0.211233 2.99155 0
M  V30 2130 H 197.096 0.147472 1.55603 0
M  V30 2131 H 197.831 -2.27035 2.31572 0
M  V30 2132 H 197.616 -1.20176 3.73229 0
M  V30 2133 H 199.106 -2.17743 3.5634 0
M  V30 2134 N 199.544 -1.57102 0.125237 0
M  V30 2135 C 200.494 -2.12202 -0.833936 0
M  V30 2136 C 201.478 -1.04433 -1.22403 0
M  V30 2137 O 202.67 -1.30655 -1.19408 0
M  V30 2138 C 199.799 -2.72994 -2.08157 0
M  V30 2139 C 198.885 -3.87852 -1.71556 0
M  V30 2140 N 199.276 -4.9464 -1.05662 0
M  V30 2141 C 197.574 -3.98153 -2.00973 0
M  V30 2142 C 198.275 -5.74953 -0.883376 0
M  V30 2143 N 197.251 -5.24985 -1.41036 0
M  V30 2144 H 201.053 -2.92141 -0.321035 0
M  V30 2145 H 198.567 -1.62217 -0.0770315 0
M  V30 2146 H 200.564 -3.10816 -2.77847 0
M  V30 2147 H 199.224 -1.9452 -2.59985 0
M  V30 2148 H 200.235 -5.12872 -0.719878 0
M  V30 2149 H 196.912 -3.30728 -2.54804 0
M  V30 2150 H 198.302 -6.70904 -0.365675 0
M  V30 2151 N 201.022 0.148545 -1.56898 0
M  V30 2152 C 201.972 1.1886 -1.94567 0
M  V30 2153 C 202.956 1.3863 -0.816735 0
M  V30 2154 O 204.148 1.40218 -1.08018 0
M  V30 2155 C 201.277 2.52262 -2.32849 0
M  V30 2156 C 200.363 2.36092 -3.52309 0
M  V30 2157 N 200.754 1.89674 -4.6889 0
M  V30 2158 C 199.052 2.66848 -3.57363 0
M  V30 2159 C 199.753 1.86511 -5.50989 0
M  V30 2160 N 198.729 2.29766 -4.92655 0
M  V30 2161 H 202.531 0.821793 -2.82177 0
M  V30 2162 H 200.045 0.356615 -1.58436 0
M  V30 2163 H 202.042 3.27447 -2.58039 0
M  V30 2164 H 200.702 2.89727 -1.46589 0
M  V30 2165 H 201.713 1.59663 -4.92674 0
M  V30 2166 H 198.39 3.08198 -2.81639 0
M  V30 2167 H 199.78 1.52128 -6.54452 0
M  V30 2168 N 202.5 1.5196 0.417844 0
M  V30 2169 C 203.748 1.65263 1.16329 0
M  V30 2170 C 204.069 0.380634 1.91249 0
M  V30 2171 O 203.339 -0.604214 1.86349 0
M  V30 2172 H 201.919 0.60912 0.432414 0
M  V30 2173 H 204.581 1.88969 0.477162 0
M  V30 2174 H 203.677 2.4896 1.88217 0
M  V30 2175 N 203.978 -0.674533 1.42435 0
M  V30 2176 C 205.206 -1.46283 1.46317 0
M  V30 2177 C 205.621 -1.88653 0.0745836 0
M  V30 2178 O 204.978 -1.58151 -0.91074 0
M  V30 2179 C 205.029 -2.71178 2.3905 0
M  V30 2180 O 204.75 -2.30586 3.72507 0
M  V30 2181 C 206.251 -3.64738 2.51955 0
M  V30 2182 H 203.471 -0.450104 0.497642 0
M  V30 2183 H 206.015 -0.828792 1.86953 0
M  V30 2184 H 204.17 -3.3077 2.01667 0
M  V30 2185 H 204.584 -3.11241 4.22172 0
M  V30 2186 H 206.058 -4.49096 3.20962 0
M  V30 2187 H 206.535 -4.10656 1.55752 0
M  V30 2188 H 207.141 -3.11038 2.90061 0
M  V30 2189 N 205.456 -1.28612 -0.910864 0
M  V30 2190 C 206.388 -1.08589 -2.01844 0
M  V30 2191 C 207.401 -0.0367419 -1.62759 0
M  V30 2192 O 208.59 -0.280101 -1.76289 0
M  V30 2193 C 205.69 -0.628626 -3.33019 0
M  V30 2194 C 204.863 -1.75382 -4.00699 0
M  V30 2195 C 203.922 -1.28945 -5.10156 0
M  V30 2196 O 202.948 -1.9922 -5.33198 0
M  V30 2197 N 204.15 -0.154224 -5.80295 0
M  V30 2198 H 206.915 -2.03973 -2.19579 0
M  V30 2199 H 204.476 -1.20403 -1.08234 0
M  V30 2200 H 206.468 -0.301508 -4.03575 0
M  V30 2201 H 205.038 0.232451 -3.11735 0
M  V30 2202 H 204.258 -2.25039 -3.23653 0
M  V30 2203 H 205.546 -2.50854 -4.42662 0
M  V30 2204 H 204.944 0.43194 -5.64049 0
M  V30 2205 H 203.501 0.113599 -6.51701 0
M  V30 2206 N 206.934 1.1197 -1.10907 0
M  V30 2207 C 207.882 2.19927 -0.757303 0
M  V30 2208 C 208.876 1.67564 0.248747 0
M  V30 2209 O 210.082 1.79672 0.108605 0
M  V30 2210 H 206.457 0.716925 -0.226987 0
M  V30 2211 H 208.428 2.46847 -1.67658 0
M  V30 2212 C 207.177 3.47061 -0.210671 0
M  V30 2213 H 206.5 3.87703 -0.976049 0
M  V30 2214 H 207.94 4.24 -0.0026584 0
M  V30 2215 C 206.399 3.19864 1.05777 0
M  V30 2216 O 206.929 3.40049 2.13845 0
M  V30 2217 N 205.135 2.73636 0.978349 0
M  V30 2218 H 204.682 2.5741 0.0988246 0
M  V30 2219 H 204.64 2.55815 1.82773 0
M  V30 2220 N 208.412 0.89855 1.29475 0
M  V30 2221 C 209.823 0.572537 1.77705 0
M  V30 2222 C 210.174 -0.911778 1.73727 0
M  V30 2223 O 209.299 -1.71288 1.32247 0
M  V30 2224 C 209.894 1.03252 3.22683 0
M  V30 2225 C 208.453 0.757687 3.68695 0
M  V30 2226 C 207.6 1.20787 2.49612 0
M  V30 2227 H 210.551 1.08139 1.16153 0
M  V30 2228 H 210.572 0.367307 3.78723 0
M  V30 2229 H 210.084 2.11285 3.25546 0
M  V30 2230 H 208.185 -0.310079 3.71308 0
M  V30 2231 H 208.298 1.35476 4.59547 0
M  V30 2232 H 206.662 0.626888 2.46865 0
M  V30 2233 H 207.445 2.29622 2.55203 0
M  V30 2234 N 209.89 -1.43072 0.660911 0
M  V30 2235 C 211.115 -2.06584 0.183805 0
M  V30 2236 C 211.54 -1.49257 -1.14472 0
M  V30 2237 O 210.898 -0.605528 -1.70889 0
M  V30 2238 C 210.946 -3.60418 0.114434 0
M  V30 2239 O 210.05 -4.01981 -0.921137 0
M  V30 2240 H 209.391 -0.656669 0.0983994 0
M  V30 2241 H 211.921 -1.83447 0.906006 0
M  V30 2242 H 211.931 -4.07946 -0.0663394 0
M  V30 2243 H 210.606 -4.01519 1.08422 0
M  V30 2244 H 209.183 -3.66029 -0.71253 0
M  V30 2245 N 211.368 -0.403325 -1.52352 0
M  V30 2246 C 212.3 0.4603 -2.2453 0
M  V30 2247 C 213.313 1.01505 -1.27282 0
M  V30 2248 O 214.502 0.914982 -1.53266 0
M  V30 2249 C 211.602 1.65208 -2.95905 0
M  V30 2250 C 210.775 1.22224 -4.19976 0
M  V30 2251 C 209.834 2.28028 -4.74226 0
M  V30 2252 O 208.86 1.88857 -5.36956 0
M  V30 2253 N 210.062 3.6012 -4.55295 0
M  V30 2254 H 212.827 -0.158156 -2.99282 0
M  V30 2255 H 210.388 -0.230402 -1.60252 0
M  V30 2256 H 212.38 2.35541 -3.29093 0
M  V30 2257 H 210.95 2.17658 -2.24374 0
M  V30 2258 H 210.17 0.34725 -3.92668 0
M  V30 2259 H 211.458 0.911924 -5.00561 0
M  V30 2260 H 210.856 3.94698 -4.05253 0
M  V30 2261 H 209.413 4.26447 -4.92936 0
M  V30 2262 N 212.846 1.57033 -0.133567 0
M  V30 2263 C 214.123 1.87256 0.56522 0
M  V30 2264 C 214.503 1.03726 1.83859 0
M  V30 2265 O 213.851 0.120247 2.28183 0
M  V30 2266 C 214.061 3.3865 0.843636 0
M  V30 2267 C 215.409 4.07574 1.19032 0
M  V30 2268 O 216.433 3.43752 0.933429 0
M  V30 2269 O 215.292 5.20259 1.67312 0
M  V30 2270 H 212.386 0.775678 0.286796 0
M  V30 2271 H 214.932 1.68855 -0.169168 0
M  V30 2272 H 213.704 3.91257 -0.0581149 0
M  V30 2273 H 213.327 3.62532 1.63268 0
M  V30 2274 N 214.325 -0.140222 1.56975 0
M  V30 2275 C 215.257 -1.19818 1.95388 0
M  V30 2276 C 216.27 -1.38816 0.850525 0
M  V30 2277 O 217.459 -1.38267 1.12891 0
M  V30 2278 C 214.559 -2.56189 2.21857 0
M  V30 2279 C 213.732 -2.58077 3.5315 0
M  V30 2280 C 212.791 -3.76037 3.6808 0
M  V30 2281 O 211.817 -3.60598 4.40406 0
M  V30 2282 N 213.019 -4.93763 3.05251 0
M  V30 2283 H 215.784 -0.871609 2.86746 0
M  V30 2284 H 213.345 -0.32972 1.58507 0
M  V30 2285 H 215.337 -3.33623 2.2908 0
M  V30 2286 H 213.907 -2.81111 1.36731 0
M  V30 2287 H 213.127 -1.6651 3.57307 0
M  V30 2288 H 214.415 -2.56377 4.39486 0
M  V30 2289 H 213.813 -5.09209 2.46419 0
M  V30 2290 H 212.37 -5.68949 3.18026 0
M  V30 2291 N 215.803 -1.52179 -0.40978 0
M  V30 2292 C 217.051 -1.65878 -1.15451 0
M  V30 2293 C 217.372 -0.390771 -1.91044 0
M  V30 2294 O 216.642 0.594323 -1.86667 0
M  V30 2295 H 215.222 -0.611405 -0.429177 0
M  V30 2296 H 217.884 -1.89219 -0.467134 0
M  V30 2297 H 216.98 -2.49954 -1.86894 0
M  V30 2298 N 217.281 0.66697 -1.42791 0
M  V30 2299 C 218.229 1.80157 -1.47127 0
M  V30 2300 C 219.223 1.65825 -0.346199 0
M  V30 2301 O 220.429 1.72338 -0.519572 0
M  V30 2302 H 216.804 0.594158 -0.460956 0
M  V30 2303 H 218.775 1.73619 -2.42692 0
M  V30 2304 C 217.524 3.18351 -1.39813 0
M  V30 2305 H 216.847 3.3001 -2.25684 0
M  V30 2306 H 218.287 3.97736 -1.46908 0
M  V30 2307 C 216.746 3.36707 -0.11391 0
M  V30 2308 O 217.276 3.93027 0.830241 0
M  V30 2309 N 215.482 2.90586 -0.0285295 0
M  V30 2310 H 215.029 2.4494 -0.79764 0
M  V30 2311 H 214.987 3.03245 0.830063 0
M  V30 2312 N 218.759 1.29093 0.90403 0
M  V30 2313 C 219.984 1.19809 1.69294 0
M  V30 2314 C 220.409 -0.238481 1.86582 0
M  V30 2315 O 219.767 -1.1723 1.383 0
M  V30 2316 C 219.815 1.91202 3.05736 0
M  V30 2317 O 218.919 1.22611 3.93752 0
M  V30 2318 H 218.26 0.415385 0.518027 0
M  V30 2319 H 220.79 1.70586 1.12967 0
M  V30 2320 H 220.8 1.99487 3.55906 0
M  V30 2321 H 219.475 2.95692 2.92471 0
M  V30 2322 H 218.052 1.22554 3.52186 0
M  V30 2323 N 220.237 -1.11381 1.11499 0
M  V30 2324 C 221.648 -1.6465 0.880191 0
M  V30 2325 C 221.999 -1.87199 -0.587434 0
M  V30 2326 O 221.124 -1.60667 -1.44966 0
M  V30 2327 C 221.719 -2.99105 1.59128 0
M  V30 2328 C 220.278 -3.49279 1.40289 0
M  V30 2329 C 219.425 -2.24077 1.63354 0
M  V30 2330 H 222.376 -0.950123 1.27116 0
M  V30 2331 H 222.397 -3.66107 1.03664 0
M  V30 2332 H 221.909 -2.82661 2.65941 0
M  V30 2333 H 220.01 -3.70887 0.356888 0
M  V30 2334 H 220.123 -4.2803 2.15238 0
M  V30 2335 H 218.487 -2.31733 1.05698 0
M  V30 2336 H 219.27 -2.10175 2.71443 0
M  V30 2337 N 221.715 -0.905404 -1.28997 0
M  V30 2338 C 222.94 -0.549175 -1.99997 0
M  V30 2339 C 223.365 0.860276 -1.67275 0
M  V30 2340 O 222.723 1.57355 -0.900502 0
M  V30 2341 C 222.771 -0.755185 -3.52604 0
M  V30 2342 O 221.875 0.189692 -4.11964 0
M  V30 2343 H 221.216 -0.213899 -0.628604 0
M  V30 2344 H 223.746 -1.21856 -1.64354 0
M  V30 2345 H 223.756 -0.662045 -4.02593 0
M  V30 2346 H 222.431 -1.78271 -3.75755 0
M  V30 2347 H 221.008 0.0485257 -3.72868 0
M  V30 2348 N 223.193 1.4272 -0.668489 0
M  V30 2349 C 224.441 2.01226 -0.187769 0
M  V30 2350 C 224.762 1.53092 1.2078 0
M  V30 2351 O 224.032 0.74993 1.80977 0
M  V30 2352 H 222.612 0.744041 -0.0664272 0
M  V30 2353 H 225.274 1.74723 -0.863583 0
M  V30 2354 H 224.37 3.11556 -0.184166 0
M  V30 2355 N 224.671 0.411399 1.52136 0
M  V30 2356 C 225.618 -0.412975 2.27075 0
M  V30 2357 C 226.588 -1.03912 1.29582 0
M  V30 2358 O 227.773 -1.06296 1.58448 0
M  V30 2359 C 224.913 -1.52247 3.09701 0
M  V30 2360 C 224.026 -0.917021 4.22155 0
M  V30 2361 C 223.161 -1.9994 4.92135 0
M  V30 2362 C 222.2 -1.37101 5.96548 0
M  V30 2363 N 221.337 -2.39364 6.60038 0
M  V30 2364 H 226.177 0.232499 2.97092 0
M  V30 2365 H 223.714 0.126496 1.46555 0
M  V30 2366 H 225.672 -2.17674 3.55913 0
M  V30 2367 H 224.302 -2.13794 2.41851 0
M  V30 2368 H 223.354 -0.151742 3.80097 0
M  V30 2369 H 224.666 -0.418006 4.97045 0
M  V30 2370 H 223.82 -2.73088 5.41763 0
M  V30 2371 H 222.559 -2.53208 4.16818 0
M  V30 2372 H 221.564 -0.624873 5.46237 0
M  V30 2373 H 222.789 -0.845998 6.7381 0
M  V30 2374 H 220.735 -2.91759 5.87548 0
M  V30 2375 H 220.652 -1.9428 7.3061 0
M  V30 2376 H 221.92 -3.12074 7.14304 0
M  V30 2377 N 226.149 -1.5696 0.141893 0
M  V30 2378 C 227.397 -1.95573 -0.509484 0
M  V30 2379 C 227.718 -1.02746 -1.65736 0
M  V30 2380 O 226.988 -0.0880311 -1.95702 0
M  V30 2381 H 225.568 -0.722115 -0.191205 0
M  V30 2382 H 228.23 -1.93697 0.216196 0
M  V30 2383 H 227.326 -2.99171 -0.889 0
M  V30 2384 N 227.627 0.131896 -1.57047 0
M  V30 2385 C 228.557 1.16384 -2.02428 0
M  V30 2386 C 229.538 1.43936 -0.90644 0
M  V30 2387 O 230.723 1.54599 -1.17528 0
M  V30 2388 C 227.853 2.49328 -2.4177 0
M  V30 2389 C 226.807 2.36266 -3.56879 0
M  V30 2390 C 226.133 3.74057 -3.8208 0
M  V30 2391 C 227.433 1.834 -4.89042 0
M  V30 2392 H 229.127 0.786433 -2.88887 0
M  V30 2393 H 226.673 0.376855 -1.38981 0
M  V30 2394 H 228.626 3.21759 -2.7212 0
M  V30 2395 H 227.35 2.88934 -1.52266 0
M  V30 2396 H 226.009 1.66286 -3.26718 0
M  V30 2397 H 225.657 4.11125 -2.89803 0
M  V30 2398 H 225.357 3.66174 -4.59554 0
M  V30 2399 H 226.881 4.48012 -4.1487 0
M  V30 2400 H 228.295 2.45636 -5.18011 0
M  V30 2401 H 226.692 1.8637 -5.70426 0
M  V30 2402 H 227.762 0.790662 -4.7841 0
M  V30 2403 N 229.106 1.52395 0.401703 0
M  V30 2404 C 230.331 1.70972 1.17403 0
M  V30 2405 C 230.756 0.421615 1.83314 0
M  V30 2406 O 230.114 -0.621564 1.70312 0
M  V30 2407 C 230.162 2.85151 2.20728 0
M  V30 2408 O 229.266 2.51238 3.27037 0
M  V30 2409 H 228.607 0.568927 0.342372 0
M  V30 2410 H 231.137 1.99131 0.469891 0
M  V30 2411 H 231.147 3.10279 2.64936 0
M  V30 2412 H 229.822 3.78603 1.7214 0
M  V30 2413 H 228.399 2.36808 2.88057 0
M  V30 2414 N 230.584 -0.659388 1.43143 0
M  V30 2415 C 231.809 -1.45221 1.48073 0
M  V30 2416 C 232.234 -1.87845 0.097995 0
M  V30 2417 O 231.592 -1.56985 -0.90694 0
M  V30 2418 C 231.64 -2.66748 2.42647 0
M  V30 2419 O 230.744 -3.65583 1.90848 0
M  V30 2420 H 230.085 -0.435669 0.501088 0
M  V30 2421 H 232.615 -0.807432 1.87994 0
M  V30 2422 H 232.625 -3.14637 2.59745 0
M  V30 2423 H 231.3 -2.35067 3.43098 0
M  V30 2424 H 229.877 -3.24693 1.83381 0
M  V30 2425 N 232.062 -1.29571 -0.897171 0
M  V30 2426 C 232.994 -1.10724 -2.00681 0
M  V30 2427 C 234.007 -0.0540026 -1.6271 0
M  V30 2428 O 235.196 -0.298783 -1.75982 0
M  V30 2429 C 232.296 -0.663912 -3.32333 0
M  V30 2430 C 231.469 -1.79622 -3.98816 0
M  V30 2431 C 230.528 -1.34349 -5.0876 0
M  V30 2432 O 229.554 -2.04864 -5.31055 0
M  V30 2433 N 230.756 -0.215764 -5.80099 0
M  V30 2434 H 233.521 -2.06291 -2.17403 0
M  V30 2435 H 231.082 -1.21544 -1.06951 0
M  V30 2436 H 233.074 -0.344295 -4.03233 0
M  V30 2437 H 231.644 0.199375 -3.11964 0
M  V30 2438 H 230.864 -2.28459 -3.21248 0
M  V30 2439 H 232.152 -2.55535 -4.39976 0
M  V30 2440 H 231.55 0.372091 -5.64475 0
M  V30 2441 H 230.107 0.0444707 -6.51785 0
M  V30 2442 N 233.54 1.10788 -1.12088 0
M  V30 2443 C 234.78 1.84297 -0.883974 0
M  V30 2444 C 235.144 1.83036 0.579797 0
M  V30 2445 O 236.345 2.52061 0.933734 0
M  V30 2446 C 234.616 3.27173 -1.43849 0
M  V30 2447 S 236.175 4.17853 -1.33957 0
M  V30 2448 H 232.993 0.635433 -0.318977 0
M  V30 2449 H 235.595 1.33341 -1.4297 0
M  V30 2450 H 234.299 3.25658 -2.49749 0
M  V30 2451 H 233.83 3.83198 -0.890096 0
M  V30 2452 H 235.845 4.95239 -0.308603 0
M  V30 2453 N 235.018 0.912232 1.28515 0
M  V30 2454 C 236.243 0.559774 1.99703 0
M  V30 2455 C 236.668 -0.851393 1.67729 0
M  V30 2456 O 236.026 -1.56875 0.908834 0
M  V30 2457 C 236.074 0.773874 3.52198 0
M  V30 2458 O 235.178 -0.167842 4.12058 0
M  V30 2459 H 234.519 0.21723 0.627461 0
M  V30 2460 H 237.049 1.22725 1.63706 0
M  V30 2461 H 237.059 0.683386 4.02236 0
M  V30 2462 H 235.734 1.80261 3.74805 0
M  V30 2463 H 234.311 -0.0287509 3.72889 0
M  V30 2464 N 236.496 -1.42363 0.676048 0
M  V30 2465 C 237.444 -2.32596 -0.0131507 0
M  V30 2466 C 238.438 -1.49891 -0.789238 0
M  V30 2467 O 239.644 -1.65955 -0.697061 0
M  V30 2468 H 236.019 -0.751647 -0.0230481 0
M  V30 2469 H 237.99 -2.88421 0.765243 0
M  V30 2470 C 236.739 -3.34479 -0.949702 0
M  V30 2471 H 236.062 -3.98158 -0.361938 0
M  V30 2472 H 237.502 -4.00199 -1.4006 0
M  V30 2473 C 235.961 -2.66838 -2.05667 0
M  V30 2474 O 236.491 -2.50124 -3.14326 0
M  V30 2475 N 234.697 -2.25843 -1.82875 0
M  V30 2476 H 234.244 -2.39637 -0.945085 0
M  V30 2477 H 234.202 -1.80918 -2.5713 0
M  V30 2478 N 237.974 -0.419461 -1.51915 0
M  V30 2479 C 239.202 0.152136 -2.0634 0
M  V30 2480 C 239.617 1.37988 -1.28859 0
M  V30 2481 O 238.974 1.79243 -0.343232 0
M  V30 2482 C 239.025 0.492266 -3.58133 0
M  V30 2483 O 238.746 -0.686736 -4.32684 0
M  V30 2484 C 240.247 1.11648 -4.2901 0
M  V30 2485 H 237.467 0.0158325 -0.670813 0
M  V30 2486 H 240.011 -0.593394 -1.95702 0
M  V30 2487 H 238.166 1.18769 -3.68745 0
M  V30 2488 H 238.58 -0.400341 -5.2297 0
M  V30 2489 H 240.054 1.3046 -5.36362 0
M  V30 2490 H 240.531 2.09251 -3.86148 0
M  V30 2491 H 241.137 0.460958 -4.22795 0
M  V30 2492 N 239.452 1.56882 -0.150215 0
M  V30 2493 C 240.362 2.20494 0.801222 0
M  V30 2494 C 241.378 1.19019 1.26927 0
M  V30 2495 O 242.554 1.51607 1.32579 0
M  V30 2496 C 239.619 2.81659 2.02161 0
M  V30 2497 C 238.68 3.9827 1.60249 0
M  V30 2498 C 237.913 4.56508 2.7647 0
M  V30 2499 O 238.136 4.13627 3.92771 0
M  V30 2500 O 237.07 5.46719 2.51757 0
M  V30 2501 H 240.896 3.02315 0.289717 0
M  V30 2502 H 238.481 1.49202 0.0769684 0
M  V30 2503 H 240.363 3.20522 2.73576 0
M  V30 2504 H 239.038 2.02849 2.52258 0
M  V30 2505 H 237.945 3.64117 0.858477 0
M  V30 2506 H 239.278 4.78609 1.14864 0
M  V30 2507 N 240.93 -0.123565 1.57115 0
M  V30 2508 C 241.877 -1.15177 2.00007 0
M  V30 2509 C 242.847 -1.41403 0.871454 0
M  V30 2510 O 244.032 -1.53346 1.13533 0
M  V30 2511 C 241.172 -2.47436 2.40561 0
M  V30 2512 C 240.285 -2.28184 3.66819 0
M  V30 2513 C 239.42 -3.53641 3.96373 0
M  V30 2514 C 238.459 -3.29528 5.15827 0
M  V30 2515 N 237.596 -4.47175 5.41275 0
M  V30 2516 H 242.436 -0.779008 2.87638 0
M  V30 2517 H 239.973 -0.373166 1.42288 0
M  V30 2518 H 241.931 -3.24584 2.62109 0
M  V30 2519 H 240.561 -2.82614 1.55978 0
M  V30 2520 H 239.613 -1.41976 3.52912 0
M  V30 2521 H 240.925 -2.0634 4.5412 0
M  V30 2522 H 240.079 -4.39209 4.18545 0
M  V30 2523 H 238.818 -3.78512 3.07538 0
M  V30 2524 H 237.823 -2.42349 4.93505 0
M  V30 2525 H 239.048 -3.06031 6.06236 0
M  V30 2526 H 236.994 -4.72175 4.55397 0
M  V30 2527 H 236.911 -4.28419 6.22891 0
M  V30 2528 H 238.179 -5.3389 5.67963 0
M  V30 2529 N 242.408 -1.52605 -0.393616 0
M  V30 2530 C 243.824 -1.41753 -0.733357 0
M  V30 2531 C 244.024 -0.534293 -1.94287 0
M  V30 2532 O 243.08 -0.0059787 -2.52499 0
M  V30 2533 C 244.393 -2.84531 -0.972772 0
M  V30 2534 C 245.941 -2.93978 -1.07453 0
M  V30 2535 C 246.416 -4.37756 -1.3466 0
M  V30 2536 N 247.907 -4.4106 -1.41492 0
M  V30 2537 C 248.642 -5.49387 -1.642 0
M  V30 2538 N 248.138 -6.67806 -1.8441 0
M  V30 2539 N 249.931 -5.36923 -1.66342 0
M  V30 2540 H 242.082 -2.08555 0.402328 0
M  V30 2541 H 244.345 -0.940654 0.117789 0
M  V30 2542 H 244.051 -3.51353 -0.156204 0
M  V30 2543 H 243.925 -3.26508 -1.88871 0
M  V30 2544 H 246.312 -2.27326 -1.88167 0
M  V30 2545 H 246.393 -2.55435 -0.136605 0
M  V30 2546 H 246.037 -5.04972 -0.544581 0
M  V30 2547 H 245.967 -4.73848 -2.2973 0
M  V30 2548 H 248.458 -3.55705 -1.27601 0
M  V30 2549 H 248.771 -7.46141 -2.01231 0
M  V30 2550 H 247.116 -6.70843 -1.81644 0
M  V30 2551 H 250.307 -4.43381 -1.50102 0
M  V30 2552 H 250.48 -6.21416 -1.837 0
M  V30 2553 N 243.887 0.651787 -1.4349 0
M  V30 2554 C 244.817 1.77621 -1.51569 0
M  V30 2555 C 245.798 1.66022 -0.370253 0
M  V30 2556 O 246.983 1.85095 -0.587658 0
M  V30 2557 C 244.113 3.16056 -1.43966 0
M  V30 2558 C 243.067 3.4242 -2.56774 0
M  V30 2559 C 242.393 4.8067 -2.34223 0
M  V30 2560 C 243.693 3.37023 -3.99015 0
M  V30 2561 H 245.387 1.71117 -2.45681 0
M  V30 2562 H 242.933 0.821825 -1.18246 0
M  V30 2563 H 244.886 3.94472 -1.48221 0
M  V30 2564 H 243.61 3.23293 -0.463586 0
M  V30 2565 H 242.269 2.66375 -2.51873 0
M  V30 2566 H 241.917 4.84585 -1.34856 0
M  V30 2567 H 241.617 4.9927 -3.09844 0
M  V30 2568 H 243.141 5.61342 -2.40265 0
M  V30 2569 H 244.555 4.05374 -4.05395 0
M  V30 2570 H 242.952 3.67159 -4.74673 0
M  V30 2571 H 244.022 2.3518 -4.2405 0
M  V30 2572 N 245.365 1.30045 0.890287 0
M  V30 2573 C 246.611 1.19747 1.64415 0
M  V30 2574 C 246.966 -0.246591 1.90813 0
M  V30 2575 O 246.259 -1.174 1.51419 0
M  V30 2576 C 246.453 1.95409 2.99249 0
M  V30 2577 C 246.282 3.47025 2.86013 0
M  V30 2578 C 245.052 4.1638 2.86279 0
M  V30 2579 C 247.25 4.42353 2.62351 0
M  V30 2580 N 245.232 5.54293 2.63879 0
M  V30 2581 C 246.603 5.67792 2.49022 0
M  V30 2582 C 248.658 4.32009 2.47533 0
M  V30 2583 C 247.361 6.8406 2.22383 0
M  V30 2584 C 249.387 5.48038 2.22279 0
M  V30 2585 C 248.749 6.72455 2.09722 0
M  V30 2586 H 244.848 0.493223 0.60684 0
M  V30 2587 H 247.432 1.6399 1.04954 0
M  V30 2588 H 245.603 1.53565 3.56752 0
M  V30 2589 H 247.335 1.77298 3.63796 0
M  V30 2590 H 244.09 3.68164 2.97913 0
M  V30 2591 H 244.514 6.26852 2.55706 0
M  V30 2592 H 249.156 3.36503 2.55979 0
M  V30 2593 H 246.874 7.79612 2.12675 0
M  V30 2594 H 250.46 5.41939 2.11643 0
M  V30 2595 H 249.34 7.60722 1.90453 0
M  V30 2596 N 246.843 -1.10192 1.12674 0
M  V30 2597 C 248.089 -1.82475 0.884915 0
M  V30 2598 C 248.422 -1.85093 -0.58773 0
M  V30 2599 O 247.697 -1.3134 -1.43457 0
M  V30 2600 C 247.98 -3.29018 1.46353 0
M  V30 2601 C 247.833 -3.34718 3.00473 0
M  V30 2602 C 249.152 -4.25473 1.12519 0
M  V30 2603 H 246.271 -0.662492 0.322915 0
M  V30 2604 H 248.913 -1.2913 1.39375 0
M  V30 2605 H 247.063 -3.74576 1.03077 0
M  V30 2606 H 248.735 -2.97622 3.52447 0
M  V30 2607 H 246.978 -2.74541 3.35872 0
M  V30 2608 H 247.649 -4.37918 3.36053 0
M  V30 2609 H 250.125 -3.88161 1.499 0
M  V30 2610 H 249.001 -5.26365 1.55663 0
M  V30 2611 H 249.262 -4.42084 0.0377407 0
M  V30 2612 N 248.321 -0.919034 -1.28029 0
M  V30 2613 C 249.271 -0.382574 -2.24767 0
M  V30 2614 C 250.255 0.508286 -1.52661 0
M  V30 2615 O 251.447 0.347145 -1.73562 0
M  V30 2616 C 248.576 0.371432 -3.41285 0
M  V30 2617 C 247.662 -0.535449 -4.20706 0
M  V30 2618 N 248.053 -1.65141 -4.78082 0
M  V30 2619 C 246.351 -0.336824 -4.44726 0
M  V30 2620 C 247.052 -2.21475 -5.37888 0
M  V30 2621 N 246.028 -1.50537 -5.22341 0
M  V30 2622 H 249.83 -1.23477 -2.66703 0
M  V30 2623 H 247.344 -0.772299 -1.42861 0
M  V30 2624 H 249.341 0.772638 -4.09678 0
M  V30 2625 H 248.001 1.22066 -3.00882 0
M  V30 2626 H 249.012 -2.03392 -4.7629 0
M  V30 2627 H 245.689 0.47246 -4.14818 0
M  V30 2628 H 247.079 -3.15379 -5.93284 0
M  V30 2629 N 249.799 1.42003 -0.683588 0
M  V30 2630 C 251.047 2.01015 -0.209101 0
M  V30 2631 C 251.368 1.54365 1.19149 0
M  V30 2632 O 250.638 0.769083 1.80172 0
M  V30 2633 H 249.218 0.743294 -0.074315 0
M  V30 2634 H 251.88 1.73798 -0.882066 0
M  V30 2635 H 250.976 3.11343 -0.2172 0
M  V30 2636 N 251.277 0.427512 1.51691 0
M  V30 2637 C 252.207 -0.3796 2.30394 0
M  V30 2638 C 253.188 -1.02982 1.35384 0
M  V30 2639 O 254.373 -1.03534 1.643 0
M  V30 2640 C 251.503 -1.48649 3.1388 0
M  V30 2641 C 250.457 -0.960294 4.17088 0
M  V30 2642 C 249.783 -2.16219 4.89033 0
M  V30 2643 C 251.083 -0.00153679 5.223 0
M  V30 2644 H 252.777 0.277164 2.98114 0
M  V30 2645 H 250.323 0.134739 1.43368 0
M  V30 2646 H 252.276 -2.05826 3.67714 0
M  V30 2647 H 251 -2.1714 2.43962 0
M  V30 2648 H 249.659 -0.410806 3.64291 0
M  V30 2649 H 249.307 -2.83307 4.15628 0
M  V30 2650 H 249.007 -1.81654 5.58816 0
M  V30 2651 H 250.531 -2.73968 5.45687 0
M  V30 2652 H 251.945 -0.482687 5.71264 0
M  V30 2653 H 250.342 0.256199 5.99553 0
M  V30 2654 H 251.412 0.938174 4.75738 0
M  V30 2655 N 252.755 -1.56801 0.158532 0
M  V30 2656 C 253.98 -2.01295 -0.499516 0
M  V30 2657 C 254.405 -1.03799 -1.56867 0
M  V30 2658 O 253.763 -0.0155162 -1.81293 0
M  V30 2659 C 253.811 -3.44469 -1.06647 0
M  V30 2660 O 252.915 -3.50012 -2.18095 0
M  V30 2661 H 252.256 -0.652884 -0.12099 0
M  V30 2662 H 254.786 -2.02958 0.258661 0
M  V30 2663 H 254.796 -3.8351 -1.39227 0
M  V30 2664 H 253.471 -4.14932 -0.283581 0
M  V30 2665 H 252.048 -3.22822 -1.86656 0
M  V30 2666 N 254.233 0.115231 -1.57178 0
M  V30 2667 C 255.18 1.14115 -2.00615 0
M  V30 2668 C 256.15 1.40939 -0.878941 0
M  V30 2669 O 257.335 1.52741 -1.14345 0
M  V30 2670 C 254.475 2.46156 -2.4187 0
M  V30 2671 C 253.588 2.26236 -3.68024 0
M  V30 2672 C 252.723 3.51534 -3.98243 0
M  V30 2673 C 251.762 3.26787 -5.17568 0
M  V30 2674 N 250.899 4.44298 -5.43639 0
M  V30 2675 H 255.739 0.763743 -2.88047 0
M  V30 2676 H 253.276 0.365615 -1.42484 0
M  V30 2677 H 255.234 3.23189 -2.63827 0
M  V30 2678 H 253.864 2.81783 -1.57475 0
M  V30 2679 H 252.916 1.40102 -3.5366 0
M  V30 2680 H 254.228 2.03929 -4.55208 0
M  V30 2681 H 253.382 4.36984 -4.20868 0
M  V30 2682 H 252.121 3.76876 -3.09541 0
M  V30 2683 H 251.126 2.39729 -4.94783 0
M  V30 2684 H 252.351 3.02812 -6.0785 0
M  V30 2685 H 250.297 4.69754 -4.57895 0
M  V30 2686 H 250.214 4.25109 -6.25154 0
M  V30 2687 H 251.482 5.3087 -5.70786 0
M  V30 2688 N 255.711 1.52812 0.385517 0
M  V30 2689 C 256.621 1.80766 1.49535 0
M  V30 2690 C 257.637 0.694651 1.59532 0
M  V30 2691 O 258.813 0.982611 1.75803 0
M  V30 2692 C 255.878 1.97381 2.85029 0
M  V30 2693 C 254.939 3.21295 2.84724 0
M  V30 2694 C 254.172 3.37108 4.13756 0
M  V30 2695 O 254.395 2.5765 5.08893 0
M  V30 2696 O 253.329 4.30378 4.20783 0
M  V30 2697 H 257.155 2.75015 1.28842 0
M  V30 2698 H 254.74 1.37946 0.573697 0
M  V30 2699 H 256.622 2.09996 3.65349 0
M  V30 2700 H 255.297 1.06322 3.05741 0
M  V30 2701 H 254.204 3.1412 2.03174 0
M  V30 2702 H 255.537 4.12212 2.68965 0
M  V30 2703 N 257.189 -0.644168 1.43834 0
M  V30 2704 C 258.121 -1.76955 1.45669 0
M  V30 2705 C 259.134 -1.58956 0.351666 0
M  V30 2706 O 260.323 -1.6751 0.616644 0
M  V30 2707 C 257.423 -3.14507 1.26248 0
M  V30 2708 C 256.596 -3.59083 2.49757 0
M  V30 2709 C 255.655 -4.75467 2.25427 0
M  V30 2710 O 254.681 -4.84444 2.98836 0
M  V30 2711 N 255.883 -5.66289 1.27661 0
M  V30 2712 H 258.648 -1.75856 2.42682 0
M  V30 2713 H 256.209 -0.828312 1.39106 0
M  V30 2714 H 258.201 -3.90067 1.0784 0
M  V30 2715 H 256.771 -3.10325 0.376478 0
M  V30 2716 H 255.991 -2.7387 2.8353 0
M  V30 2717 H 257.279 -3.85613 3.31934 0
M  V30 2718 H 256.677 -5.61718 0.670064 0
M  V30 2719 H 255.234 -6.41533 1.15234 0
M  V30 2720 N 258.668 -1.30515 -0.883378 0
M  V30 2721 C 259.631 -1.1701 -1.97082 0
M  V30 2722 C 260.631 -0.10089 -1.60483 0
M  V30 2723 O 261.821 -0.349127 -1.70666 0
M  V30 2724 C 258.953 -0.793045 -3.31547 0
M  V30 2725 H 260.146 -2.13622 -2.10489 0
M  V30 2726 H 257.699 -1.13935 -1.06998 0
M  V30 2727 H 258.434 0.172499 -3.23841 0
M  V30 2728 H 258.219 -1.56576 -3.5948 0
M  V30 2729 H 259.709 -0.722073 -4.1131 0
M  V30 2730 N 260.146 1.09593 -1.13257 0
M  V30 2731 C 261.371 1.8604 -0.916732 0
M  V30 2732 C 261.796 1.80504 0.529146 0
M  V30 2733 O 261.154 1.18127 1.37534 0
M  V30 2734 C 261.202 3.32017 -1.40703 0
M  V30 2735 O 260.306 4.08141 -0.591153 0
M  V30 2736 H 259.647 0.576943 -0.328683 0
M  V30 2737 H 262.177 1.38405 -1.50682 0
M  V30 2738 H 262.187 3.82865 -1.4099 0
M  V30 2739 H 260.862 3.35361 -2.45979 0
M  V30 2740 H 259.439 3.67084 -0.656005 0
M  V30 2741 N 261.624 0.925811 1.2754 0
M  V30 2742 C 262.587 0.428129 2.25166 0
M  V30 2743 C 263.587 -0.452261 1.54309 0
M  V30 2744 O 264.777 -0.253608 1.72344 0
M  V30 2745 C 261.909 -0.384749 3.38722 0
M  V30 2746 H 263.102 1.29066 2.70706 0
M  V30 2747 H 260.655 0.706323 1.3943 0
M  V30 2748 H 261.39 -1.26618 2.98561 0
M  V30 2749 H 261.175 0.246454 3.91325 0
M  V30 2750 H 262.665 -0.723389 4.11287 0
M  V30 2751 N 263.102 -1.41638 0.69111 0
M  V30 2752 C 264.327 -2.06148 0.227583 0
M  V30 2753 C 264.752 -1.51652 -1.11281 0
M  V30 2754 O 264.11 -0.64164 -1.69566 0
M  V30 2755 C 264.158 -3.60095 0.190858 0
M  V30 2756 O 263.262 -4.03845 -0.835664 0
M  V30 2757 H 262.603 -0.654434 0.112306 0
M  V30 2758 H 265.133 -1.81484 0.944714 0
M  V30 2759 H 265.143 -4.07995 0.020207 0
M  V30 2760 H 263.818 -3.99129 1.16915 0
M  V30 2761 H 262.395 -3.67458 -0.63473 0
M  V30 2762 N 264.58 -0.43555 -1.51462 0
M  V30 2763 C 265.828 0.131254 -2.01673 0
M  V30 2764 C 266.149 1.43368 -1.32177 0
M  V30 2765 O 265.419 1.90524 -0.455769 0
M  V30 2766 H 263.999 0.0514954 -0.745223 0
M  V30 2767 H 266.661 -0.577847 -1.86137 0
M  V30 2768 H 265.757 0.308446 -3.10572 0
M  V30 2769 N 266.058 1.56714 -0.166846 0
M  V30 2770 C 267.021 2.16539 0.751232 0
M  V30 2771 C 268.021 1.11228 1.16125 0
M  V30 2772 O 269.211 1.36765 1.07894 0
M  V30 2773 C 266.343 2.74462 2.02196 0
M  V30 2774 H 267.536 2.99013 0.230499 0
M  V30 2775 H 265.089 1.56081 0.0826982 0
M  V30 2776 H 265.824 1.95709 2.58589 0
M  V30 2777 H 265.609 3.51527 1.73698 0
M  V30 2778 H 267.099 3.20489 2.67725 0
M  V30 2779 N 267.536 -0.106894 1.57237 0
M  V30 2780 C 268.468 -1.15646 1.97885 0
M  V30 2781 C 269.481 -1.36981 0.879779 0
M  V30 2782 O 270.67 -1.35841 1.15799 0
M  V30 2783 C 267.77 -2.51425 2.27241 0
M  V30 2784 C 266.943 -2.50529 3.58545 0
M  V30 2785 C 266.002 -3.68145 3.75973 0
M  V30 2786 O 265.028 -3.51176 4.47956 0
M  V30 2787 N 266.23 -4.87177 3.15656 0
M  V30 2788 H 268.995 -0.81059 2.8853 0
M  V30 2789 H 266.556 -0.296024 1.59171 0
M  V30 2790 H 268.548 -3.28689 2.36105 0
M  V30 2791 H 267.118 -2.78147 1.42663 0
M  V30 2792 H 266.338 -1.58894 3.60758 0
M  V30 2793 H 267.626 -2.46997 4.44826 0
M  V30 2794 H 267.024 -5.03868 2.57165 0
M  V30 2795 H 265.581 -5.62075 3.30023 0
M  V30 2796 N 269.014 -1.53014 -0.377408 0
M  V30 2797 C 269.961 -1.78616 -1.46168 0
M  V30 2798 C 270.931 -0.629917 -1.53692 0
M  V30 2799 O 272.116 -0.870861 -1.69766 0
M  V30 2800 C 269.256 -1.97123 -2.8326 0
M  V30 2801 C 268.369 -3.24831 -2.84796 0
M  V30 2802 C 267.504 -3.33591 -4.13389 0
M  V30 2803 C 266.543 -4.55377 -4.09021 0
M  V30 2804 N 265.68 -4.61355 -5.29241 0
M  V30 2805 H 270.52 -2.71142 -1.23637 0
M  V30 2806 H 268.057 -1.34326 -0.599577 0
M  V30 2807 H 270.015 -2.05839 -3.62886 0
M  V30 2808 H 268.645 -1.07946 -3.04216 0
M  V30 2809 H 267.697 -3.25128 -1.97474 0
M  V30 2810 H 269.009 -4.14523 -2.77439 0
M  V30 2811 H 268.163 -3.41554 -5.01424 0
M  V30 2812 H 266.902 -2.41894 -4.23484 0
M  V30 2813 H 265.907 -4.47527 -3.19373 0
M  V30 2814 H 267.132 -5.48402 -4.00539 0
M  V30 2815 H 265.078 -3.72554 -5.39944 0
M  V30 2816 H 264.995 -5.44935 -5.24006 0
M  V30 2817 H 266.263 -4.73586 -6.19141 0
M  V30 2818 N 270.492 0.636531 -1.44174 0
M  V30 2819 C 271.74 1.39343 -1.46383 0
M  V30 2820 C 272.061 1.94766 -0.0955715 0
M  V30 2821 O 271.331 1.75452 0.871395 0
M  V30 2822 H 269.911 0.517199 -0.538994 0
M  V30 2823 H 272.573 0.74957 -1.7991 0
M  V30 2824 H 271.669 2.22746 -2.18611 0
M  V30 2825 N 271.97 1.30982 0.876444 0
M  V30 2826 C 273.386 1.09498 1.16113 0
M  V30 2827 C 273.586 -0.13875 2.01022 0
M  V30 2828 O 272.642 -0.829935 2.38471 0
M  V30 2829 C 273.955 2.36308 1.85954 0
M  V30 2830 C 275.503 2.41856 1.98683 0
M  V30 2831 C 275.978 3.6853 2.71937 0
M  V30 2832 N 277.469 3.69387 2.79477 0
M  V30 2833 C 278.204 4.64096 3.36753 0
M  V30 2834 N 277.7 5.69155 3.95012 0
M  V30 2835 N 279.493 4.51626 3.3465 0
M  V30 2836 H 271.644 2.10118 0.310494 0
M  V30 2837 H 273.907 0.926634 0.200131 0
M  V30 2838 H 273.613 3.26388 1.31011 0
M  V30 2839 H 273.487 2.4561 2.86278 0
M  V30 2840 H 275.874 1.52249 2.52793 0
M  V30 2841 H 275.955 2.36523 0.9742 0
M  V30 2842 H 275.599 4.58499 2.18496 0
M  V30 2843 H 275.529 3.71127 3.73593 0
M  V30 2844 H 278.02 2.93438 2.38123 0
M  V30 2845 H 278.333 6.3751 4.36808 0
M  V30 2846 H 276.678 5.72937 3.93406 0
M  V30 2847 H 279.869 3.68728 2.8837 0
M  V30 2848 H 280.042 5.25614 3.7899 0
M  V30 2849 N 273.449 -1.08991 1.13837 0
M  V30 2850 C 274.677 -1.85011 0.926202 0
M  V30 2851 C 275.092 -1.8135 -0.525127 0
M  V30 2852 O 274.449 -1.21287 -1.36366 0
M  V30 2853 C 274.5 -3.32802 1.41155 0
M  V30 2854 O 274.221 -3.36444 2.80601 0
M  V30 2855 C 275.722 -4.25649 1.23847 0
M  V30 2856 H 272.942 -0.584249 0.32999 0
M  V30 2857 H 275.486 -1.37688 1.51202 0
M  V30 2858 H 273.641 -3.77536 0.868631 0
M  V30 2859 H 274.055 -4.28657 3.02248 0
M  V30 2860 H 275.529 -5.27485 1.62675 0
M  V30 2861 H 276.006 -4.38828 0.18065 0
M  V30 2862 H 276.612 -3.86735 1.76964 0
M  V30 2863 N 274.927 -0.932562 -1.27047 0
M  V30 2864 C 275.859 -0.392734 -2.2581 0
M  V30 2865 C 276.872 0.479241 -1.55586 0
M  V30 2866 O 278.061 0.291078 -1.76111 0
M  V30 2867 C 275.161 0.455456 -3.35826 0
M  V30 2868 C 274.334 -0.398355 -4.35582 0
M  V30 2869 C 273.393 0.387985 -5.24768 0
M  V30 2870 O 272.419 -0.206003 -5.68827 0
M  V30 2871 N 273.621 1.68664 -5.55457 0
M  V30 2872 H 276.386 -1.24173 -2.72766 0
M  V30 2873 H 273.947 -0.800511 -1.40725 0
M  V30 2874 H 275.939 0.988692 -3.92437 0
M  V30 2875 H 274.509 1.20522 -2.88432 0
M  V30 2876 H 273.729 -1.11286 -3.78165 0
M  V30 2877 H 275.017 -0.981889 -4.99236 0
M  V30 2878 H 274.415 2.19147 -5.21528 0
M  V30 2879 H 272.972 2.1663 -6.14748 0
M  V30 2880 N 276.405 1.4127 -0.698611 0
M  V30 2881 C 277.653 2.00782 -0.230409 0
M  V30 2882 C 277.974 1.5562 1.17505 0
M  V30 2883 O 277.244 0.78815 1.79346 0
M  V30 2884 H 275.824 0.742464 -0.0821944 0
M  V30 2885 H 278.486 1.72852 -0.90045 0
M  V30 2886 H 277.582 3.11095 -0.25021 0
M  V30 2887 N 277.883 0.443576 1.51229 0
M  V30 2888 C 279.131 -0.120557 2.0174 0
M  V30 2889 C 279.452 -1.42665 1.32935 0
M  V30 2890 O 278.722 -1.9028 0.465866 0
M  V30 2891 H 277.302 -0.0475426 0.745486 0
M  V30 2892 H 279.964 0.587711 1.85828 0
M  V30 2893 H 279.06 -0.291972 3.10731 0
M  V30 2894 N 279.361 -1.56624 0.175154 0
M  V30 2895 C 280.586 -2.01813 -0.478137 0
M  V30 2896 C 281.011 -1.05457 -1.55757 0
M  V30 2897 O 280.369 -0.0347439 -1.81267 0
M  V30 2898 C 280.417 -3.45581 -1.02987 0
M  V30 2899 O 279.521 -3.52305 -2.14371 0
M  V30 2900 H 278.862 -0.65413 -0.114059 0
M  V30 2901 H 281.392 -2.02673 0.280173 0
M  V30 2902 H 281.402 -3.84965 -1.35151 0
M  V30 2903 H 280.077 -4.1521 -0.239556 0
M  V30 2904 H 278.654 -3.24783 -1.83222 0
M  V30 2905 N 280.839 0.0985539 -1.57292 0
M  V30 2906 C 281.771 1.14595 -1.98496 0
M  V30 2907 C 282.784 1.36512 -0.887031 0
M  V30 2908 O 283.973 1.35225 -1.16518 0
M  V30 2909 C 281.073 2.50216 -2.28572 0
M  V30 2910 C 280.246 2.48624 -3.59868 0
M  V30 2911 C 279.305 3.66146 -3.7792 0
M  V30 2912 O 278.331 3.48795 -4.49812 0
M  V30 2913 N 279.533 4.85496 -3.18235 0
M  V30 2914 H 282.298 0.795277 -2.88956 0
M  V30 2915 H 279.859 0.287579 -1.59325 0
M  V30 2916 H 281.851 3.27432 -2.37845 0
M  V30 2917 H 280.421 2.77387 -1.44136 0
M  V30 2918 H 279.641 1.56978 -3.61596 0
M  V30 2919 H 280.929 2.44635 -4.46129 0
M  V30 2920 H 280.327 5.02497 -2.59833 0
M  V30 2921 H 278.884 5.60317 -3.32999 0
M  V30 2922 N 282.317 1.53212 0.369288 0
M  V30 2923 C 283.542 1.73423 1.1375 0
M  V30 2924 C 283.967 0.460404 1.82378 0
M  V30 2925 O 283.325 -0.585298 1.71592 0
M  V30 2926 C 283.373 2.89769 2.1463 0
M  V30 2927 O 282.477 2.58119 3.21634 0
M  V30 2928 H 281.818 0.576061 0.330227 0
M  V30 2929 H 284.348 2.00083 0.427547 0
M  V30 2930 H 284.358 3.15829 2.58294 0
M  V30 2931 H 283.033 3.8217 1.64071 0
M  V30 2932 H 281.61 2.42864 2.82969 0
M  V30 2933 N 283.795 -0.628877 1.44509 0
M  V30 2934 C 285.02 -1.42048 1.5112 0
M  V30 2935 C 285.445 -1.87594 0.137818 0
M  V30 2936 O 284.803 -1.58873 -0.873437 0
M  V30 2937 C 284.851 -2.61541 2.48251 0
M  V30 2938 O 283.955 -3.61453 1.98559 0
M  V30 2939 H 283.296 -0.424942 0.510216 0
M  V30 2940 H 285.826 -0.767374 1.89664 0
M  V30 2941 H 285.836 -3.09057 2.66361 0
M  V30 2942 H 284.511 -2.27736 3.48007 0
M  V30 2943 H 283.088 -3.20731 1.90227 0
M  V30 2944 N 285.273 -1.31445 -0.869486 0
M  V30 2945 C 286.503 -1.23942 -1.65294 0
M  V30 2946 C 286.911 0.197561 -1.88166 0
M  V30 2947 O 286.254 1.14019 -1.44033 0
M  V30 2948 C 286.316 -1.91385 -3.04322 0
M  V30 2949 C 285.98 -3.40726 -3.04557 0
M  V30 2950 C 286.977 -4.36464 -2.82481 0
M  V30 2951 C 284.662 -3.82425 -3.25663 0
M  V30 2952 C 286.656 -5.71876 -2.8149 0
M  V30 2953 C 284.343 -5.1795 -3.243 0
M  V30 2954 C 285.341 -6.12486 -3.02241 0
M  V30 2955 O 285.029 -7.45534 -3.00724 0
M  V30 2956 H 284.761 -0.429459 -0.522054 0
M  V30 2957 H 287.315 -1.73873 -1.0935 0
M  V30 2958 H 285.545 -1.36004 -3.61994 0
M  V30 2959 H 287.234 -1.77791 -3.64891 0
M  V30 2960 H 288 -4.05576 -2.65956 0
M  V30 2961 H 283.879 -3.09274 -3.41863 0
M  V30 2962 H 287.423 -6.45638 -2.64191 0
M  V30 2963 H 283.32 -5.48473 -3.40365 0
M  V30 2964 H 284.088 -7.54713 -3.16782 0
M  V30 2965 N 286.751 1.08385 -1.14413 0
M  V30 2966 C 287.997 1.81044 -0.913834 0
M  V30 2967 C 288.33 1.86004 0.558209 0
M  V30 2968 O 287.605 1.33606 1.4135 0
M  V30 2969 C 287.888 3.26648 -1.51569 0
M  V30 2970 C 287.741 3.29895 -3.0576 0
M  V30 2971 C 289.06 4.23629 -1.19273 0
M  V30 2972 H 286.179 0.65727 -0.333414 0
M  V30 2973 H 288.821 1.26896 -1.41412 0
M  V30 2974 H 286.971 3.72889 -1.09023 0
M  V30 2975 H 288.643 2.91977 -3.57137 0
M  V30 2976 H 286.886 2.69163 -3.40197 0
M  V30 2977 H 287.557 4.32516 -3.42977 0
M  V30 2978 H 290.033 3.85727 -1.56057 0
M  V30 2979 H 288.909 5.23822 -1.64017 0
M  V30 2980 H 289.17 4.41968 -0.108068 0
M  V30 2981 N 288.23 0.939286 1.26551 0
M  V30 2982 C 289.16 0.465044 2.28822 0
M  V30 2983 C 290.141 -0.480692 1.63167 0
M  V30 2984 O 291.326 -0.382955 1.90387 0
M  V30 2985 C 288.456 -0.27234 3.46231 0
M  V30 2986 C 287.41 0.58666 4.2396 0
M  V30 2987 C 286.736 -0.280573 5.33963 0
M  V30 2988 C 288.036 1.85704 4.88171 0
M  V30 2989 H 289.73 1.31979 2.68741 0
M  V30 2990 H 287.276 0.636061 1.29191 0
M  V30 2991 H 289.229 -0.615133 4.16886 0
M  V30 2992 H 287.953 -1.16121 3.0526 0
M  V30 2993 H 286.612 0.91232 3.55067 0
M  V30 2994 H 286.26 -1.16874 4.89234 0
M  V30 2995 H 285.96 0.29076 5.8688 0
M  V30 2996 H 287.484 -0.618678 6.07458 0
M  V30 2997 H 288.898 1.58161 5.51052 0
M  V30 2998 H 287.295 2.37279 5.51197 0
M  V30 2999 H 288.365 2.56957 4.11219 0
M  V30 3000 N 289.708 -1.40897 0.706093 0
M  V30 3001 C 290.64 -2.29199 0.00815776 0
M  V30 3002 C 291.653 -1.45336 -0.733582 0
M  V30 3003 O 292.842 -1.68727 -0.582537 0
M  V30 3004 C 289.942 -3.23417 -1.01265 0
M  V30 3005 C 289.115 -4.36089 -0.338387 0
M  V30 3006 C 288.174 -5.10811 -1.26326 0
M  V30 3007 O 287.2 -5.64215 -0.751651 0
M  V30 3008 N 288.402 -5.19269 -2.595 0
M  V30 3009 H 291.167 -2.89738 0.766297 0
M  V30 3010 H 288.728 -1.52164 0.55296 0
M  V30 3011 H 290.72 -3.70276 -1.63334 0
M  V30 3012 H 289.29 -2.64112 -1.67223 0
M  V30 3013 H 288.51 -3.91479 0.462352 0
M  V30 3014 H 289.798 -5.08634 0.130031 0
M  V30 3015 H 289.196 -4.77347 -3.03573 0
M  V30 3016 H 287.753 -5.69667 -3.16737 0
M  V30 3017 N 291.186 -0.45159 -1.50991 0
M  V30 3018 C 292.414 0.108334 -2.06616 0
M  V30 3019 C 292.829 1.35224 -1.31757 0
M  V30 3020 O 292.186 1.78475 -0.381174 0
M  V30 3021 C 292.237 0.41619 -3.59096 0
M  V30 3022 O 291.958 -0.778361 -4.3113 0
M  V30 3023 C 293.459 1.02523 -4.31282 0
M  V30 3024 H 290.679 0.00159995 -0.670998 0
M  V30 3025 H 293.223 -0.634771 -1.94399 0
M  V30 3026 H 291.378 1.10921 -3.71181 0
M  V30 3027 H 291.792 -0.511181 -5.22003 0
M  V30 3028 H 293.266 1.19053 -5.39009 0
M  V30 3029 H 293.743 2.01013 -3.905 0
M  V30 3030 H 294.349 0.371173 -4.23677 0
M  V30 3031 N 292.664 1.56529 -0.183458 0
M  V30 3032 C 293.574 2.22144 0.754272 0
M  V30 3033 C 294.59 1.21684 1.24374 0
M  V30 3034 O 295.766 1.54385 1.29333 0
M  V30 3035 C 292.831 2.85884 1.96141 0
M  V30 3036 C 291.892 4.01579 1.51765 0
M  V30 3037 C 291.125 4.6227 2.66725 0
M  V30 3038 O 291.348 4.21865 3.83909 0
M  V30 3039 O 290.282 5.51936 2.40104 0
M  V30 3040 H 294.108 3.02861 0.225527 0
M  V30 3041 H 291.693 1.49331 0.0453032 0
M  V30 3042 H 293.575 3.26253 2.66715 0
M  V30 3043 H 292.25 2.08154 2.47899 0
M  V30 3044 H 291.157 3.65856 0.781049 0
M  V30 3045 H 292.49 4.80938 1.04686 0
M  V30 3046 N 294.142 -0.090211 1.57342 0
M  V30 3047 C 295.052 -1.12735 2.05738 0
M  V30 3048 C 296.068 -1.43557 0.983231 0
M  V30 3049 O 297.244 -1.54101 1.29672 0
M  V30 3050 C 294.309 -2.42659 2.47624 0
M  V30 3051 C 293.37 -2.18975 3.69254 0
M  V30 3052 C 292.603 -3.42704 4.09133 0
M  V30 3053 O 292.826 -4.51127 3.49057 0
M  V30 3054 O 291.76 -3.32003 5.02053 0
M  V30 3055 H 295.586 -0.746279 2.94388 0
M  V30 3056 H 293.171 -0.303064 1.46294 0
M  V30 3057 H 295.053 -3.19155 2.7517 0
M  V30 3058 H 293.728 -2.80182 1.62109 0
M  V30 3059 H 292.635 -1.40244 3.46818 0
M  V30 3060 H 293.968 -1.86342 4.55563 0
M  V30 3061 N 295.62 -1.53406 -0.361157 0
M  V30 3062 C 296.55 -1.83136 -1.44857 0
M  V30 3063 C 297.531 -0.685174 -1.5569 0
M  V30 3064 O 298.716 -0.93544 -1.70186 0
M  V30 3065 C 295.846 -2.02522 -2.82138 0
M  V30 3066 C 294.8 -3.18302 -2.86126 0
M  V30 3067 C 294.126 -3.22989 -4.26125 0
M  V30 3068 C 295.426 -4.56796 -2.53248 0
M  V30 3069 H 297.12 -2.74201 -1.20226 0
M  V30 3070 H 294.666 -1.31938 -0.576922 0
M  V30 3071 H 296.619 -2.21904 -3.58241 0
M  V30 3072 H 295.343 -1.08172 -3.08166 0
M  V30 3073 H 294.002 -2.98747 -2.12475 0
M  V30 3074 H 293.65 -2.26267 -4.49235 0
M  V30 3075 H 293.35 -4.00781 -4.29708 0
M  V30 3076 H 294.874 -3.44559 -5.04094 0
M  V30 3077 H 296.288 -4.7631 -3.19064 0
M  V30 3078 H 294.685 -5.36862 -2.68141 0
M  V30 3079 H 295.755 -4.61606 -1.48484 0
M  V30 3080 N 297.098 0.621204 -1.44841 0
M  V30 3081 C 298.344 1.3826 -1.48365 0
M  V30 3082 C 298.677 1.93831 -0.119624 0
M  V30 3083 O 297.952 1.74251 0.864111 0
M  V30 3084 C 298.235 2.54058 -2.55199 0
M  V30 3085 C 298.088 2.03772 -4.00995 0
M  V30 3086 C 299.407 3.56225 -2.58442 0
M  V30 3087 H 296.526 0.501374 -0.540179 0
M  V30 3088 H 299.168 0.7015 -1.76576 0
M  V30 3089 H 297.318 3.12162 -2.31274 0
M  V30 3090 H 298.99 1.50423 -4.36086 0
M  V30 3091 H 297.233 1.34876 -4.12299 0
M  V30 3092 H 297.904 2.87185 -4.71411 0
M  V30 3093 H 300.38 3.07939 -2.79844 0
M  V30 3094 H 299.256 4.34756 -3.3508 0
M  V30 3095 H 299.517 4.10949 -1.63013 0
M  V30 3096 N 298.576 1.31904 0.862503 0
M  V30 3097 C 299.822 1.22197 1.61851 0
M  V30 3098 C 300.155 -0.217641 1.92977 0
M  V30 3099 O 299.43 -1.15264 1.56666 0
M  V30 3100 C 299.713 2.07378 2.94391 0
M  V30 3101 C 299.566 3.59678 2.70096 0
M  V30 3102 C 300.885 1.92891 3.95577 0
M  V30 3103 H 298.004 0.445255 0.587296 0
M  V30 3104 H 300.646 1.6177 0.99651 0
M  V30 3105 H 298.796 1.73758 3.47477 0
M  V30 3106 H 300.468 4.03472 2.23625 0
M  V30 3107 H 298.711 3.82735 2.04197 0
M  V30 3108 H 299.382 4.14595 3.64438 0
M  V30 3109 H 301.858 2.22327 3.51724 0
M  V30 3110 H 300.734 2.54781 4.86187 0
M  V30 3111 H 300.995 0.894315 4.3296 0
M  V30 3112 N 300.054 -1.07777 1.14986 0
M  V30 3113 C 301.002 -2.16964 0.838406 0
M  V30 3114 C 301.996 -1.68372 -0.186386 0
M  V30 3115 O 303.202 -1.79951 -0.0418465 0
M  V30 3116 H 299.577 -0.708006 0.253439 0
M  V30 3117 H 301.548 -2.40454 1.76704 0
M  V30 3118 C 300.297 -3.4604 0.339335 0
M  V30 3119 H 299.62 -3.83813 1.11927 0
M  V30 3120 H 301.06 -4.23698 0.160021 0
M  V30 3121 C 299.519 -3.23569 -0.938325 0
M  V30 3122 O 300.049 -3.47752 -2.01077 0
M  V30 3123 N 298.255 -2.77079 -0.876117 0
M  V30 3124 H 297.802 -2.576 -0.00322037 0
M  V30 3125 H 297.76 -2.62422 -1.73153 0
M  V30 3126 N 301.532 -0.945985 -1.26051 0
M  V30 3127 C 302.479 -0.45809 -2.26208 0
M  V30 3128 C 303.449 0.484816 -1.58867 0
M  V30 3129 O 304.634 0.399969 -1.86561 0
M  V30 3130 C 301.774 0.266131 -3.44072 0
M  V30 3131 C 300.887 -0.713005 -4.26075 0
M  V30 3132 C 300.022 0.0329013 -5.3119 0
M  V30 3133 C 299.061 -0.93774 -6.04874 0
M  V30 3134 N 298.198 -0.223274 -7.01745 0
M  V30 3135 H 303.038 -1.3171 -2.67313 0
M  V30 3136 H 300.575 -0.66069 -1.31428 0
M  V30 3137 H 302.533 0.702514 -4.11243 0
M  V30 3138 H 301.163 1.08925 -3.03867 0
M  V30 3139 H 300.215 -1.26789 -3.58648 0
M  V30 3140 H 301.527 -1.45406 -4.77136 0
M  V30 3141 H 300.681 0.528335 -6.04395 0
M  V30 3142 H 299.42 0.806801 -4.8098 0
M  V30 3143 H 298.425 -1.44425 -5.30492 0
M  V30 3144 H 299.65 -1.71172 -6.57173 0
M  V30 3145 H 297.596 0.532046 -6.53839 0
M  V30 3146 H 297.513 -0.90357 -7.50581 0
M  V30 3147 H 298.781 0.250907 -7.79096 0
M  V30 3148 N 303.011 1.40521 -0.713556 0
M  V30 3149 C 303.943 2.29191 -0.0203126 0
M  V30 3150 C 304.956 1.45723 0.725864 0
M  V30 3151 O 306.145 1.69033 0.573581 0
M  V30 3152 C 303.245 3.2395 0.995486 0
M  V30 3153 C 302.418 4.36262 0.315256 0
M  V30 3154 C 301.477 5.11474 1.23616 0
M  V30 3155 O 300.503 5.64606 0.721719 0
M  V30 3156 N 301.705 5.20638 2.56743 0
M  V30 3157 H 304.47 2.89327 -0.781652 0
M  V30 3158 H 302.031 1.51869 -0.561022 0
M  V30 3159 H 304.023 3.71137 1.61368 0
M  V30 3160 H 302.593 2.64995 1.6582 0
M  V30 3161 H 301.813 3.91228 -0.483106 0
M  V30 3162 H 303.101 5.08558 -0.157004 0
M  V30 3163 H 302.499 4.7895 3.01037 0
M  V30 3164 H 301.056 5.71339 3.13712 0
M  V30 3165 N 304.489 0.459591 1.5075 0
M  V30 3166 C 305.421 -0.37665 2.26084 0
M  V30 3167 C 306.434 -0.967109 1.30961 0
M  V30 3168 O 307.623 -0.857468 1.56556 0
M  V30 3169 C 304.723 -1.54112 3.01832 0
M  V30 3170 C 303.896 -1.06553 4.24223 0
M  V30 3171 C 302.955 -2.1027 4.82362 0
M  V30 3172 O 301.981 -1.68798 5.43595 0
M  V30 3173 N 303.183 -3.42974 4.68347 0
M  V30 3174 H 305.948 0.269124 2.98489 0
M  V30 3175 H 303.509 0.28972 1.59287 0
M  V30 3176 H 305.501 -2.23165 3.37608 0
M  V30 3177 H 304.071 -2.0918 2.32298 0
M  V30 3178 H 303.291 -0.201274 3.93686 0
M  V30 3179 H 304.579 -0.725516 5.03601 0
M  V30 3180 H 303.977 -3.79385 4.19623 0
M  V30 3181 H 302.534 -4.07858 5.08424 0
M  V30 3182 N 305.967 -1.56429 0.191757 0
M  V30 3183 C 307.383 -1.58754 -0.164137 0
M  V30 3184 C 307.583 -1.20782 -1.61288 0
M  V30 3185 O 306.639 -0.928999 -2.34789 0
M  V30 3186 C 307.952 -3.00396 0.135195 0
M  V30 3187 C 309.5 -3.1291 0.0750351 0
M  V30 3188 C 309.975 -4.56679 0.347632 0
M  V30 3189 N 311.466 -4.62252 0.296131 0
M  V30 3190 C 312.201 -5.71379 0.480948 0
M  V30 3191 N 311.697 -6.88986 0.725933 0
M  V30 3192 N 313.49 -5.60563 0.415435 0
M  V30 3193 H 305.641 -1.79393 1.13718 0
M  V30 3194 H 307.904 -0.832414 0.453643 0
M  V30 3195 H 307.61 -3.32726 1.13958 0
M  V30 3196 H 307.484 -3.72963 -0.563773 0
M  V30 3197 H 309.871 -2.80394 -0.919948 0
M  V30 3198 H 309.952 -2.42736 0.807029 0
M  V30 3199 H 309.596 -4.89907 1.33992 0
M  V30 3200 H 309.526 -5.25039 -0.405212 0
M  V30 3201 H 312.017 -3.7773 0.113259 0
M  V30 3202 H 312.33 -7.68046 0.855857 0
M  V30 3203 H 310.675 -6.90801 0.762788 0
M  V30 3204 H 313.866 -4.67561 0.224486 0
M  V30 3205 H 314.039 -6.45551 0.562889 0
M  V30 3206 N 307.445 0.0818655 -1.57387 0
M  V30 3207 C 308.355 1.11642 -2.06333 0
M  V30 3208 C 309.371 1.43033 -0.99083 0
M  V30 3209 O 310.547 1.53411 -1.30488 0
M  V30 3210 C 307.612 2.41342 -2.48907 0
M  V30 3211 C 306.673 2.17014 -3.7041 0
M  V30 3212 C 305.906 3.4053 -4.10944 0
M  V30 3213 O 306.129 4.4927 -3.51444 0
M  V30 3214 O 305.063 3.29336 -5.03807 0
M  V30 3215 H 308.889 0.730657 -2.9478 0
M  V30 3216 H 306.474 0.295301 -1.46452 0
M  V30 3217 H 308.356 3.17691 -2.76858 0
M  V30 3218 H 307.031 2.79319 -1.63593 0
M  V30 3219 H 305.938 1.38403 -3.47556 0
M  V30 3220 H 307.271 1.83923 -4.56545 0
M  V30 3221 N 308.923 1.53595 0.353017 0
M  V30 3222 C 310.151 1.74311 1.1146 0
M  V30 3223 C 310.566 0.477854 1.82653 0
M  V30 3224 O 309.923 -0.549977 1.74016 0
M  V30 3225 C 309.974 2.91694 2.13534 0
M  V30 3226 O 309.695 4.13325 1.45238 0
M  V30 3227 C 311.196 3.24384 3.02142 0
M  V30 3228 H 308.416 0.582669 0.332773 0
M  V30 3229 H 310.96 2.00386 0.408107 0
M  V30 3230 H 309.115 2.67977 2.79763 0
M  V30 3231 H 309.529 4.79148 2.13349 0
M  V30 3232 H 311.003 4.09893 3.69718 0
M  V30 3233 H 311.48 2.40282 3.67643 0
M  V30 3234 H 312.086 3.50073 2.41514 0
M  V30 3235 N 310.401 -0.613514 1.45168 0
M  V30 3236 C 311.348 -1.72456 1.53387 0
M  V30 3237 C 312.318 -1.6169 0.380191 0
M  V30 3238 O 313.503 -1.81356 0.592836 0
M  V30 3239 C 310.643 -3.10753 1.50088 0
M  V30 3240 C 309.756 -3.32368 2.75963 0
M  V30 3241 C 308.891 -4.60737 2.64376 0
M  V30 3242 C 307.93 -4.7559 3.85332 0
M  V30 3243 N 307.067 -5.95253 3.72315 0
M  V30 3244 H 311.907 -1.64768 2.48305 0
M  V30 3245 H 309.444 -0.803503 1.23216 0
M  V30 3246 H 311.402 -3.90758 1.46164 0
M  V30 3247 H 310.032 -3.17413 0.587243 0
M  V30 3248 H 309.084 -2.4618 2.89999 0
M  V30 3249 H 310.396 -3.39218 3.65695 0
M  V30 3250 H 309.55 -5.48928 2.58385 0
M  V30 3251 H 308.289 -4.56275 1.72233 0
M  V30 3252 H 307.294 -3.85824 3.91688 0
M  V30 3253 H 308.519 -4.81854 4.78533 0
M  V30 3254 H 306.465 -5.91847 2.82937 0
M  V30 3255 H 306.382 -6.03236 4.55677 0
M  V30 3256 H 307.65 -6.85958 3.70246 0
M  V30 3257 N 311.879 -1.3236 -0.855495 0
M  V30 3258 C 312.827 -1.2118 -1.9854 0
M  V30 3259 C 313.821 -0.116788 -1.68997 0
M  V30 3260 O 315.027 -0.279657 -1.77814 0
M  V30 3261 H 311.402 -0.375608 -0.651477 0
M  V30 3262 H 313.373 -2.16743 -2.05098 0
M  V30 3263 C 312.122 -0.950849 -3.34446 0
M  V30 3264 H 311.445 -1.78563 -3.57708 0
M  V30 3265 H 312.885 -0.912863 -4.14057 0
M  V30 3266 C 311.344 0.346404 -3.35114 0
M  V30 3267 O 311.874 1.35855 -3.7803 0
M  V30 3268 N 310.08 0.36808 -2.88259 0
M  V30 3269 H 309.627 -0.456102 -2.5353 0
M  V30 3270 H 309.585 1.23591 -2.89089 0
M  V30 3271 N 313.357 1.07166 -1.15556 0
M  V30 3272 C 314.582 1.84053 -0.955988 0
M  V30 3273 C 315.007 1.81586 0.490739 0
M  V30 3274 O 314.365 1.21018 1.34997 0
M  V30 3275 C 314.413 3.28957 -1.47714 0
M  V30 3276 O 313.517 4.06795 -0.677593 0
M  V30 3277 H 312.858 0.569842 -0.340847 0
M  V30 3278 H 315.388 1.35178 -1.53584 0
M  V30 3279 H 315.398 3.79788 -1.4908 0
M  V30 3280 H 314.073 3.30068 -2.53037 0
M  V30 3281 H 312.65 3.6561 -0.733721 0
M  V30 3282 N 314.835 0.952656 1.25548 0
M  V30 3283 C 315.785 0.442033 2.23674 0
M  V30 3284 C 316.769 -0.467632 1.53955 0
M  V30 3285 O 317.961 -0.301006 1.74422 0
M  V30 3286 C 315.09 -0.280816 3.4215 0
M  V30 3287 C 314.176 0.646803 4.19139 0
M  V30 3288 N 314.567 1.77759 4.73535 0
M  V30 3289 C 312.865 0.454617 4.43677 0
M  V30 3290 C 313.566 2.35658 5.31827 0
M  V30 3291 N 312.542 1.64333 5.18166 0
M  V30 3292 H 316.344 1.30505 2.63336 0
M  V30 3293 H 313.858 0.809904 1.40763 0
M  V30 3294 H 315.855 -0.663747 4.11582 0
M  V30 3295 H 314.515 -1.14046 3.04012 0
M  V30 3296 H 315.526 2.15949 4.7073 0
M  V30 3297 H 312.203 -0.362312 4.15925 0
M  V30 3298 H 313.593 3.30998 5.84713 0
M  V30 3299 N 316.313 -1.40141 0.720998 0
M  V30 3300 C 317.245 -2.29177 0.0324669 0
M  V30 3301 C 318.258 -1.46105 -0.718126 0
M  V30 3302 O 319.447 -1.69335 -0.564608 0
M  V30 3303 C 316.547 -3.24473 -0.978292 0
M  V30 3304 C 315.72 -4.36423 -0.292115 0
M  V30 3305 C 314.779 -5.12122 -1.20901 0
M  V30 3306 O 313.805 -5.64981 -0.691766 0
M  V30 3307 N 315.007 -5.21992 -2.53978 0
M  V30 3308 H 317.772 -2.88909 0.796984 0
M  V30 3309 H 315.333 -1.51569 0.569068 0
M  V30 3310 H 317.325 -3.71987 -1.59398 0
M  V30 3311 H 315.895 -2.65871 -1.64413 0
M  V30 3312 H 315.115 -3.90967 0.503847 0
M  V30 3313 H 316.403 -5.08467 0.183971 0
M  V30 3314 H 315.801 -4.8054 -2.98493 0
M  V30 3315 H 314.358 -5.72995 -3.10677 0
M  V30 3316 N 317.792 -0.46758 -1.50504 0
M  V30 3317 C 318.74 0.342482 -2.30065 0
M  V30 3318 C 319.734 0.993596 -1.37201 0
M  V30 3319 O 320.94 0.925102 -1.54408 0
M  V30 3320 H 317.315 0.129283 -0.740803 0
M  V30 3321 H 319.286 -0.34899 -2.96352 0
M  V30 3322 C 318.035 1.4139 -3.17654 0
M  V30 3323 H 317.358 0.922264 -3.89017 0
M  V30 3324 H 318.798 1.95335 -3.76325 0
M  V30 3325 C 317.257 2.4139 -2.35016 0
M  V30 3326 O 317.787 3.46586 -2.03079 0
M  V30 3327 N 315.993 2.13021 -1.97662 0
M  V30 3328 H 315.54 1.27499 -2.23834 0
M  V30 3329 H 315.498 2.80164 -1.42673 0
M  V30 3330 N 319.27 1.56325 -0.20005 0
M  V30 3331 C 320.217 2.1932 0.718833 0
M  V30 3332 C 321.187 1.14198 1.20615 0
M  V30 3333 O 322.372 1.42469 1.26914 0
M  V30 3334 C 319.512 2.86041 1.93066 0
M  V30 3335 C 318.625 4.05702 1.48425 0
M  V30 3336 C 317.76 4.60266 2.65196 0
M  V30 3337 C 316.799 5.72273 2.17185 0
M  V30 3338 N 315.936 6.21221 3.27152 0
M  V30 3339 H 320.776 2.97486 0.17489 0
M  V30 3340 H 318.313 1.46911 0.0745794 0
M  V30 3341 H 320.271 3.22897 2.64184 0
M  V30 3342 H 318.901 2.1043 2.44783 0
M  V30 3343 H 317.953 3.74475 0.668755 0
M  V30 3344 H 319.265 4.86699 1.09204 0
M  V30 3345 H 318.419 4.99453 3.4443 0
M  V30 3346 H 317.158 3.78386 3.07693 0
M  V30 3347 H 316.163 5.3261 1.36407 0
M  V30 3348 H 317.388 6.55974 1.75713 0
M  V30 3349 H 315.334 5.42263 3.69171 0
M  V30 3350 H 315.251 6.97284 2.92116 0
M  V30 3351 H 316.519 6.65063 4.06585 0
M  V30 3352 N 320.748 -0.0735177 1.57428 0
M  V30 3353 C 321.996 -0.771472 1.86796 0
M  V30 3354 C 322.317 -1.78201 0.791804 0
M  V30 3355 O 321.587 -1.95074 -0.179718 0
M  V30 3356 H 320.167 -0.28791 0.689287 0
M  V30 3357 H 322.829 -0.0500161 1.94836 0
M  V30 3358 H 321.925 -1.28874 2.8425 0
M  V30 3359 N 322.226 -1.5378 -0.344866 0
M  V30 3360 C 323.176 -1.78057 -1.42407 0
M  V30 3361 C 324.16 -0.635732 -1.47808 0
M  V30 3362 O 325.352 -0.89508 -1.527 0
M  V30 3363 C 322.481 -1.99242 -2.79566 0
M  V30 3364 C 321.567 -3.19787 -2.78562 0
M  V30 3365 N 321.958 -4.41284 -2.47189 0
M  V30 3366 C 320.256 -3.2093 -3.0971 0
M  V30 3367 C 320.957 -5.23128 -2.54385 0
M  V30 3368 N 319.933 -4.59813 -2.89953 0
M  V30 3369 H 323.735 -2.69588 -1.17046 0
M  V30 3370 H 321.249 -1.52687 -0.553217 0
M  V30 3371 H 323.246 -2.14768 -3.57324 0
M  V30 3372 H 321.906 -1.08953 -3.05875 0
M  V30 3373 H 322.917 -4.68657 -2.20411 0
M  V30 3374 H 319.594 -2.40603 -3.41199 0
M  V30 3375 H 320.984 -6.30096 -2.333 0
M  V30 3376 N 323.704 0.605807 -1.45491 0
M  V30 3377 C 324.934 1.38934 -1.52908 0
M  V30 3378 C 325.342 1.88513 -0.161086 0
M  V30 3379 O 324.685 1.62962 0.847891 0
M  V30 3380 C 324.747 2.62737 -2.45376 0
M  V30 3381 C 324.411 2.34785 -3.92078 0
M  V30 3382 C 325.408 1.95038 -4.8193 0
M  V30 3383 C 323.093 2.47642 -4.37011 0
M  V30 3384 C 325.087 1.68511 -6.14722 0
M  V30 3385 C 322.774 2.20728 -5.69844 0
M  V30 3386 C 323.772 1.81225 -6.58519 0
M  V30 3387 O 323.46 1.54627 -7.88889 0
M  V30 3388 H 323.192 0.431629 -0.520262 0
M  V30 3389 H 325.746 0.74573 -1.91384 0
M  V30 3390 H 323.976 3.29824 -2.01874 0
M  V30 3391 H 325.665 3.24783 -2.43456 0
M  V30 3392 H 326.431 1.84639 -4.48479 0
M  V30 3393 H 322.31 2.77356 -3.68232 0
M  V30 3394 H 325.854 1.37602 -6.83894 0
M  V30 3395 H 321.751 2.30744 -6.02849 0
M  V30 3396 H 322.519 1.68665 -8.00933 0
M  V30 3397 N 325.182 1.32811 0.848464 0
M  V30 3398 C 326.114 1.18095 1.96433 0
M  V30 3399 C 327.127 0.114354 1.62398 0
M  V30 3400 O 328.316 0.363892 1.74751 0
M  V30 3401 C 325.416 0.786798 3.2964 0
M  V30 3402 C 324.589 1.943 3.91875 0
M  V30 3403 C 323.648 1.53138 5.03423 0
M  V30 3404 O 322.674 2.24432 5.23086 0
M  V30 3405 N 323.876 0.430915 5.78898 0
M  V30 3406 H 326.641 2.14218 2.09597 0
M  V30 3407 H 324.202 1.2543 1.02367 0
M  V30 3408 H 326.194 0.493715 4.01677 0
M  V30 3409 H 324.764 -0.0834541 3.12489 0
M  V30 3410 H 323.984 2.40224 3.12547 0
M  V30 3411 H 325.272 2.71689 4.30189 0
M  V30 3412 H 324.67 -0.162333 5.65467 0
M  V30 3413 H 323.227 0.197466 6.51501 0
M  V30 3414 N 326.66 -1.06551 1.16123 0
M  V30 3415 C 327.608 -2.16063 0.861371 0
M  V30 3416 C 328.602 -1.6856 -0.168517 0
M  V30 3417 O 329.808 -1.79986 -0.0227579 0
M  V30 3418 H 326.183 -0.705278 0.260934 0
M  V30 3419 H 328.154 -2.38567 1.79244 0
M  V30 3420 C 326.903 -3.45661 0.376018 0
M  V30 3421 H 326.226 -3.82604 1.15992 0
M  V30 3422 H 327.666 -4.23504 0.204951 0
M  V30 3423 C 326.125 -3.24546 -0.903954 0
M  V30 3424 O 326.655 -3.49865 -1.97377 0
M  V30 3425 N 324.861 -2.77992 -0.846679 0
M  V30 3426 H 324.408 -2.57589 0.0241017 0
M  V30 3427 H 324.366 -2.64244 -1.70359 0
M  V30 3428 N 328.138 -0.959301 -1.25041 0
M  V30 3429 C 329.384 -0.617525 -1.9317 0
M  V30 3430 C 329.717 0.843981 -1.74902 0
M  V30 3431 O 328.992 1.60615 -1.09696 0
M  V30 3432 C 329.275 -0.982736 -3.46431 0
M  V30 3433 C 329.128 -2.50032 -3.73904 0
M  V30 3434 C 330.447 -0.511176 -4.37121 0
M  V30 3435 H 327.566 -0.22582 -0.701552 0
M  V30 3436 H 330.208 -1.19679 -1.4757 0
M  V30 3437 H 328.358 -0.489806 -3.854 0
M  V30 3438 H 330.03 -3.06737 -3.44544 0
M  V30 3439 H 328.273 -2.93598 -3.19348 0
M  V30 3440 H 328.944 -2.70635 -4.81103 0
M  V30 3441 H 331.42 -0.934075 -4.0548 0
M  V30 3442 H 330.296 -0.795361 -5.43107 0
M  V30 3443 H 330.557 0.588834 -4.38161 0
M  V30 3444 N 329.616 1.39756 -0.72842 0
M  V30 3445 C 330.862 2.00942 -0.273892 0
M  V30 3446 C 331.195 1.57656 1.13394 0
M  V30 3447 O 330.47 0.802434 1.77176 0
M  V30 3448 C 330.753 3.58211 -0.368346 0
M  V30 3449 C 330.606 4.11534 -1.81548 0
M  V30 3450 C 331.925 4.39372 0.253054 0
M  V30 3451 H 329.044 0.730047 -0.100996 0
M  V30 3452 H 331.686 1.66056 -0.923337 0
M  V30 3453 H 329.836 3.88061 0.184588 0
M  V30 3454 H 331.508 3.92431 -2.42478 0
M  V30 3455 H 329.751 3.65341 -2.33898 0
M  V30 3456 H 330.422 5.20682 -1.83288 0
M  V30 3457 H 332.898 4.15527 -0.218224 0
M  V30 3458 H 331.774 5.48677 0.156585 0
M  V30 3459 H 332.035 4.21358 1.33826 0
M  V30 3460 N 331.094 0.475555 1.50254 0
M  V30 3461 C 332.371 -0.139685 1.95101 0
M  V30 3462 C 332.751 -1.56555 1.41611 0
M  V30 3463 O 332.099 -2.19956 0.618993 0
M  V30 3464 C 332.309 -0.0784298 3.48912 0
M  V30 3465 C 333.657 -0.265095 4.23772 0
M  V30 3466 O 334.681 -0.154808 3.55863 0
M  V30 3467 O 333.54 -0.488327 5.44314 0
M  V30 3468 H 330.634 -0.109236 0.819754 0
M  V30 3469 H 333.18 0.536276 1.61004 0
M  V30 3470 H 331.952 0.916918 3.80405 0
M  V30 3471 H 331.575 -0.795655 3.89558 0
M  V30 3472 N 332.573 -1.56217 0.208337 0
M  V30 3473 C 333.819 -1.98242 -0.427552 0
M  V30 3474 C 334.152 -1.09554 -1.60348 0
M  V30 3475 O 333.427 -0.15035 -1.93918 0
M  V30 3476 C 333.71 -3.4931 -0.874907 0
M  V30 3477 C 333.563 -4.48773 0.303751 0
M  V30 3478 C 334.882 -4.04424 -1.73577 0
M  V30 3479 H 332.001 -0.720744 -0.153936 0
M  V30 3480 H 334.643 -1.87586 0.30192 0
M  V30 3481 H 332.793 -3.58522 -1.49648 0
M  V30 3482 H 334.465 -4.51586 0.941682 0
M  V30 3483 H 332.708 -4.23194 0.953375 0
M  V30 3484 H 333.379 -5.51976 -0.0519883 0
M  V30 3485 H 335.855 -3.98075 -1.21143 0
M  V30 3486 H 334.731 -5.1047 -2.01771 0
M  V30 3487 H 334.992 -3.50494 -2.69456 0
M  V30 3488 N 334.051 0.0651679 -1.57465 0
M  V30 3489 C 335.467 0.420105 -1.53972 0
M  V30 3490 C 335.667 1.78782 -0.929474 0
M  V30 3491 O 334.723 2.46771 -0.534839 0
M  V30 3492 C 336.036 0.355084 -2.98596 0
M  V30 3493 C 337.584 0.434792 -3.09965 0
M  V30 3494 C 338.059 0.399609 -4.56253 0
M  V30 3495 N 339.55 0.459488 -4.60915 0
M  V30 3496 C 340.285 0.454584 -5.71595 0
M  V30 3497 N 339.781 0.404102 -6.9162 0
M  V30 3498 N 341.574 0.501635 -5.59857 0
M  V30 3499 H 333.725 -0.830328 -1.95498 0
M  V30 3500 H 335.988 -0.312244 -0.895102 0
M  V30 3501 H 335.694 -0.583357 -3.46828 0
M  V30 3502 H 335.568 1.16275 -3.58831 0
M  V30 3503 H 337.955 1.36366 -2.61703 0
M  V30 3504 H 338.036 -0.40157 -2.52628 0
M  V30 3505 H 337.68 -0.525436 -5.05175 0
M  V30 3506 H 337.61 1.25359 -5.11461 0
M  V30 3507 H 340.101 0.502482 -3.74544 0
M  V30 3508 H 340.414 0.404468 -7.71741 0
M  V30 3509 H 338.759 0.37069 -6.94011 0
M  V30 3510 H 341.95 0.538812 -4.64989 0
M  V30 3511 H 342.123 0.494345 -6.46112 0
M  V30 3512 N 335.529 1.53961 0.336706 0
M  V30 3513 C 336.439 1.85432 1.43708 0
M  V30 3514 C 337.455 0.745053 1.57242 0
M  V30 3515 O 338.631 1.03804 1.72588 0
M  V30 3516 C 335.696 2.06349 2.78605 0
M  V30 3517 C 334.757 3.30191 2.74358 0
M  V30 3518 C 333.99 3.50101 4.02822 0
M  V30 3519 O 334.213 2.7371 5.00439 0
M  V30 3520 O 333.147 4.43547 4.06878 0
M  V30 3521 H 336.973 2.78975 1.20028 0
M  V30 3522 H 334.558 1.39701 0.52952 0
M  V30 3523 H 336.44 2.21513 3.58483 0
M  V30 3524 H 335.115 1.15995 3.02203 0
M  V30 3525 H 334.022 3.20425 1.93078 0
M  V30 3526 H 335.355 4.2056 2.55715 0
M  V30 3527 N 337.007 -0.598083 1.45811 0
M  V30 3528 C 337.917 -1.73632 1.57763 0
M  V30 3529 C 338.933 -1.67763 0.461676 0
M  V30 3530 O 340.109 -1.87949 0.723685 0
M  V30 3531 C 337.174 -3.10114 1.55018 0
M  V30 3532 C 336.235 -3.27364 2.77726 0
M  V30 3533 C 335.468 -4.57334 2.75102 0
M  V30 3534 O 335.691 -5.40258 1.8297 0
M  V30 3535 O 334.625 -4.77502 3.66437 0
M  V30 3536 H 338.451 -1.66498 2.53992 0
M  V30 3537 H 336.036 -0.763308 1.28429 0
M  V30 3538 H 337.918 -3.9141 1.56129 0
M  V30 3539 H 336.593 -3.17718 0.619431 0
M  V30 3540 H 335.5 -2.45619 2.82174 0
M  V30 3541 H 336.833 -3.24641 3.69958 0
M  V30 3542 N 338.485 -1.33259 -0.841409 0
M  V30 3543 C 339.435 -1.19872 -1.93945 0
M  V30 3544 C 340.419 -0.102269 -1.60575 0
M  V30 3545 O 341.611 -0.330114 -1.73894 0
M  V30 3546 C 338.74 -0.937517 -3.30251 0
M  V30 3547 C 337.826 -2.07629 -3.69799 0
M  V30 3548 N 338.217 -3.32604 -3.81062 0
M  V30 3549 C 336.515 -1.98242 -3.9952 0
M  V30 3550 C 337.216 -4.07275 -4.15333 0
M  V30 3551 N 336.192 -3.35691 -4.27566 0
M  V30 3552 H 339.994 -2.14604 -2.00805 0
M  V30 3553 H 337.508 -1.2523 -1.03398 0
M  V30 3554 H 339.505 -0.822545 -4.08705 0
M  V30 3555 H 338.165 0.00128798 -3.247 0
M  V30 3556 H 339.176 -3.67382 -3.65035 0
M  V30 3557 H 335.853 -1.12005 -4.02195 0
M  V30 3558 H 337.243 -5.1511 -4.31406 0
M  V30 3559 N 339.963 1.05934 -1.16686 0
M  V30 3560 C 341.188 1.83029 -0.975455 0
M  V30 3561 C 341.613 1.82096 0.471452 0
M  V30 3562 O 340.971 1.22443 1.33706 0
M  V30 3563 C 341.019 3.27372 -1.51195 0
M  V30 3564 O 340.123 4.06054 -0.720701 0
M  V30 3565 H 339.464 0.566194 -0.346872 0
M  V30 3566 H 341.994 1.33541 -1.55009 0
M  V30 3567 H 342.004 3.78186 -1.53099 0
M  V30 3568 H 340.679 3.27366 -2.56523 0
M  V30 3569 H 339.256 3.64812 -0.772458 0
M  V30 3570 N 341.441 0.965919 1.2453 0
M  V30 3571 C 342.666 0.643971 1.97149 0
M  V30 3572 C 343.091 -0.779487 1.71189 0
M  V30 3573 O 342.449 -1.5288 0.974553 0
M  V30 3574 C 342.497 0.922557 3.48599 0
M  V30 3575 O 341.601 0.00707672 4.12399 0
M  V30 3576 H 340.942 0.243647 0.617683 0
M  V30 3577 H 343.472 1.29558 1.58353 0
M  V30 3578 H 343.482 0.853373 3.98976 0
M  V30 3579 H 342.157 1.95996 3.66822 0
M  V30 3580 H 340.734 0.12943 3.72675 0
M  V30 3581 N 342.919 -1.39368 0.735821 0
M  V30 3582 C 343.866 -2.30599 0.0963825 0
M  V30 3583 C 344.836 -1.49257 -0.728794 0
M  V30 3584 O 346.021 -1.77941 -0.688588 0
M  V30 3585 C 343.161 -3.35596 -0.804305 0
M  V30 3586 C 342.274 -4.31987 0.0335761 0
M  V30 3587 C 341.409 -5.24053 -0.868461 0
M  V30 3588 C 340.448 -6.12095 -0.0258776 0
M  V30 3589 N 339.585 -6.96514 -0.883893 0
M  V30 3590 H 344.425 -2.8471 0.880002 0
M  V30 3591 H 341.962 -1.40188 0.445619 0
M  V30 3592 H 343.92 -3.95062 -1.34096 0
M  V30 3593 H 342.55 -2.82938 -1.55389 0
M  V30 3594 H 341.602 -3.74133 0.68766 0
M  V30 3595 H 342.914 -4.94074 0.685036 0
M  V30 3596 H 342.068 -5.88549 -1.47293 0
M  V30 3597 H 340.807 -4.62289 -1.5537 0
M  V30 3598 H 339.812 -5.4661 0.591386 0
M  V30 3599 H 341.037 -6.75923 0.656156 0
M  V30 3600 H 338.983 -6.37318 -1.55441 0
M  V30 3601 H 338.9 -7.55448 -0.288931 0
M  V30 3602 H 340.168 -7.65439 -1.4739 0
M  V30 3603 N 344.397 -0.483516 -1.5 0
M  V30 3604 C 345.327 0.293829 -2.31644 0
M  V30 3605 C 346.308 0.978864 -1.39112 0
M  V30 3606 O 347.493 0.973644 -1.68029 0
M  V30 3607 C 344.623 1.36897 -3.19181 0
M  V30 3608 C 343.577 0.804833 -4.20365 0
M  V30 3609 C 342.903 1.9792 -4.96721 0
M  V30 3610 C 344.203 -0.192313 -5.21946 0
M  V30 3611 H 345.897 -0.387616 -2.9688 0
M  V30 3612 H 343.443 -0.187856 -1.42769 0
M  V30 3613 H 345.396 1.92037 -3.751 0
M  V30 3614 H 344.12 2.07936 -2.51853 0
M  V30 3615 H 342.779 0.275319 -3.65565 0
M  V30 3616 H 342.427 2.67686 -4.25856 0
M  V30 3617 H 342.127 1.60789 -5.65173 0
M  V30 3618 H 343.651 2.53526 -5.55479 0
M  V30 3619 H 345.065 0.270333 -5.72662 0
M  V30 3620 H 343.462 -0.478543 -5.98189 0
M  V30 3621 H 344.532 -1.11409 -4.71928 0
M  V30 3622 N 345.875 1.56104 -0.216619 0
M  V30 3623 C 346.807 2.17339 0.72776 0
M  V30 3624 C 347.82 1.14109 1.16116 0
M  V30 3625 O 349.009 1.4111 1.09317 0
M  V30 3626 C 346.109 2.73818 1.99693 0
M  V30 3627 C 345.282 4.02168 1.71988 0
M  V30 3628 C 344.341 4.43259 2.83562 0
M  V30 3629 O 343.367 5.10257 2.52244 0
M  V30 3630 N 344.569 4.08535 4.12407 0
M  V30 3631 H 347.334 2.99005 0.203983 0
M  V30 3632 H 344.895 1.61861 -0.0354289 0
M  V30 3633 H 346.887 2.9828 2.73516 0
M  V30 3634 H 345.457 1.96483 2.43132 0
M  V30 3635 H 344.677 3.85612 0.818337 0
M  V30 3636 H 345.965 4.85907 1.50903 0
M  V30 3637 H 345.363 3.54687 4.40696 0
M  V30 3638 H 343.92 4.37901 4.8279 0
M  V30 3639 N 347.353 -0.0568162 1.57498 0
M  V30 3640 C 348.581 -0.765626 1.92213 0
M  V30 3641 C 348.996 -1.70353 0.813961 0
M  V30 3642 O 348.353 -1.81268 -0.211701 0
M  V30 3643 C 348.404 -1.5465 3.2675 0
M  V30 3644 O 348.125 -0.646278 4.33307 0
M  V30 3645 C 349.626 -2.35497 3.75574 0
M  V30 3646 H 346.846 -0.216835 0.634999 0
M  V30 3647 H 349.39 -0.0226146 2.04487 0
M  V30 3648 H 347.545 -2.24165 3.15957 0
M  V30 3649 H 347.959 -1.19093 5.108 0
M  V30 3650 H 349.433 -2.85722 4.72299 0
M  V30 3651 H 349.91 -3.15692 3.05344 0
M  V30 3652 H 350.516 -1.7111 3.8936 0
M  V30 3653 N 348.832 -1.54138 -0.328536 0
M  V30 3654 C 350.057 -1.76378 -1.09112 0
M  V30 3655 C 350.482 -0.508596 -1.81094 0
M  V30 3656 O 349.84 0.539598 -1.73084 0
M  V30 3657 C 349.888 -2.95358 -2.06872 0
M  V30 3658 O 348.992 -2.66556 -3.14677 0
M  V30 3659 H 348.333 -0.584614 -0.314838 0
M  V30 3660 H 350.863 -2.01146 -0.374348 0
M  V30 3661 H 350.873 -3.22566 -2.4983 0
M  V30 3662 H 349.548 -3.86385 -1.5388 0
M  V30 3663 H 348.125 -2.50282 -2.7643 0
M  V30 3664 N 350.31 0.590341 -1.46126 0
M  V30 3665 C 351.24 1.71032 -1.58966 0
M  V30 3666 C 352.221 1.64302 -0.440335 0
M  V30 3667 O 353.406 1.82436 -0.665634 0
M  V30 3668 C 350.536 3.09665 -1.57241 0
M  V30 3669 C 349.49 3.31221 -2.71066 0
M  V30 3670 C 348.816 4.70303 -2.54399 0
M  V30 3671 C 350.116 3.19796 -4.1295 0
M  V30 3672 H 351.81 1.60543 -2.52718 0
M  V30 3673 H 349.356 0.770933 -1.21625 0
M  V30 3674 H 351.309 3.87831 -1.64819 0
M  V30 3675 H 350.033 3.21036 -0.600289 0
M  V30 3676 H 348.692 2.55452 -2.62944 0
M  V30 3677 H 348.34 4.78429 -1.55288 0
M  V30 3678 H 348.04 4.85679 -3.30741 0
M  V30 3679 H 349.564 5.50647 -2.63857 0
M  V30 3680 H 350.978 3.87815 -4.22223 0
M  V30 3681 H 349.375 3.46696 -4.89818 0
M  V30 3682 H 350.445 2.16983 -4.33643 0
M  V30 3683 N 351.788 1.33704 0.83433 0
M  V30 3684 C 352.738 1.20899 1.93306 0
M  V30 3685 C 353.722 0.110783 1.60518 0
M  V30 3686 O 354.914 0.339331 1.73717 0
M  V30 3687 C 352.043 0.955018 3.29749 0
M  V30 3688 C 351.129 2.09587 3.68692 0
M  V30 3689 N 351.52 3.34621 3.79292 0
M  V30 3690 C 349.818 2.00358 3.98463 0
M  V30 3691 C 350.519 4.09472 4.13167 0
M  V30 3692 N 349.495 3.37954 4.25779 0
M  V30 3693 H 353.297 2.15665 1.99664 0
M  V30 3694 H 350.811 1.25777 1.02732 0
M  V30 3695 H 352.808 0.844208 4.08263 0
M  V30 3696 H 351.468 0.0159317 3.24696 0
M  V30 3697 H 352.479 3.69313 3.63082 0
M  V30 3698 H 349.156 1.14137 4.01596 0
M  V30 3699 H 350.546 5.17391 4.28668 0
M  V30 3700 N 353.266 -1.05314 1.17247 0
M  V30 3701 C 354.677 -1.59753 0.96623 0
M  V30 3702 C 355.028 -1.9005 -0.487378 0
M  V30 3703 O 354.153 -1.68126 -1.36245 0
M  V30 3704 C 354.748 -2.90249 1.74759 0
M  V30 3705 C 353.307 -3.41352 1.58606 0
M  V30 3706 C 352.454 -2.15103 1.75002 0
M  V30 3707 H 355.405 -0.881406 1.31973 0
M  V30 3708 H 355.426 -3.60097 1.22925 0
M  V30 3709 H 354.938 -2.68166 2.8055 0
M  V30 3710 H 353.039 -3.68474 0.552985 0
M  V30 3711 H 353.152 -4.16019 2.37624 0
M  V30 3712 H 351.516 -2.25804 1.17833 0
M  V30 3713 H 352.299 -1.95491 2.82202 0
M  V30 3714 N 354.744 -0.972509 -1.24016 0
M  V30 3715 C 355.707 -0.511403 -2.23422 0
M  V30 3716 C 356.707 0.394679 -1.55881 0
M  V30 3717 O 357.897 0.189469 -1.73167 0
M  V30 3718 C 355.029 0.258769 -3.39916 0
M  V30 3719 H 356.222 -1.39024 -2.6573 0
M  V30 3720 H 353.775 -0.757585 -1.36713 0
M  V30 3721 H 354.51 1.1545 -3.03054 0
M  V30 3722 H 354.295 -0.391522 -3.9014 0
M  V30 3723 H 355.785 0.570244 -4.13688 0
M  V30 3724 N 356.222 1.38976 -0.743202 0
M  V30 3725 C 357.172 2.27843 -0.084513 0
M  V30 3726 C 358.156 1.44677 0.704094 0
M  V30 3727 O 359.348 1.67511 0.571755 0
M  V30 3728 C 356.477 3.33466 0.815781 0
M  V30 3729 C 355.563 4.24095 0.0208844 0
M  V30 3730 N 355.954 4.95609 -1.0102 0
M  V30 3731 C 354.252 4.45303 0.249293 0
M  V30 3732 C 354.953 5.62287 -1.49024 0
M  V30 3733 N 353.929 5.37571 -0.807377 0
M  V30 3734 H 357.731 2.80593 -0.87436 0
M  V30 3735 H 355.245 1.51755 -0.578283 0
M  V30 3736 H 357.242 3.96008 1.30321 0
M  V30 3737 H 355.902 2.82276 1.6047 0
M  V30 3738 H 356.913 4.98849 -1.39176 0
M  V30 3739 H 353.59 4.0504 1.01237 0
M  V30 3740 H 354.98 6.29519 -2.34853 0
M  V30 3741 N 357.7 0.491464 1.49741 0
M  V30 3742 C 358.632 -0.328609 2.26832 0
M  V30 3743 C 359.645 -0.939113 1.32983 0
M  V30 3744 O 360.834 -0.824067 1.58339 0
M  V30 3745 C 357.934 -1.47675 3.05033 0
M  V30 3746 C 357.107 -0.975305 4.26388 0
M  V30 3747 C 356.166 -1.99991 4.86714 0
M  V30 3748 O 355.192 -1.57229 5.47054 0
M  V30 3749 N 356.394 -3.32962 4.75517 0
M  V30 3750 H 359.159 0.332377 2.97851 0
M  V30 3751 H 356.72 0.323441 1.58636 0
M  V30 3752 H 358.712 -2.15954 3.42266 0
M  V30 3753 H 357.282 -2.04206 2.36683 0
M  V30 3754 H 356.502 -0.117723 3.94024 0
M  V30 3755 H 357.79 -0.618531 5.05026 0
M  V30 3756 H 357.188 -3.70399 4.27576 0
M  V30 3757 H 355.745 -3.96982 5.16961 0
M  V30 3758 N 359.178 -1.55987 0.224894 0
M  V30 3759 C 360.455 -1.90232 -0.455083 0
M  V30 3760 C 360.835 -1.14269 -1.77499 0
M  V30 3761 O 360.183 -0.253079 -2.27094 0
M  V30 3762 C 360.393 -3.42993 -0.644758 0
M  V30 3763 C 361.741 -4.13821 -0.950669 0
M  V30 3764 O 362.765 -3.4861 -0.731423 0
M  V30 3765 O 361.624 -5.29128 -1.36695 0
M  V30 3766 H 358.718 -0.79108 -0.241084 0
M  V30 3767 H 361.264 -1.67581 0.267327 0
M  V30 3768 H 360.036 -3.90252 0.28613 0
M  V30 3769 H 359.659 -3.71434 -1.41853 0
M  V30 3770 N 360.656 0.0484629 -1.57525 0
M  V30 3771 C 362.072 0.40375 -1.54409 0
M  V30 3772 C 362.272 1.77786 -0.948384 0
M  V30 3773 O 361.328 2.46189 -0.560983 0
M  V30 3774 C 362.641 0.323394 -2.98956 0
M  V30 3775 C 364.189 0.401892 -3.10409 0
M  V30 3776 C 364.664 0.351195 -4.56652 0
M  V30 3777 N 366.155 0.410576 -4.61377 0
M  V30 3778 C 366.89 0.393933 -5.72045 0
M  V30 3779 N 366.386 0.330724 -6.9201 0
M  V30 3780 N 368.179 0.442227 -5.60358 0
M  V30 3781 H 360.33 -0.851016 -1.94606 0
M  V30 3782 H 362.593 -0.321721 -0.89174 0
M  V30 3783 H 362.299 -0.62011 -3.4619 0
M  V30 3784 H 362.173 1.12463 -3.60044 0
M  V30 3785 H 364.56 1.33582 -2.63134 0
M  V30 3786 H 364.641 -0.428342 -2.52188 0
M  V30 3787 H 364.285 -0.578987 -5.04589 0
M  V30 3788 H 364.215 1.19928 -5.12762 0
M  V30 3789 H 366.706 0.462729 -3.75056 0
M  V30 3790 H 367.019 0.322592 -7.72126 0
M  V30 3791 H 365.364 0.29706 -6.94365 0
M  V30 3792 H 368.555 0.489464 -4.65534 0
M  V30 3793 H 368.728 0.425788 -6.466 0
M  V30 3794 N 362.134 1.5431 0.320358 0
M  V30 3795 C 363.064 1.86912 1.3995 0
M  V30 3796 C 364.045 0.726211 1.53819 0
M  V30 3797 O 365.23 0.980233 1.67646 0
M  V30 3798 C 362.36 2.09932 2.7667 0
M  V30 3799 C 361.314 3.25776 2.77586 0
M  V30 3800 C 360.64 3.34173 4.17412 0
M  V30 3801 C 361.94 4.6335 2.41048 0
M  V30 3802 H 363.634 2.77292 1.12914 0
M  V30 3803 H 361.18 1.33421 0.541738 0
M  V30 3804 H 363.133 2.31324 3.52232 0
M  V30 3805 H 361.857 1.16304 3.0519 0
M  V30 3806 H 360.516 3.04276 2.04479 0
M  V30 3807 H 360.164 2.38098 4.43078 0
M  V30 3808 H 359.864 4.12033 4.18931 0
M  V30 3809 H 361.388 3.57803 4.94782 0
M  V30 3810 H 362.802 4.84602 3.06324 0
M  V30 3811 H 361.199 5.43782 2.53813 0
M  V30 3812 H 362.269 4.65381 1.36193 0
M  V30 3813 N 363.613 -0.582584 1.46437 0
M  V30 3814 C 364.545 -1.70618 1.53043 0
M  V30 3815 C 365.558 -1.57322 0.418769 0
M  V30 3816 O 366.747 -1.64744 0.687136 0
M  V30 3817 C 363.847 -3.08869 1.39474 0
M  V30 3818 C 363.02 -3.48166 2.64762 0
M  V30 3819 C 362.079 -4.65478 2.4539 0
M  V30 3820 O 361.105 -4.71333 3.19114 0
M  V30 3821 N 362.307 -5.60365 1.51564 0
M  V30 3822 H 365.072 -1.65405 2.49923 0
M  V30 3823 H 362.633 -0.768567 1.42494 0
M  V30 3824 H 364.625 -3.85143 1.24287 0
M  V30 3825 H 363.195 -3.08449 0.507758 0
M  V30 3826 H 362.415 -2.61598 2.9489 0
M  V30 3827 H 363.703 -3.71188 3.4799 0
M  V30 3828 H 363.101 -5.5837 0.907705 0
M  V30 3829 H 361.658 -6.36068 1.4234 0
M  V30 3830 N 365.091 -1.34144 -0.827227 0
M  V30 3831 C 366.041 -1.21923 -1.92663 0
M  V30 3832 C 367.025 -0.119294 -1.60457 0
M  V30 3833 O 368.217 -0.348539 -1.73534 0
M  V30 3834 C 365.346 -0.972492 -3.29238 0
M  V30 3835 C 364.432 -2.1154 -3.67576 0
M  V30 3836 N 364.823 -3.36627 -3.77512 0
M  V30 3837 C 363.121 -2.02468 -3.97395 0
M  V30 3838 C 363.822 -4.11658 -4.1099 0
M  V30 3839 N 362.798 -3.40207 -4.23981 0
M  V30 3840 H 366.6 -2.16721 -1.98517 0
M  V30 3841 H 364.114 -1.2632 -1.02064 0
M  V30 3842 H 366.111 -0.865847 -4.0781 0
M  V30 3843 H 364.771 -0.0331509 -3.24683 0
M  V30 3844 H 365.782 -3.71234 -3.61118 0
M  V30 3845 H 362.459 -1.16265 -4.00985 0
M  V30 3846 H 363.849 -5.19657 -4.25918 0
M  V30 3847 N 366.569 1.04691 -1.17803 0
M  V30 3848 C 367.817 1.7743 -0.967617 0
M  V30 3849 C 368.138 1.88359 0.504574 0
M  V30 3850 O 367.408 1.40402 1.36617 0
M  V30 3851 H 365.988 0.657242 -0.355024 0
M  V30 3852 H 368.65 1.2638 -1.48371 0
M  V30 3853 H 367.746 2.78924 -1.40027 0
M  V30 3854 N 368.047 0.979072 1.23499 0
M  V30 3855 C 369.458 0.684391 1.73704 0
M  V30 3856 C 369.809 -0.799448 1.79174 0
M  V30 3857 O 368.934 -1.62531 1.42873 0
M  V30 3858 C 369.529 1.23564 3.15464 0
M  V30 3859 C 368.088 0.99063 3.6313 0
M  V30 3860 C 367.235 1.36416 2.41425 0
M  V30 3861 H 370.186 1.15307 1.09041 0
M  V30 3862 H 370.207 0.607417 3.7562 0
M  V30 3863 H 369.719 2.31561 3.1145 0
M  V30 3864 H 367.82 -0.0733136 3.72528 0
M  V30 3865 H 367.933 1.64427 4.5 0
M  V30 3866 H 366.297 0.782616 2.42378 0
M  V30 3867 H 367.08 2.45387 2.40083 0
M  V30 3868 N 369.525 -1.3858 0.750561 0
M  V30 3869 C 370.472 -2.30483 0.120835 0
M  V30 3870 C 371.442 -1.50022 -0.712923 0
M  V30 3871 O 372.627 -1.78662 -0.669676 0
M  V30 3872 C 369.767 -3.36431 -0.768666 0
M  V30 3873 C 368.88 -4.31927 0.0793922 0
M  V30 3874 C 368.015 -5.24944 -0.81283 0
M  V30 3875 C 367.054 -6.12088 0.0390447 0
M  V30 3876 N 366.191 -6.97412 -0.809969 0
M  V30 3877 H 371.031 -2.83761 0.91015 0
M  V30 3878 H 368.568 -1.39707 0.460463 0
M  V30 3879 H 370.526 -3.96462 -1.29898 0
M  V30 3880 H 369.156 -2.8457 -1.5238 0
M  V30 3881 H 368.208 -3.73382 0.727303 0
M  V30 3882 H 369.52 -4.93319 0.737401 0
M  V30 3883 H 368.674 -5.90078 -1.41042 0
M  V30 3884 H 367.413 -4.63911 -1.50458 0
M  V30 3885 H 366.418 -5.45952 0.649328 0
M  V30 3886 H 367.643 -6.75189 0.727809 0
M  V30 3887 H 365.589 -6.38931 -1.48672 0
M  V30 3888 H 365.506 -7.55712 -0.208789 0
M  V30 3889 H 366.774 -7.66959 -1.39263 0
M  V30 3890 N 371.003 -0.499398 -1.49478 0
M  V30 3891 C 372.28 0.108629 -1.95298 0
M  V30 3892 C 372.66 1.54282 -1.44084 0
M  V30 3893 O 372.008 2.18944 -0.653908 0
M  V30 3894 C 372.218 0.0229111 -3.48992 0
M  V30 3895 C 373.566 0.197643 -4.2414 0
M  V30 3896 O 374.59 0.0981735 -3.56065 0
M  V30 3897 O 373.449 0.401669 -5.45022 0
M  V30 3898 H 370.543 0.096181 -0.821388 0
M  V30 3899 H 373.089 -0.561822 -1.6013 0
M  V30 3900 H 371.861 -0.977321 -3.78899 0
M  V30 3901 H 371.484 0.733579 -3.90774 0
M  V30 3902 N 372.481 1.55866 -0.233164 0
M  V30 3903 C 373.73 1.97779 0.39579 0
M  V30 3904 C 374.043 1.12419 1.60066 0
M  V30 3905 O 375.249 1.44283 2.29988 0
M  V30 3906 C 373.705 3.5188 0.755556 0
M  V30 3907 C 373.313 4.45959 -0.427152 0
M  V30 3908 C 375.057 4.02479 1.34946 0
M  V30 3909 C 372.964 5.91383 -0.0443043 0
M  V30 3910 H 371.894 0.738592 0.15165 0
M  V30 3911 H 374.545 1.80486 -0.331212 0
M  V30 3912 H 372.927 3.64816 1.5403 0
M  V30 3913 H 374.101 4.44776 -1.20462 0
M  V30 3914 H 372.416 4.05765 -0.935068 0
M  V30 3915 H 375.013 5.08637 1.649 0
M  V30 3916 H 375.356 3.49014 2.26925 0
M  V30 3917 H 375.889 3.92813 0.62791 0
M  V30 3918 H 372.628 6.48857 -0.930874 0
M  V30 3919 H 372.148 5.95734 0.697238 0
M  V30 3920 H 373.827 6.45893 0.378334 0
M  V30 3921 N 373.959 -0.0401083 1.57549 0
M  V30 3922 C 375.206 -0.733125 1.88763 0
M  V30 3923 C 375.534 -1.75946 0.829058 0
M  V30 3924 O 374.789 -1.94949 -0.171323 0
M  V30 3925 C 375.088 -1.44902 3.26708 0
M  V30 3926 C 374.754 -0.559707 4.47413 0
M  V30 3927 C 373.416 -0.314731 4.8017 0
M  V30 3928 C 375.768 0.0549743 5.21171 0
M  V30 3929 C 373.096 0.553886 5.8408 0
M  V30 3930 C 375.448 0.911229 6.26003 0
M  V30 3931 C 374.112 1.16577 6.57241 0
M  V30 3932 H 373.382 -0.268269 0.690733 0
M  V30 3933 H 376.029 0.00679408 1.91499 0
M  V30 3934 H 374.334 -2.26197 3.1991 0
M  V30 3935 H 376.031 -1.99058 3.48105 0
M  V30 3936 H 372.621 -0.760793 4.21794 0
M  V30 3937 H 376.805 -0.121344 4.96152 0
M  V30 3938 H 372.061 0.759518 6.06664 0
M  V30 3939 H 376.235 1.3941 6.82303 0
M  V30 3940 H 373.862 1.84058 7.37582 0
M  V30 3941 N 375.437 -1.54477 -0.31217 0
M  V30 3942 C 376.665 -1.77205 -1.068 0
M  V30 3943 C 377.08 -0.526114 -1.81321 0
M  V30 3944 O 376.437 0.503647 -1.75413 0
M  V30 3945 C 376.488 -2.97253 -2.05725 0
M  V30 3946 O 376.209 -4.1703 -1.34228 0
M  V30 3947 C 377.71 -3.32281 -2.93435 0
M  V30 3948 H 374.93 -0.591287 -0.317208 0
M  V30 3949 H 377.474 -2.01398 -0.354834 0
M  V30 3950 H 375.629 -2.753 -2.72559 0
M  V30 3951 H 376.043 -4.84636 -2.00571 0
M  V30 3952 H 377.517 -4.19551 -3.58721 0
M  V30 3953 H 377.994 -2.49945 -3.61143 0
M  V30 3954 H 378.6 -3.56353 -2.32147 0
M  V30 3955 N 376.915 0.57481 -1.46744 0
M  V30 3956 C 378.143 1.35856 -1.56047 0
M  V30 3957 C 378.558 1.87691 -0.204365 0
M  V30 3958 O 377.915 1.64049 0.79963 0
M  V30 3959 C 377.966 2.54066 -2.57163 0
M  V30 3960 O 377.687 2.04377 -3.87507 0
M  V30 3961 C 379.188 3.46514 -2.76483 0
M  V30 3962 H 376.408 0.414754 -0.527466 0
M  V30 3963 H 378.952 0.698035 -1.92218 0
M  V30 3964 H 377.107 3.16092 -2.23974 0
M  V30 3965 H 377.521 2.81419 -4.4261 0
M  V30 3966 H 378.995 4.25919 -3.51137 0
M  V30 3967 H 379.472 3.98951 -1.83671 0
M  V30 3968 H 380.078 2.90318 -3.10799 0
M  V30 3969 N 378.394 1.34581 0.820102 0
M  V30 3970 C 379.326 1.22236 1.93884 0
M  V30 3971 C 380.339 0.148776 1.62119 0
M  V30 3972 O 381.528 0.400877 1.7394 0
M  V30 3973 C 378.628 0.856542 3.27897 0
M  V30 3974 C 377.801 2.02569 3.87666 0
M  V30 3975 C 376.86 1.63782 5.00062 0
M  V30 3976 O 375.886 2.35477 5.18208 0
M  V30 3977 N 377.088 0.553611 5.77854 0
M  V30 3978 H 379.853 2.18615 2.05006 0
M  V30 3979 H 377.414 1.27573 0.99683 0
M  V30 3980 H 379.406 0.578806 4.0054 0
M  V30 3981 H 377.976 -0.0171518 3.12595 0
M  V30 3982 H 377.196 2.468 3.07382 0
M  V30 3983 H 378.484 2.80752 4.24329 0
M  V30 3984 H 377.882 -0.0423528 5.65684 0
M  V30 3985 H 376.439 0.335614 6.50935 0
M  V30 3986 N 379.872 -1.04064 1.18357 0
M  V30 3987 C 381.149 -1.74252 0.888581 0
M  V30 3988 C 381.529 -2.02138 -0.60856 0
M  V30 3989 O 380.877 -1.66656 -1.56327 0
M  V30 3990 C 381.087 -3.0277 1.73584 0
M  V30 3991 C 382.435 -3.76506 1.96286 0
M  V30 3992 O 383.459 -3.12668 1.70637 0
M  V30 3993 O 382.318 -4.91243 2.39464 0
M  V30 3994 H 379.412 -0.758271 0.330082 0
M  V30 3995 H 381.958 -1.1013 1.2911 0
M  V30 3996 H 380.73 -2.78299 2.75073 0
M  V30 3997 H 380.353 -3.74631 1.33183 0
M  V30 3998 N 381.35 -0.985608 -1.22978 0
M  V30 3999 C 382.26 -0.538548 -2.28335 0
M  V30 4000 C 383.276 0.409163 -1.69121 0
M  V30 4001 O 384.452 0.277797 -1.99475 0
M  V30 4002 C 381.517 0.146867 -3.46389 0
M  V30 4003 C 380.578 -0.842896 -4.20944 0
M  V30 4004 C 379.811 -0.190095 -5.33361 0
M  V30 4005 O 380.034 1.01767 -5.61248 0
M  V30 4006 O 378.968 -0.891289 -5.95264 0
M  V30 4007 H 382.794 -1.41487 -2.68729 0
M  V30 4008 H 380.379 -0.753495 -1.29007 0
M  V30 4009 H 382.261 0.531125 -4.1804 0
M  V30 4010 H 380.936 0.997871 -3.07935 0
M  V30 4011 H 379.843 -1.27795 -3.51595 0
M  V30 4012 H 381.176 -1.66287 -4.6326 0
M  V30 4013 N 382.828 1.3818 -0.7579 0
M  V30 4014 C 383.758 2.33027 -0.148597 0
M  V30 4015 C 384.739 1.55085 0.69875 0
M  V30 4016 O 385.924 1.83384 0.639053 0
M  V30 4017 C 383.054 3.3928 0.742034 0
M  V30 4018 C 382.008 4.28 -0.00291946 0
M  V30 4019 C 381.334 5.25146 1.00625 0
M  V30 4020 C 382.634 5.08938 -1.17385 0
M  V30 4021 H 384.328 2.84231 -0.940909 0
M  V30 4022 H 381.874 1.36659 -0.453908 0
M  V30 4023 H 383.827 4.046 1.17799 0
M  V30 4024 H 382.551 2.86569 1.56671 0
M  V30 4025 H 381.21 3.64192 -0.419504 0
M  V30 4026 H 380.858 4.68721 1.8251 0
M  V30 4027 H 380.558 5.85361 0.512428 0
M  V30 4028 H 382.082 5.93342 1.44143 0
M  V30 4029 H 383.496 5.67474 -0.815224 0
M  V30 4030 H 381.893 5.7841 -1.59882 0
M  V30 4031 H 382.963 4.42424 -1.98468 0
M  V30 4032 N 384.306 0.507319 1.49211 0
M  V30 4033 C 385.236 -0.256939 2.32082 0
M  V30 4034 C 386.217 -0.956609 1.40652 0
M  V30 4035 O 387.402 -0.946788 1.69557 0
M  V30 4036 C 384.532 -1.31802 3.21318 0
M  V30 4037 C 383.486 -0.737855 4.21592 0
M  V30 4038 C 382.812 -1.89992 4.99807 0
M  V30 4039 C 384.112 0.275325 5.21574 0
M  V30 4040 H 385.806 0.434798 2.96226 0
M  V30 4041 H 383.352 0.210546 1.42452 0
M  V30 4042 H 385.305 -1.86045 3.78107 0
M  V30 4043 H 384.029 -2.03903 2.5513 0
M  V30 4044 H 382.688 -0.217126 3.65956 0
M  V30 4045 H 382.336 -2.60877 4.30061 0
M  V30 4046 H 382.036 -1.51777 5.6766 0
M  V30 4047 H 383.56 -2.44657 5.59442 0
M  V30 4048 H 384.974 -0.179193 5.7302 0
M  V30 4049 H 383.371 0.573649 5.97352 0
M  V30 4050 H 384.441 1.18903 4.70096 0
M  V30 4051 N 385.784 -1.5574 0.241426 0
M  V30 4052 C 387.03 -1.99104 -0.385406 0
M  V30 4053 C 387.363 -1.1293 -1.57988 0
M  V30 4054 O 386.638 -0.191449 -1.93555 0
M  V30 4055 C 386.921 -3.51087 -0.800616 0
M  V30 4056 C 386.774 -4.48028 0.398874 0
M  V30 4057 C 388.093 -4.08015 -1.64959 0
M  V30 4058 H 385.212 -0.723848 -0.138614 0
M  V30 4059 H 387.854 -1.86903 0.341642 0
M  V30 4060 H 386.004 -3.61615 -1.4201 0
M  V30 4061 H 387.676 -4.49487 1.03726 0
M  V30 4062 H 385.919 -4.21077 1.04293 0
M  V30 4063 H 386.59 -5.51962 0.0651056 0
M  V30 4064 H 389.066 -4.00555 -1.12672 0
M  V30 4065 H 387.942 -5.14635 -1.90898 0
M  V30 4066 H 388.203 -3.56131 -2.61961 0
M  V30 4067 N 387.262 0.0317525 -1.57568 0
M  V30 4068 C 388.492 0.733884 -1.93126 0
M  V30 4069 C 388.9 1.69563 -0.839352 0
M  V30 4070 O 388.243 1.82681 0.193175 0
M  V30 4071 C 388.305 1.54798 -3.24465 0
M  V30 4072 C 387.969 0.751304 -4.50782 0
M  V30 4073 C 388.966 0.0527632 -5.19873 0
M  V30 4074 C 386.651 0.706639 -4.97305 0
M  V30 4075 C 388.645 -0.679774 -6.33765 0
M  V30 4076 C 386.332 -0.0296449 -6.11093 0
M  V30 4077 C 387.33 -0.721614 -6.79177 0
M  V30 4078 O 387.018 -1.44595 -7.90789 0
M  V30 4079 H 386.75 0.211459 -0.642076 0
M  V30 4080 H 389.304 -0.00585615 -2.05399 0
M  V30 4081 H 387.534 2.33147 -3.08512 0
M  V30 4082 H 389.223 2.13247 -3.4537 0
M  V30 4083 H 389.989 0.0783188 -4.84937 0
M  V30 4084 H 385.868 1.23474 -4.44157 0
M  V30 4085 H 389.412 -1.22042 -6.86842 0
M  V30 4086 H 385.309 -0.0571331 -6.45475 0
M  V30 4087 H 386.077 -1.35935 -8.07133 0
M  V30 4088 N 388.74 1.54641 0.303973 0
M  V30 4089 C 389.688 1.86137 1.39484 0
M  V30 4090 C 390.682 0.734854 1.52631 0
M  V30 4091 O 391.888 0.918803 1.54784 0
M  V30 4092 H 388.263 0.590324 0.465856 0
M  V30 4093 H 390.234 2.77324 1.10154 0
M  V30 4094 C 388.983 2.12274 2.75382 0
M  V30 4095 H 388.306 2.98429 2.66046 0
M  V30 4096 H 389.746 2.38254 3.5073 0
M  V30 4097 C 388.205 0.920365 3.24085 0
M  V30 4098 O 388.735 0.139377 4.01458 0
M  V30 4099 N 386.941 0.726566 2.81371 0
M  V30 4100 H 386.488 1.36332 2.18567 0
M  V30 4101 H 386.446 -0.0763799 3.14307 0
M  V30 4102 N 390.218 -0.567019 1.47046 0
M  V30 4103 C 391.165 -1.67489 1.58796 0
M  V30 4104 C 392.135 -1.60399 0.43144 0
M  V30 4105 O 393.32 -1.79378 0.650233 0
M  V30 4106 C 390.46 -3.05821 1.59899 0
M  V30 4107 C 389.573 -3.2342 2.86397 0
M  V30 4108 C 388.708 -4.52093 2.789 0
M  V30 4109 C 387.747 -4.6309 4.00267 0
M  V30 4110 N 386.884 -5.83106 3.91064 0
M  V30 4111 H 391.724 -1.56785 2.53422 0
M  V30 4112 H 389.261 -0.763896 1.2571 0
M  V30 4113 H 391.219 -3.8591 1.58522 0
M  V30 4114 H 389.849 -3.15384 0.687929 0
M  V30 4115 H 388.901 -2.3683 2.97684 0
M  V30 4116 H 390.213 -3.27412 3.76301 0
M  V30 4117 H 389.367 -5.4043 2.75718 0
M  V30 4118 H 388.106 -4.50565 1.86662 0
M  V30 4119 H 387.111 -3.73168 4.03765 0
M  V30 4120 H 388.336 -4.66386 4.93621 0
M  V30 4121 H 386.282 -5.82546 3.01623 0
M  V30 4122 H 386.199 -5.88434 4.74638 0
M  V30 4123 H 387.467 -6.73831 3.91882 0
M  V30 4124 N 391.696 -1.35014 -0.812953 0
M  V30 4125 C 392.644 -1.27435 -1.94585 0
M  V30 4126 C 393.638 -0.170494 -1.6854 0
M  V30 4127 O 394.844 -0.336085 -1.76835 0
M  V30 4128 H 391.219 -0.396144 -0.639198 0
M  V30 4129 H 393.19 -2.23158 -1.98098 0
M  V30 4130 C 391.939 -1.05677 -3.31252 0
M  V30 4131 H 391.262 -1.89853 -3.51846 0
M  V30 4132 H 392.702 -1.04413 -4.10943 0
M  V30 4133 C 391.161 0.239615 -3.36047 0
M  V30 4134 O 391.691 1.23759 -3.8216 0
M  V30 4135 N 389.897 0.276186 -2.89285 0
M  V30 4136 H 389.444 -0.53653 -2.51951 0
M  V30 4137 H 389.402 1.14332 -2.92875 0
M  V30 4138 N 393.175 1.03435 -1.18907 0
M  V30 4139 C 394.107 2.1165 -0.879595 0
M  V30 4140 C 395.12 1.62316 0.125439 0
M  V30 4141 O 396.309 1.78201 -0.103245 0
M  V30 4142 C 393.409 3.37622 -0.294042 0
M  V30 4143 C 392.582 4.16166 -1.34629 0
M  V30 4144 C 391.641 5.20457 -0.775274 0
M  V30 4145 O 390.667 5.50379 -1.4516 0
M  V30 4146 N 391.869 5.78949 0.424126 0
M  V30 4147 H 394.634 2.38791 -1.81105 0
M  V30 4148 H 392.195 1.19681 -1.09032 0
M  V30 4149 H 394.187 4.04572 0.101679 0
M  V30 4150 H 392.757 3.07873 0.541575 0
M  V30 4151 H 391.977 3.44444 -1.91707 0
M  V30 4152 H 393.265 4.65432 -2.05549 0
M  V30 4153 H 392.663 5.56948 0.991209 0
M  V30 4154 H 391.22 6.47334 0.761691 0
M  V30 4155 N 394.653 0.992116 1.22453 0
M  V30 4156 C 395.603 0.512969 2.22155 0
M  V30 4157 C 396.587 -0.418416 1.55364 0
M  V30 4158 O 397.779 -0.245363 1.75291 0
M  V30 4159 C 394.908 -0.171822 3.4287 0
M  V30 4160 C 393.994 0.779822 4.16869 0
M  V30 4161 N 394.385 1.92734 4.6764 0
M  V30 4162 C 392.683 0.59554 4.42006 0
M  V30 4163 C 393.384 2.52458 5.24061 0
M  V30 4164 N 392.36 1.80735 5.12675 0
M  V30 4165 H 396.162 1.38817 2.5905 0
M  V30 4166 H 393.676 0.854277 1.38115 0
M  V30 4167 H 395.673 -0.532469 4.13486 0
M  V30 4168 H 394.333 -1.04317 3.07487 0
M  V30 4169 H 395.344 2.30816 4.63621 0
M  V30 4170 H 392.021 -0.229805 4.16867 0
M  V30 4171 H 393.411 3.49433 5.73887 0
M  V30 4172 N 396.131 -1.37776 0.765217 0
M  V30 4173 C 397.063 -2.28958 0.105361 0
M  V30 4174 C 398.076 -1.48316 -0.67128 0
M  V30 4175 O 399.265 -1.71046 -0.51045 0
M  V30 4176 C 396.365 -3.27421 -0.874569 0
M  V30 4177 C 395.538 -4.37132 -0.153123 0
M  V30 4178 C 394.597 -5.1571 -1.04547 0
M  V30 4179 O 393.623 -5.66896 -0.511672 0
M  V30 4180 N 394.825 -5.29808 -2.37243 0
M  V30 4181 H 397.59 -2.86227 0.888495 0
M  V30 4182 H 395.151 -1.49682 0.617 0
M  V30 4183 H 397.143 -3.7687 -1.47483 0
M  V30 4184 H 395.713 -2.70967 -1.55871 0
M  V30 4185 H 394.933 -3.89166 0.627975 0
M  V30 4186 H 396.221 -5.07625 0.345643 0
M  V30 4187 H 395.619 -4.89793 -2.83054 0
M  V30 4188 H 394.176 -5.82589 -2.9229 0
M  V30 4189 N 397.609 -0.515225 -1.4894 0
M  V30 4190 C 398.837 0.0206034 -2.0689 0
M  V30 4191 C 399.252 1.29514 -1.37374 0
M  V30 4192 O 398.609 1.76698 -0.456529 0
M  V30 4193 C 398.66 0.26351 -3.60538 0
M  V30 4194 O 398.381 -0.960517 -4.27441 0
M  V30 4195 C 399.882 0.841383 -4.35242 0
M  V30 4196 H 397.102 -0.0268608 -0.670462 0
M  V30 4197 H 399.646 -0.716651 -1.91532 0
M  V30 4198 H 397.801 0.950777 -3.75552 0
M  V30 4199 H 398.215 -0.73212 -5.19365 0
M  V30 4200 H 399.689 0.96085 -5.43573 0
M  V30 4201 H 400.166 1.8427 -3.98674 0
M  V30 4202 H 400.772 0.191143 -4.2487 0
M  V30 4203 N 399.087 1.5561 -0.249682 0
M  V30 4204 C 400.034 2.21496 0.648694 0
M  V30 4205 C 401.004 1.17977 1.16921 0
M  V30 4206 O 402.189 1.46434 1.22318 0
M  V30 4207 C 399.329 2.92039 1.83868 0
M  V30 4208 C 398.442 4.10219 1.35442 0
M  V30 4209 C 397.577 4.6847 2.50419 0
M  V30 4210 C 396.616 5.78893 1.98869 0
M  V30 4211 N 395.753 6.31315 3.07223 0
M  V30 4212 H 400.593 2.97892 0.0801582 0
M  V30 4213 H 398.13 1.47074 0.0278031 0
M  V30 4214 H 400.088 3.31138 2.53778 0
M  V30 4215 H 398.718 2.18111 2.37965 0
M  V30 4216 H 397.77 3.76413 0.54928 0
M  V30 4217 H 399.082 4.89927 0.936649 0
M  V30 4218 H 398.236 5.10158 3.28366 0
M  V30 4219 H 396.975 3.87984 2.95499 0
M  V30 4220 H 395.98 5.3668 1.19393 0
M  V30 4221 H 397.205 6.61232 1.54755 0
M  V30 4222 H 395.151 5.53733 3.51732 0
M  V30 4223 H 395.068 7.06224 2.69784 0
M  V30 4224 H 396.336 6.77662 3.8522 0
M  V30 4225 N 400.565 -0.0233959 1.57583 0
M  V30 4226 C 401.513 -1.04063 2.08023 0
M  V30 4227 C 402.507 -1.37084 0.995204 0
M  V30 4228 O 403.713 -1.35923 1.18004 0
M  V30 4229 H 400.088 -0.353144 0.663922 0
M  V30 4230 H 402.059 -0.589453 2.9252 0
M  V30 4231 C 400.808 -2.33123 2.57971 0
M  V30 4232 H 400.131 -2.08577 3.4108 0
M  V30 4233 H 401.571 -3.02632 2.96967 0
M  V30 4234 C 400.03 -3.02483 1.48342 0
M  V30 4235 O 400.56 -3.92541 0.852898 0
M  V30 4236 N 398.766 -2.63909 1.21658 0
M  V30 4237 H 398.313 -1.90758 1.73116 0
M  V30 4238 H 398.271 -3.10633 0.485218 0
M  V30 4239 N 402.043 -1.548 -0.295768 0
M  V30 4240 C 402.973 -1.89115 -1.36959 0
M  V30 4241 C 403.954 -0.75059 -1.52644 0
M  V30 4242 O 405.139 -1.00678 -1.66065 0
M  V30 4243 C 402.269 -2.14307 -2.73295 0
M  V30 4244 C 401.223 -3.30151 -2.72368 0
M  V30 4245 C 400.549 -3.40772 -4.12042 0
M  V30 4246 C 401.849 -4.67126 -2.33646 0
M  V30 4247 H 403.543 -2.79053 -1.08488 0
M  V30 4248 H 401.089 -1.34266 -0.520443 0
M  V30 4249 H 403.042 -2.36898 -3.48507 0
M  V30 4250 H 401.766 -1.21145 -3.03301 0
M  V30 4251 H 400.425 -3.0749 -1.99613 0
M  V30 4252 H 400.073 -2.45117 -4.39234 0
M  V30 4253 H 399.773 -4.18645 -4.12322 0
M  V30 4254 H 401.297 -3.6563 -4.89027 0
M  V30 4255 H 402.711 -4.89414 -2.98575 0
M  V30 4256 H 401.108 -5.47751 -2.45129 0
M  V30 4257 H 402.178 -4.67489 -1.28772 0
M  V30 4258 N 403.521 0.559213 -1.47345 0
M  V30 4259 C 404.746 1.34676 -1.57725 0
M  V30 4260 C 405.171 1.86723 -0.227164 0
M  V30 4261 O 404.529 1.6286 0.796642 0
M  V30 4262 C 404.577 2.49399 -2.60447 0
M  V30 4263 O 403.681 3.51567 -2.15578 0
M  V30 4264 H 403.022 0.400115 -0.52991 0
M  V30 4265 H 405.552 0.676009 -1.93109 0
M  V30 4266 H 405.562 2.95996 -2.80803 0
M  V30 4267 H 404.237 2.10873 -3.58477 0
M  V30 4268 H 402.814 3.11289 -2.05313 0
M  V30 4269 N 404.999 1.35443 0.805782 0
M  V30 4270 C 405.931 1.24285 1.92577 0
M  V30 4271 C 406.944 0.165962 1.61952 0
M  V30 4272 O 408.133 0.419303 1.73505 0
M  V30 4273 C 405.233 0.891272 3.2697 0
M  V30 4274 C 404.406 2.06669 3.85495 0
M  V30 4275 C 403.465 1.69077 4.98297 0
M  V30 4276 O 402.491 2.4096 5.15681 0
M  V30 4277 N 403.693 0.614869 5.77234 0
M  V30 4278 H 406.458 2.20777 2.02676 0
M  V30 4279 H 404.019 1.28623 0.983243 0
M  V30 4280 H 406.011 0.621256 3.99903 0
M  V30 4281 H 404.581 0.016004 3.12596 0
M  V30 4282 H 403.801 2.50046 3.04747 0
M  V30 4283 H 405.089 2.85237 4.21328 0
M  V30 4284 H 404.487 0.017648 5.65697 0
M  V30 4285 H 403.044 0.404636 6.50543 0
M  V30 4286 N 406.477 -1.02803 1.19454 0
M  V30 4287 C 407.754 -1.73299 0.907013 0
M  V30 4288 C 408.134 -2.02772 -0.587086 0
M  V30 4289 O 407.482 -1.68304 -1.54551 0
M  V30 4290 C 407.692 -3.00912 1.76785 0
M  V30 4291 C 409.04 -3.74403 2.00268 0
M  V30 4292 O 410.064 -3.10841 1.73943 0
M  V30 4293 O 408.923 -4.88675 2.4466 0
M  V30 4294 H 406.017 -0.754727 0.338106 0
M  V30 4295 H 408.563 -1.08754 1.30271 0
M  V30 4296 H 407.335 -2.75366 2.7801 0
M  V30 4297 H 406.958 -3.73197 1.37149 0
M  V30 4298 N 407.956 -0.998596 -1.21925 0
M  V30 4299 C 408.888 -0.511879 -2.23411 0
M  V30 4300 C 409.901 0.396094 -1.57908 0
M  V30 4301 O 411.09 0.197316 -1.77406 0
M  V30 4302 C 408.19 0.276802 -3.37768 0
M  V30 4303 C 407.363 -0.628687 -4.32858 0
M  V30 4304 C 406.422 0.109272 -5.26087 0
M  V30 4305 O 405.448 -0.507237 -5.66935 0
M  V30 4306 N 406.65 1.38983 -5.63617 0
M  V30 4307 H 409.415 -1.38457 -2.658 0
M  V30 4308 H 406.976 -0.873981 -1.36283 0
M  V30 4309 H 408.968 0.77928 -3.97126 0
M  V30 4310 H 407.538 1.05063 -2.94415 0
M  V30 4311 H 406.758 -1.31175 -3.71735 0
M  V30 4312 H 408.046 -1.24514 -4.93329 0
M  V30 4313 H 407.444 1.91194 -5.32411 0
M  V30 4314 H 406.001 1.83739 -6.25367 0
M  V30 4315 N 409.434 1.37368 -0.772513 0
M  V30 4316 C 410.344 2.34053 -0.160081 0
M  V30 4317 C 411.36 1.60216 0.678728 0
M  V30 4318 O 412.536 1.92303 0.59847 0
M  V30 4319 C 409.601 3.3939 0.708182 0
M  V30 4320 C 408.662 4.29048 -0.147172 0
M  V30 4321 C 407.895 5.29354 0.679744 0
M  V30 4322 O 408.118 5.3723 1.91678 0
M  V30 4323 O 407.052 6.01835 0.0885444 0
M  V30 4324 H 410.878 2.88159 -0.959053 0
M  V30 4325 H 408.463 1.39543 -0.533685 0
M  V30 4326 H 410.345 4.03839 1.20384 0
M  V30 4327 H 409.02 2.8761 1.48533 0
M  V30 4328 H 407.927 3.67697 -0.689205 0
M  V30 4329 H 409.26 4.84134 -0.887423 0
M  V30 4330 N 410.912 0.523116 1.48665 0
M  V30 4331 C 411.862 -0.263106 2.26477 0
M  V30 4332 C 412.846 -0.916005 1.32281 0
M  V30 4333 O 414.038 -0.819946 1.56863 0
M  V30 4334 C 411.167 -1.31361 3.17174 0
M  V30 4335 C 410.253 -0.665849 4.1884 0
M  V30 4336 N 410.644 0.244434 5.05209 0
M  V30 4337 C 408.942 -0.923863 4.36326 0
M  V30 4338 C 409.643 0.617443 5.78414 0
M  V30 4339 N 408.619 -0.0198686 5.43596 0
M  V30 4340 H 412.421 0.437295 2.90629 0
M  V30 4341 H 409.935 0.340675 1.58787 0
M  V30 4342 H 411.932 -1.89052 3.71571 0
M  V30 4343 H 410.592 -2.01546 2.54576 0
M  V30 4344 H 411.603 0.616621 5.14216 0
M  V30 4345 H 408.28 -1.6168 3.84923 0
M  V30 4346 H 409.67 1.36346 6.57921 0
M  V30 4347 N 412.39 -1.55475 0.257931 0
M  V30 4348 C 413.638 -1.98813 -0.363009 0
M  V30 4349 C 413.959 -1.14757 -1.57657 0
M  V30 4350 O 413.229 -0.232956 -1.9451 0
M  V30 4351 H 411.809 -0.734308 -0.137113 0
M  V30 4352 H 414.471 -1.9156 0.359281 0
M  V30 4353 H 413.567 -3.04941 -0.664634 0
M  V30 4354 N 413.868 0.0150385 -1.57593 0
M  V30 4355 C 415.284 0.370907 -1.5523 0
M  V30 4356 C 415.484 1.75735 -0.985882 0
M  V30 4357 O 414.54 2.44944 -0.613077 0
M  V30 4358 C 415.853 0.259908 -2.99575 0
M  V30 4359 C 417.401 0.335959 -3.11192 0
M  V30 4360 C 417.876 0.254253 -4.57294 0
M  V30 4361 N 419.367 0.312618 -4.62144 0
M  V30 4362 C 420.102 0.272505 -5.72752 0
M  V30 4363 N 419.598 0.183864 -6.92556 0
M  V30 4364 N 421.391 0.323267 -5.6117 0
M  V30 4365 H 413.542 -0.892104 -1.92757 0
M  V30 4366 H 415.805 -0.340563 -0.884715 0
M  V30 4367 H 415.511 -0.693403 -3.44797 0
M  V30 4368 H 415.385 1.048 -3.62349 0
M  V30 4369 H 417.772 1.27971 -2.65909 0
M  V30 4370 H 417.853 -0.481739 -2.51223 0
M  V30 4371 H 417.497 -0.685887 -5.03247 0
M  V30 4372 H 417.427 1.09024 -5.15191 0
M  V30 4373 H 419.918 0.38307 -3.75953 0
M  V30 4374 H 420.231 0.15874 -7.72637 0
M  V30 4375 H 418.576 0.149708 -6.94839 0
M  V30 4376 H 421.767 0.390607 -4.66467 0
M  V30 4377 H 421.94 0.288539 -6.47357 0
M  V30 4378 N 415.346 1.54954 0.287554 0
M  V30 4379 C 416.293 1.86834 1.35505 0
M  V30 4380 C 417.263 0.718452 1.49758 0
M  V30 4381 O 418.448 0.968358 1.644 0
M  V30 4382 C 415.588 2.13303 2.71286 0
M  V30 4383 C 414.701 3.40883 2.65373 0
M  V30 4384 C 413.836 3.57125 3.93236 0
M  V30 4385 C 412.875 4.78449 3.81776 0
M  V30 4386 N 412.012 4.91426 5.01443 0
M  V30 4387 H 416.852 2.77889 1.07619 0
M  V30 4388 H 414.389 1.37593 0.520241 0
M  V30 4389 H 416.347 2.26646 3.50267 0
M  V30 4390 H 414.977 1.25499 2.97405 0
M  V30 4391 H 414.029 3.36088 1.78182 0
M  V30 4392 H 415.341 4.29993 2.52799 0
M  V30 4393 H 414.495 3.70207 4.80658 0
M  V30 4394 H 413.234 2.66173 4.0866 0
M  V30 4395 H 412.239 4.65386 2.92738 0
M  V30 4396 H 413.464 5.70822 3.67884 0
M  V30 4397 H 411.41 4.03401 5.17304 0
M  V30 4398 H 411.327 5.74559 4.91343 0
M  V30 4399 H 412.595 5.08879 5.90477 0
M  V30 4400 N 416.824 -0.551391 1.4764 0
M  V30 4401 C 417.787 -1.64007 1.60107 0
M  V30 4402 C 418.787 -1.53601 0.47576 0
M  V30 4403 O 419.977 -1.57655 0.740988 0
M  V30 4404 C 417.109 -3.03569 1.55108 0
M  V30 4405 H 418.302 -1.543 2.57161 0
M  V30 4406 H 415.855 -0.771776 1.35917 0
M  V30 4407 H 416.59 -3.18804 0.594519 0
M  V30 4408 H 416.375 -3.12532 2.36783 0
M  V30 4409 H 417.865 -3.82762 1.66982 0
M  V30 4410 N 418.302 -1.35869 -0.798587 0
M  V30 4411 C 419.252 -1.25982 -1.90033 0
M  V30 4412 C 420.236 -0.153303 -1.60168 0
M  V30 4413 O 421.428 -0.38527 -1.72756 0
M  V30 4414 C 418.557 -1.04211 -3.27101 0
M  V30 4415 C 417.643 -2.19289 -3.63006 0
M  V30 4416 N 418.034 -3.44559 -3.70287 0
M  V30 4417 C 416.332 -2.10852 -3.93011 0
M  V30 4418 C 417.033 -4.20283 -4.02166 0
M  V30 4419 N 416.009 -3.49124 -4.16669 0
M  V30 4420 H 419.811 -2.20883 -1.93876 0
M  V30 4421 H 417.325 -1.28457 -0.993614 0
M  V30 4422 H 419.322 -0.952155 -4.05881 0
M  V30 4423 H 417.982 -0.102013 -3.2454 0
M  V30 4424 H 418.993 -3.7881 -3.53162 0
M  V30 4425 H 415.67 -1.24744 -3.98428 0
M  V30 4426 H 417.06 -5.28575 -4.14799 0
M  V30 4427 N 419.78 1.02168 -1.19998 0
M  V30 4428 C 420.727 2.10601 -0.944228 0
M  V30 4429 C 421.697 1.65639 0.123664 0
M  V30 4430 O 422.882 1.9079 -0.0199941 0
M  V30 4431 C 420.022 3.41504 -0.496865 0
M  V30 4432 C 419.135 3.99973 -1.63234 0
M  V30 4433 C 418.27 5.18915 -1.13579 0
M  V30 4434 C 417.309 5.69456 -2.24468 0
M  V30 4435 N 416.446 6.79665 -1.76068 0
M  V30 4436 H 421.286 2.31814 -1.8726 0
M  V30 4437 H 418.823 1.13686 -0.933483 0
M  V30 4438 H 420.781 4.16626 -0.218843 0
M  V30 4439 H 419.411 3.2038 0.394508 0
M  V30 4440 H 418.463 3.21997 -2.0254 0
M  V30 4441 H 419.775 4.33492 -2.46752 0
M  V30 4442 H 418.929 6.01222 -0.813429 0
M  V30 4443 H 417.668 4.8695 -0.270434 0
M  V30 4444 H 416.673 4.85757 -2.57526 0
M  V30 4445 H 417.898 6.03459 -3.11472 0
M  V30 4446 H 415.844 6.49538 -0.918516 0
M  V30 4447 H 415.761 7.12349 -2.5317 0
M  V30 4448 H 417.029 7.65549 -1.46817 0
M  V30 4449 N 421.258 1.00505 1.21394 0
M  V30 4450 C 422.507 0.683159 1.89778 0
M  V30 4451 C 422.82 -0.789471 1.7896 0
M  V30 4452 O 424.026 -1.22344 2.42372 0
M  V30 4453 C 422.482 1.17146 3.40301 0
M  V30 4454 C 422.09 2.67017 3.5973 0
M  V30 4455 C 423.834 0.924461 4.14311 0
M  V30 4456 C 421.741 3.09387 5.04017 0
M  V30 4457 H 420.671 0.25183 0.710702 0
M  V30 4458 H 423.322 1.21622 1.37406 0
M  V30 4459 H 421.704 0.566451 3.91928 0
M  V30 4460 H 422.878 3.32968 3.18542 0
M  V30 4461 H 421.193 2.89732 2.99073 0
M  V30 4462 H 423.79 1.21658 5.20676 0
M  V30 4463 H 424.133 -0.139286 4.16067 0
M  V30 4464 H 424.666 1.49226 3.6875 0
M  V30 4465 H 421.405 4.14989 5.07409 0
M  V30 4466 H 420.925 2.48149 5.46061 0
M  V30 4467 H 422.604 3.01371 5.72525 0
M  V30 4468 N 422.737 -1.36956 0.779787 0
M  V30 4469 C 423.962 -2.04283 0.358224 0
M  V30 4470 C 424.387 -1.58422 -1.01411 0
M  V30 4471 O 423.745 -0.748179 -1.65142 0
M  V30 4472 C 423.793 -3.58152 0.419479 0
M  V30 4473 O 422.897 -4.08342 -0.577142 0
M  V30 4474 H 422.238 -0.645967 0.153698 0
M  V30 4475 H 424.768 -1.75108 1.05822 0
M  V30 4476 H 424.778 -4.07041 0.279636 0
M  V30 4477 H 423.453 -3.90886 1.42061 0
M  V30 4478 H 422.03 -3.70751 -0.399755 0
M  V30 4479 N 424.215 -0.530993 -1.48385 0
M  V30 4480 C 425.445 -0.00133928 -2.066 0
M  V30 4481 C 425.853 1.28599 -1.38777 0
M  V30 4482 O 425.196 1.77599 -0.469495 0
M  V30 4483 C 425.258 0.292137 -3.58311 0
M  V30 4484 C 424.922 -0.901864 -4.48013 0
M  V30 4485 C 425.919 -1.80053 -4.87726 0
M  V30 4486 C 423.604 -1.10915 -4.89901 0
M  V30 4487 C 425.598 -2.89038 -5.68098 0
M  V30 4488 C 423.285 -2.20213 -5.70043 0
M  V30 4489 C 424.283 -3.09107 -6.0905 0
M  V30 4490 O 423.971 -4.16514 -6.87583 0
M  V30 4491 H 423.703 -0.0308475 -0.675296 0
M  V30 4492 H 426.257 -0.736335 -1.91748 0
M  V30 4493 H 424.487 1.08112 -3.7128 0
M  V30 4494 H 426.176 0.763994 -3.98645 0
M  V30 4495 H 426.942 -1.65234 -4.55986 0
M  V30 4496 H 422.821 -0.426498 -4.59023 0
M  V30 4497 H 426.365 -3.58451 -5.98464 0
M  V30 4498 H 422.262 -2.35016 -6.01197 0
M  V30 4499 H 423.03 -4.14237 -7.05939 0
M  V30 4500 N 425.693 1.55336 -0.266172 0
M  V30 4501 C 427.104 1.85236 0.233315 0
M  V30 4502 C 427.455 1.18816 1.56132 0
M  V30 4503 O 426.58 0.473307 2.11161 0
M  V30 4504 C 427.175 3.36059 0.430113 0
M  V30 4505 C 425.734 3.66116 0.873842 0
M  V30 4506 C 424.881 2.77274 -0.0380016 0
M  V30 4507 H 427.832 1.51004 -0.488214 0
M  V30 4508 H 427.853 3.58681 1.26998 0
M  V30 4509 H 427.365 3.84373 -0.536588 0
M  V30 4510 H 425.466 3.23295 1.85233 0
M  V30 4511 H 425.579 4.73699 0.717358 0
M  V30 4512 H 423.943 2.50198 0.476759 0
M  V30 4513 H 424.726 3.284 -1.00042 0
M  V30 4514 N 427.171 -0.0066808 1.57599 0
M  V30 4515 C 428.396 -0.707738 1.94951 0
M  V30 4516 C 428.821 -1.66882 0.867868 0
M  V30 4517 O 428.179 -1.80457 -0.17458 0
M  V30 4518 C 428.227 -1.42162 3.31394 0
M  V30 4519 O 427.331 -2.53578 3.25226 0
M  V30 4520 H 426.672 -0.188752 0.636607 0
M  V30 4521 H 429.202 0.0445193 2.04552 0
M  V30 4522 H 429.212 -1.78655 3.66806 0
M  V30 4523 H 427.887 -0.716903 4.09675 0
M  V30 4524 H 426.464 -2.19463 3.01481 0
M  V30 4525 N 428.649 -1.55105 -0.279332 0
M  V30 4526 C 429.874 -1.7976 -1.03446 0
M  V30 4527 C 430.299 -0.565952 -1.79384 0
M  V30 4528 O 429.657 0.484259 -1.74713 0
M  V30 4529 C 429.705 -3.0179 -1.97371 0
M  V30 4530 O 428.809 -2.76432 -3.06038 0
M  V30 4531 H 428.15 -0.594334 -0.29608 0
M  V30 4532 H 430.68 -2.02235 -0.310165 0
M  V30 4533 H 430.69 -3.30351 -2.39441 0
M  V30 4534 H 429.365 -3.91085 -1.4151 0
M  V30 4535 H 427.942 -2.58949 -2.68328 0
M  V30 4536 N 430.127 0.543554 -1.4793 0
M  V30 4537 C 431.543 0.870806 -1.3375 0
M  V30 4538 C 431.743 1.9864 -0.338261 0
M  V30 4539 O 430.799 2.51305 0.245371 0
M  V30 4540 C 432.112 1.25114 -2.73435 0
M  V30 4541 C 433.66 1.3618 -2.81823 0
M  V30 4542 C 434.135 1.77563 -4.22179 0
M  V30 4543 N 435.626 1.8469 -4.24787 0
M  V30 4544 C 436.361 2.18067 -5.30315 0
M  V30 4545 N 435.857 2.49963 -6.46135 0
M  V30 4546 N 437.65 2.18958 -5.17701 0
M  V30 4547 H 429.801 -0.19275 -2.11524 0
M  V30 4548 H 432.064 -0.0235777 -0.947707 0
M  V30 4549 H 431.77 0.50514 -3.48053 0
M  V30 4550 H 431.644 2.20431 -3.06088 0
M  V30 4551 H 434.031 2.09859 -2.07468 0
M  V30 4552 H 434.112 0.390169 -2.52807 0
M  V30 4553 H 433.756 1.04449 -4.97044 0
M  V30 4554 H 433.686 2.75753 -4.48629 0
M  V30 4555 H 436.177 1.62372 -3.41239 0
M  V30 4556 H 436.49 2.74497 -7.22406 0
M  V30 4557 H 434.835 2.47513 -6.49432 0
M  V30 4558 H 438.026 1.93488 -4.2624 0
M  V30 4559 H 438.199 2.44639 -6.00047 0
M  V30 4560 N 431.605 1.3629 0.791371 0
M  V30 4561 C 432.833 1.33562 1.58016 0
M  V30 4562 C 433.248 -0.0835616 1.88615 0
M  V30 4563 O 432.605 -1.0399 1.49974 0
M  V30 4564 C 432.656 2.15517 2.90232 0
M  V30 4565 O 432.377 3.51902 2.60953 0
M  V30 4566 C 433.878 2.20546 3.84544 0
M  V30 4567 H 431.098 0.458226 0.490173 0
M  V30 4568 H 433.642 1.79361 0.982345 0
M  V30 4569 H 431.797 1.73278 3.46487 0
M  V30 4570 H 432.211 3.94644 3.4548 0
M  V30 4571 H 433.685 2.82252 4.74382 0
M  V30 4572 H 434.162 1.20838 4.2225 0
M  V30 4573 H 434.768 2.63013 3.34222 0
M  V30 4574 N 433.083 -1.0153 1.20538 0
M  V30 4575 C 433.993 -2.13557 0.971113 0
M  V30 4576 C 435.009 -1.73845 -0.0734366 0
M  V30 4577 O 436.185 -2.01075 0.114299 0
M  V30 4578 C 433.25 -3.42661 0.527639 0
M  V30 4579 C 432.311 -3.96608 1.64319 0
M  V30 4580 C 431.544 -5.1955 1.22078 0
M  V30 4581 O 431.767 -5.70329 0.0900198 0
M  V30 4582 O 430.701 -5.66681 2.02871 0
M  V30 4583 H 434.527 -2.3619 1.90913 0
M  V30 4584 H 432.112 -1.11946 0.989362 0
M  V30 4585 H 433.994 -4.20404 0.289621 0
M  V30 4586 H 432.669 -3.21441 -0.381779 0
M  V30 4587 H 431.576 -3.20139 1.93551 0
M  V30 4588 H 432.909 -4.22219 2.52966 0
M  V30 4589 N 434.561 -1.01147 -1.20859 0
M  V30 4590 C 435.471 -0.58686 -2.27141 0
M  V30 4591 C 436.487 0.373198 -1.69951 0
M  V30 4592 O 437.663 0.235423 -2.00019 0
M  V30 4593 C 434.728 0.0733602 -3.46622 0
M  V30 4594 C 433.789 -0.931995 -4.19061 0
M  V30 4595 C 433.022 -0.303186 -5.32838 0
M  V30 4596 O 433.245 0.898395 -5.63281 0
M  V30 4597 O 432.179 -1.01735 -5.9324 0
M  V30 4598 H 436.005 -1.47155 -2.65667 0
M  V30 4599 H 433.59 -0.780689 -1.2738 0
M  V30 4600 H 435.472 0.442333 -4.19072 0
M  V30 4601 H 434.147 0.932329 -3.09983 0
M  V30 4602 H 433.054 -1.35224 -3.48805 0
M  V30 4603 H 434.387 -1.76076 -4.59628 0
M  V30 4604 N 436.039 1.36541 -0.78704 0
M  V30 4605 C 437.455 1.52571 -0.46844 0
M  V30 4606 C 437.655 1.7415 1.01361 0
M  V30 4607 O 436.711 1.77163 1.79915 0
M  V30 4608 C 438.024 2.71299 -1.29682 0
M  V30 4609 C 439.572 2.85169 -1.29027 0
M  V30 4610 C 440.047 4.06898 -2.10233 0
M  V30 4611 N 441.538 4.1404 -2.07666 0
M  V30 4612 C 442.273 5.07301 -2.67271 0
M  V30 4613 N 441.769 6.06021 -3.35724 0
M  V30 4614 N 443.562 4.99898 -2.57018 0
M  V30 4615 H 435.713 1.20788 -1.74711 0
M  V30 4616 H 437.976 0.589364 -0.742532 0
M  V30 4617 H 437.682 2.61868 -2.34773 0
M  V30 4618 H 437.556 3.6539 -0.936479 0
M  V30 4619 H 439.943 2.94062 -0.247284 0
M  V30 4620 H 440.024 1.91992 -1.69035 0
M  V30 4621 H 439.668 3.98766 -3.1456 0
M  V30 4622 H 439.598 4.99218 -1.67597 0
M  V30 4623 H 442.089 3.43357 -1.57843 0
M  V30 4624 H 442.402 6.73741 -3.78541 0
M  V30 4625 H 440.747 6.06253 -3.39826 0
M  V30 4626 H 443.938 4.21724 -2.03142 0
M  V30 4627 H 444.111 5.72392 -3.03761 0
M  V30 4628 N 437.518 0.538854 1.48102 0
M  V30 4629 C 438.45 -0.256278 2.27763 0
M  V30 4630 C 439.463 -0.89633 1.35904 0
M  V30 4631 O 440.652 -0.773275 1.60881 0
M  V30 4632 C 437.752 -1.37896 3.09577 0
M  V30 4633 C 436.925 -0.839159 4.29275 0
M  V30 4634 C 435.984 -1.84405 4.9283 0
M  V30 4635 O 435.01 -1.39746 5.51779 0
M  V30 4636 N 436.212 -3.17666 4.85869 0
M  V30 4637 H 438.977 0.426968 2.96643 0
M  V30 4638 H 436.538 0.373747 1.57527 0
M  V30 4639 H 438.53 -2.04955 3.48963 0
M  V30 4640 H 437.1 -1.96572 2.4306 0
M  V30 4641 H 436.32 0.00769287 3.94199 0
M  V30 4642 H 437.608 -0.457548 5.06739 0
M  V30 4643 H 437.006 -3.56609 4.39143 0
M  V30 4644 H 435.563 -3.80334 5.29329 0
M  V30 4645 N 438.996 -1.55193 0.274407 0
M  V30 4646 C 439.926 -2.25471 -0.607032 0
M  V30 4647 C 440.907 -1.24461 -1.15946 0
M  V30 4648 O 442.092 -1.53179 -1.19373 0
M  V30 4649 C 439.222 -2.97526 -1.79153 0
M  V30 4650 C 438.176 -4.05459 -1.37067 0
M  V30 4651 C 437.502 -4.65084 -2.6382 0
M  V30 4652 C 438.802 -5.19691 -0.521389 0
M  V30 4653 H 440.496 -2.99393 -0.0209343 0
M  V30 4654 H 438.042 -1.43997 -0.00862866 0
M  V30 4655 H 439.995 -3.45402 -2.41404 0
M  V30 4656 H 438.719 -2.21138 -2.40344 0
M  V30 4657 H 437.378 -3.58393 -0.771355 0
M  V30 4658 H 437.026 -3.85365 -3.23268 0
M  V30 4659 H 436.726 -5.37961 -2.36372 0
M  V30 4660 H 438.25 -5.15708 -3.26921 0
M  V30 4661 H 439.664 -5.63623 -1.04889 0
M  V30 4662 H 438.061 -5.99126 -0.341825 0
M  V30 4663 H 439.131 -4.82713 0.46 0
M  V30 4664 N 440.474 -0.00167713 -1.576 0
M  V30 4665 C 441.424 0.997744 -2.0501 0
M  V30 4666 C 442.408 1.30214 -0.94515 0
M  V30 4667 O 443.6 1.29284 -1.20891 0
M  V30 4668 C 440.729 2.2892 -2.55833 0
M  V30 4669 C 439.815 2.01437 -3.73208 0
M  V30 4670 N 440.206 1.44119 -4.84833 0
M  V30 4671 C 438.504 2.31571 -3.8117 0
M  V30 4672 C 439.205 1.33145 -5.66257 0
M  V30 4673 N 438.181 1.81763 -5.12312 0
M  V30 4674 H 441.983 0.549098 -2.88725 0
M  V30 4675 H 439.497 0.20398 -1.61114 0
M  V30 4676 H 441.494 3.01361 -2.88075 0
M  V30 4677 H 440.154 2.74436 -1.73537 0
M  V30 4678 H 441.165 1.11978 -5.0565 0
M  V30 4679 H 437.842 2.7995 -3.09732 0
M  V30 4680 H 439.232 0.890567 -6.65972 0
M  V30 4681 N 441.952 1.55251 0.271103 0
M  V30 4682 C 442.902 1.84649 1.33749 0
M  V30 4683 C 443.886 0.705529 1.44607 0
M  V30 4684 O 445.078 0.966916 1.48256 0
M  V30 4685 C 442.207 2.12354 2.69742 0
M  V30 4686 C 441.293 3.32714 2.62988 0
M  V30 4687 N 441.684 4.52575 2.25853 0
M  V30 4688 C 439.982 3.35341 2.94045 0
M  V30 4689 C 440.683 5.34669 2.29136 0
M  V30 4690 N 439.659 4.73123 2.67685 0
M  V30 4691 H 443.461 2.74865 1.0405 0
M  V30 4692 H 440.975 1.55152 0.479738 0
M  V30 4693 H 442.972 2.31572 3.4667 0
M  V30 4694 H 441.632 1.23422 3.00328 0
M  V30 4695 H 442.643 4.78639 1.978 0
M  V30 4696 H 439.32 2.56608 3.2933 0
M  V30 4697 H 440.71 6.40509 2.02971 0
M  V30 4698 N 443.43 -0.535701 1.48216 0
M  V30 4699 C 444.678 -1.28928 1.55634 0
M  V30 4700 C 444.999 -1.93645 0.229514 0
M  V30 4701 O 444.269 -1.81038 -0.74846 0
M  V30 4702 H 442.849 -0.47884 0.573342 0
M  V30 4703 H 445.511 -0.623853 1.84646 0
M  V30 4704 H 444.607 -2.07157 2.33436 0
M  V30 4705 N 444.908 -1.36708 -0.784132 0
M  V30 4706 C 445.818 -1.3363 -1.92822 0
M  V30 4707 C 446.834 -0.237686 -1.72369 0
M  V30 4708 O 448.01 -0.470962 -1.95816 0
M  V30 4709 C 445.075 -1.13011 -3.27764 0
M  V30 4710 C 444.136 -2.32397 -3.60957 0
M  V30 4711 C 443.369 -2.12752 -4.89461 0
M  V30 4712 O 443.592 -1.10541 -5.59586 0
M  V30 4713 O 442.526 -3.00653 -5.21432 0
M  V30 4714 H 446.352 -2.29964 -1.98369 0
M  V30 4715 H 443.937 -1.1731 -0.925136 0
M  V30 4716 H 445.819 -1.03451 -4.08504 0
M  V30 4717 H 444.494 -0.19743 -3.23097 0
M  V30 4718 H 443.401 -2.47527 -2.80502 0
M  V30 4719 H 444.734 -3.2419 -3.70354 0
M  V30 4720 N 446.386 1.0089 -1.21074 0
M  V30 4721 C 447.333 2.09588 -0.966512 0
M  V30 4722 C 448.303 1.65761 0.106089 0
M  V30 4723 O 449.488 1.90758 -0.0402287 0
M  V30 4724 C 446.628 3.40958 -0.533058 0
M  V30 4725 C 445.741 3.9822 -1.67467 0
M  V30 4726 C 444.876 5.17682 -1.19076 0
M  V30 4727 C 443.915 5.67043 -2.30496 0
M  V30 4728 N 443.052 6.77759 -1.83267 0
M  V30 4729 H 447.892 2.29815 -1.89708 0
M  V30 4730 H 445.429 1.12689 -0.945489 0
M  V30 4731 H 447.387 4.1637 -0.263019 0
M  V30 4732 H 446.017 3.20781 0.360505 0
M  V30 4733 H 445.069 3.1983 -2.05944 0
M  V30 4734 H 446.381 4.3085 -2.51336 0
M  V30 4735 H 445.535 6.00326 -0.877151 0
M  V30 4736 H 444.274 4.86635 -0.322066 0
M  V30 4737 H 443.279 4.82999 -2.62664 0
M  V30 4738 H 444.504 6.00121 -3.17855 0
M  V30 4739 H 442.45 6.48527 -0.987356 0
M  V30 4740 H 442.367 7.09624 -2.60711 0
M  V30 4741 H 443.635 7.63949 -1.54928 0
M  V30 4742 N 447.864 1.01787 1.20321 0
M  V30 4743 C 449.089 0.727009 1.9424 0
M  V30 4744 C 449.514 -0.706179 1.74341 0
M  V30 4745 O 448.872 -1.48609 1.03852 0
M  V30 4746 C 448.92 1.06958 3.44372 0
M  V30 4747 O 448.024 0.181983 4.11998 0
M  V30 4748 H 447.365 0.269626 0.606793 0
M  V30 4749 H 449.895 1.36158 1.52716 0
M  V30 4750 H 449.905 1.02182 3.94997 0
M  V30 4751 H 448.58 2.11378 3.58179 0
M  V30 4752 H 447.157 0.287378 3.71791 0
M  V30 4753 N 449.342 -1.36122 0.79427 0
M  V30 4754 C 450.588 -1.99406 0.369452 0
M  V30 4755 C 450.921 -1.62886 -1.05743 0
M  V30 4756 O 450.196 -0.886053 -1.73145 0
M  V30 4757 C 450.479 -3.56046 0.538833 0
M  V30 4758 C 450.332 -4.02404 2.00976 0
M  V30 4759 C 451.651 -4.40079 -0.0431359 0
M  V30 4760 H 448.77 -0.724397 0.135712 0
M  V30 4761 H 451.412 -1.61461 1.00151 0
M  V30 4762 H 449.562 -3.885 0.000771004 0
M  V30 4763 H 451.234 -3.80415 2.60926 0
M  V30 4764 H 449.477 -3.53765 2.51063 0
M  V30 4765 H 450.148 -5.11344 2.07922 0
M  V30 4766 H 452.624 -4.14013 0.416228 0
M  V30 4767 H 451.5 -5.48799 0.105374 0
M  V30 4768 H 451.761 -4.27264 -1.13571 0
M  V30 4769 N 450.82 -0.546701 -1.47814 0
M  V30 4770 C 451.752 0.244196 -2.27895 0
M  V30 4771 C 452.765 0.88911 -1.36377 0
M  V30 4772 O 453.954 0.764733 -1.61289 0
M  V30 4773 C 451.054 1.36252 -3.10304 0
M  V30 4774 C 450.227 0.816382 -4.29714 0
M  V30 4775 C 449.286 1.81789 -4.93801 0
M  V30 4776 O 448.312 1.36818 -5.52512 0
M  V30 4777 N 449.514 3.15085 -4.87547 0
M  V30 4778 H 452.279 -0.442694 -2.96412 0
M  V30 4779 H 449.84 -0.382095 -1.57327 0
M  V30 4780 H 451.832 2.03102 -3.50045 0
M  V30 4781 H 450.402 1.95281 -2.44099 0
M  V30 4782 H 449.622 -0.0285981 -3.9419 0
M  V30 4783 H 450.91 0.430668 -5.06974 0
M  V30 4784 H 450.308 3.54275 -4.41028 0
M  V30 4785 H 448.865 3.77522 -5.31339 0
M  V30 4786 N 452.299 1.55045 -0.282633 0
M  V30 4787 C 453.246 2.22822 0.601566 0
M  V30 4788 C 454.216 1.20431 1.14392 0
M  V30 4789 O 455.401 1.48996 1.19184 0
M  V30 4790 C 452.541 2.95873 1.77632 0
M  V30 4791 C 451.654 4.12999 1.26711 0
M  V30 4792 C 450.789 4.73676 2.40426 0
M  V30 4793 C 449.828 5.82981 1.86545 0
M  V30 4794 N 448.965 6.3769 2.93762 0
M  V30 4795 H 453.805 2.97995 0.0169528 0
M  V30 4796 H 451.342 1.471 -0.00339964 0
M  V30 4797 H 453.3 3.36447 2.46697 0
M  V30 4798 H 451.93 2.2311 2.33285 0
M  V30 4799 H 450.982 3.77494 0.469314 0
M  V30 4800 H 452.294 4.91803 0.832518 0
M  V30 4801 H 451.448 5.17008 3.17471 0
M  V30 4802 H 450.187 3.94164 2.87203 0
M  V30 4803 H 449.192 5.39092 1.07983 0
M  V30 4804 H 450.417 6.64366 1.40694 0
M  V30 4805 H 448.363 5.61069 3.39908 0
M  V30 4806 H 448.28 7.11788 2.54744 0
M  V30 4807 H 449.548 6.8568 3.7076 0
M  V30 4808 N 453.777 0.010035 1.57597 0
M  V30 4809 C 455.054 -0.710296 1.82248 0
M  V30 4810 C 455.434 -1.91426 0.889911 0
M  V30 4811 O 454.782 -2.28424 -0.0590292 0
M  V30 4812 C 454.992 -1.10655 3.30993 0
M  V30 4813 C 456.34 -1.50621 3.96987 0
M  V30 4814 O 457.364 -1.20007 3.35375 0
M  V30 4815 O 456.223 -2.07587 5.05539 0
M  V30 4816 H 453.317 -0.34673 0.750804 0
M  V30 4817 H 455.863 0.0362578 1.69661 0
M  V30 4818 H 454.635 -0.248826 3.90508 0
M  V30 4819 H 454.258 -1.91189 3.48615 0
M  V30 4820 N 455.255 -1.55392 -0.262866 0
M  V30 4821 C 456.501 -1.76737 -0.99458 0
M  V30 4822 C 456.834 -0.572453 -1.85571 0
M  V30 4823 O 456.109 0.429732 -1.89693 0
M  V30 4824 C 456.392 -3.07824 -1.8686 0
M  V30 4825 C 456.245 -4.3769 -1.03672 0
M  V30 4826 C 457.564 -3.35021 -2.85393 0
M  V30 4827 H 454.683 -0.643005 -0.360157 0
M  V30 4828 H 457.325 -1.88126 -0.266216 0
M  V30 4829 H 455.475 -2.98245 -2.48962 0
M  V30 4830 H 457.147 -4.59238 -0.43563 0
M  V30 4831 H 455.39 -4.32461 -0.340513 0
M  V30 4832 H 456.061 -5.25759 -1.6817 0
M  V30 4833 H 458.537 -3.44458 -2.33426 0
M  V30 4834 H 457.413 -4.27989 -3.43681 0
M  V30 4835 H 457.674 -2.55153 -3.61039 0
M  V30 4836 N 456.733 0.527833 -1.48498 0
M  V30 4837 C 457.958 1.313 -1.60546 0
M  V30 4838 C 458.383 1.86199 -0.26672 0
M  V30 4839 O 457.741 1.64513 0.761918 0
M  V30 4840 C 457.789 2.43818 -2.65678 0
M  V30 4841 O 456.893 3.46916 -2.22987 0
M  V30 4842 H 456.234 0.388784 -0.538277 0
M  V30 4843 H 458.764 0.634896 -1.945 0
M  V30 4844 H 458.774 2.89973 -2.87018 0
M  V30 4845 H 457.449 2.03222 -3.62869 0
M  V30 4846 H 456.026 3.06864 -2.11869 0
M  V30 4847 N 458.211 1.37122 0.776871 0
M  V30 4848 C 459.158 1.3247 1.88998 0
M  V30 4849 C 460.128 0.191143 1.64997 0
M  V30 4850 O 461.313 0.379683 1.86984 0
M  V30 4851 C 458.453 1.13241 3.25992 0
M  V30 4852 C 457.566 2.35782 3.61982 0
M  V30 4853 C 456.701 2.09465 4.88158 0
M  V30 4854 C 455.74 3.279 5.16864 0
M  V30 4855 N 454.877 3.01167 6.34226 0
M  V30 4856 H 459.717 2.27642 1.9231 0
M  V30 4857 H 457.254 1.13125 0.94027 0
M  V30 4858 H 459.212 1.00115 4.0501 0
M  V30 4859 H 457.842 0.217186 3.22069 0
M  V30 4860 H 456.894 2.59666 2.77989 0
M  V30 4861 H 458.206 3.24125 3.79137 0
M  V30 4862 H 457.36 1.93341 5.75069 0
M  V30 4863 H 456.099 1.18452 4.73097 0
M  V30 4864 H 455.104 3.44569 4.2843 0
M  V30 4865 H 456.329 4.19757 5.33836 0
M  V30 4866 H 454.275 2.12779 6.20533 0
M  V30 4867 H 454.192 3.83052 6.51772 0
M  V30 4868 H 455.46 2.88649 7.24087 0
M  V30 4869 N 459.689 -1.00246 1.21608 0
M  V30 4870 C 460.937 -1.73717 1.0328 0
M  V30 4871 C 461.258 -1.90102 -0.434318 0
M  V30 4872 O 460.528 -1.45376 -1.31311 0
M  V30 4873 H 459.108 -0.643613 0.379172 0
M  V30 4874 H 461.77 -1.20787 1.52959 0
M  V30 4875 H 460.866 -2.73535 1.50283 0
M  V30 4876 N 461.167 -1.02423 -1.1978 0
M  V30 4877 C 462.392 -0.7373 -1.93852 0
M  V30 4878 C 462.817 0.696923 -1.74713 0
M  V30 4879 O 462.175 1.48056 -1.04638 0
M  V30 4880 C 462.223 -1.08783 -3.438 0
M  V30 4881 O 461.327 -0.20383 -4.11896 0
M  V30 4882 H 460.668 -0.27284 -0.605355 0
M  V30 4883 H 463.198 -1.36966 -1.51992 0
M  V30 4884 H 463.208 -1.04276 -3.9445 0
M  V30 4885 H 461.883 -2.13274 -3.57053 0
M  V30 4886 H 460.46 -0.307091 -3.71633 0
M  V30 4887 N 462.645 1.35699 -0.801477 0
M  V30 4888 C 463.894 1.98165 -0.375979 0
M  V30 4889 C 464.207 1.64306 1.06127 0
M  V30 4890 O 465.413 2.20097 1.58964 0
M  V30 4891 C 463.869 3.54497 -0.621305 0
M  V30 4892 C 463.477 3.9727 -2.07076 0
M  V30 4893 C 465.221 4.23697 -0.26091 0
M  V30 4894 C 463.128 5.46427 -2.26211 0
M  V30 4895 H 462.058 0.741478 -0.136844 0
M  V30 4896 H 464.709 1.54834 -0.984814 0
M  V30 4897 H 463.091 3.95958 0.0574112 0
M  V30 4898 H 464.265 3.66974 -2.78687 0
M  V30 4899 H 462.58 3.40943 -2.39054 0
M  V30 4900 H 465.177 5.33334 -0.381994 0
M  V30 4901 H 465.52 4.0869 0.792344 0
M  V30 4902 H 466.053 3.87639 -0.893339 0
M  V30 4903 H 462.792 5.66396 -3.29963 0
M  V30 4904 H 462.312 5.78309 -1.59119 0
M  V30 4905 H 463.991 6.12819 -2.07513 0
M  V30 4906 N 464.123 0.554532 1.47522 0
M  V30 4907 C 465.348 0.0322661 2.07375 0
M  V30 4908 C 465.773 -1.25079 1.40488 0
M  V30 4909 O 465.131 -1.74859 0.47896 0
M  V30 4910 C 465.179 -0.149397 3.6029 0
M  V30 4911 O 464.283 -1.21259 3.9417 0
M  V30 4912 H 463.624 0.0501228 0.662106 0
M  V30 4913 H 466.154 0.769452 1.8958 0
M  V30 4914 H 466.164 -0.364437 4.06369 0
M  V30 4915 H 464.839 0.787743 4.08372 0
M  V30 4916 H 463.416 -0.97825 3.5984 0
M  V30 4917 N 465.601 -1.54893 0.290851 0
M  V30 4918 C 466.85 -1.99111 -0.322113 0
M  V30 4919 C 467.163 -1.18283 -1.55784 0
M  V30 4920 O 468.369 -1.5272 -2.24475 0
M  V30 4921 C 466.825 -3.54442 -0.624438 0
M  V30 4922 C 466.433 -4.44066 0.592373 0
M  V30 4923 C 468.177 -4.07211 -1.19916 0
M  V30 4924 C 466.084 -5.90812 0.263762 0
M  V30 4925 H 465.014 -0.743712 -0.124133 0
M  V30 4926 H 467.665 -1.79132 0.39797 0
M  V30 4927 H 466.047 -3.70281 -1.40384 0
M  V30 4928 H 467.221 -4.39999 1.36886 0
M  V30 4929 H 465.536 -4.02015 1.08502 0
M  V30 4930 H 468.133 -5.14407 -1.45909 0
M  V30 4931 H 468.476 -3.57196 -2.13815 0
M  V30 4932 H 469.009 -3.94873 -0.481687 0
M  V30 4933 H 465.748 -6.44955 1.17105 0
M  V30 4934 H 465.268 -5.97911 -0.475655 0
M  V30 4935 H 466.947 -6.46852 -0.138354 0
M  V30 4936 N 467.08 -0.0183926 -1.57589 0
M  V30 4937 C 468.012 0.995557 -2.06449 0
M  V30 4938 C 469.025 1.29556 -0.985849 0
M  V30 4939 O 470.214 1.2621 -1.26227 0
M  V30 4940 C 467.314 2.32572 -2.46502 0
M  V30 4941 C 466.487 2.21245 -3.77319 0
M  V30 4942 C 465.546 3.37104 -4.04039 0
M  V30 4943 O 464.572 3.14468 -4.74445 0
M  V30 4944 N 465.774 4.60553 -3.53372 0
M  V30 4945 H 468.539 0.578746 -2.94059 0
M  V30 4946 H 466.1 0.168603 -1.6102 0
M  V30 4947 H 468.092 3.08887 -2.61478 0
M  V30 4948 H 466.662 2.65931 -1.64315 0
M  V30 4949 H 465.882 1.29723 -3.72244 0
M  V30 4950 H 467.17 2.10868 -4.63047 0
M  V30 4951 H 466.568 4.81839 -2.96391 0
M  V30 4952 H 465.125 5.34072 -3.73644 0
M  V30 4953 N 468.558 1.5553 0.254621 0
M  V30 4954 C 469.786 1.81046 1.00149 0
M  V30 4955 C 470.201 0.593047 1.79244 0
M  V30 4956 O 469.558 -0.438196 1.77161 0
M  V30 4957 C 469.609 3.04684 1.94551 0
M  V30 4958 O 469.33 4.21725 1.18658 0
M  V30 4959 C 470.831 3.42943 2.80901 0
M  V30 4960 H 468.051 0.602653 0.295044 0
M  V30 4961 H 470.595 2.02576 0.279842 0
M  V30 4962 H 468.75 2.85226 2.62154 0
M  V30 4963 H 469.164 4.91746 1.82445 0
M  V30 4964 H 470.638 4.32576 3.42902 0
M  V30 4965 H 471.115 2.63176 3.51617 0
M  V30 4966 H 471.721 3.64724 2.18762 0
M  V30 4967 N 470.036 -0.519951 1.48776 0
M  V30 4968 C 470.946 -1.65025 1.66745 0
M  V30 4969 C 471.962 -1.6508 0.549954 0
M  V30 4970 O 473.138 -1.83848 0.822295 0
M  V30 4971 C 470.203 -3.0146 1.71238 0
M  V30 4972 C 469.264 -3.12182 2.94688 0
M  V30 4973 C 468.497 -4.42109 2.98958 0
M  V30 4974 O 468.72 -5.29799 2.1135 0
M  V30 4975 O 467.654 -4.57406 3.91233 0
M  V30 4976 H 471.48 -1.52801 2.62461 0
M  V30 4977 H 469.065 -0.694157 1.32294 0
M  V30 4978 H 470.947 -3.82584 1.76657 0
M  V30 4979 H 469.622 -3.13988 0.786975 0
M  V30 4980 H 468.529 -2.30316 2.94797 0
M  V30 4981 H 469.862 -3.04574 3.86646 0
M  V30 4982 N 471.514 -1.37532 -0.769588 0
M  V30 4983 C 472.424 -1.35668 -1.91393 0
M  V30 4984 C 473.44 -0.255954 -1.72107 0
M  V30 4985 O 474.616 -0.491704 -1.95305 0
M  V30 4986 C 471.681 -1.16481 -3.26547 0
M  V30 4987 C 470.742 -2.36212 -3.58472 0
M  V30 4988 C 469.975 -2.17932 -4.87177 0
M  V30 4989 O 470.198 -1.1647 -5.58382 0
M  V30 4990 O 469.132 -3.06167 -5.18214 0
M  V30 4991 H 472.958 -2.32055 -1.95918 0
M  V30 4992 H 470.543 -1.18284 -0.912641 0
M  V30 4993 H 472.425 -1.07778 -4.07384 0
M  V30 4994 H 471.1 -0.231687 -3.2287 0
M  V30 4995 H 470.007 -2.50488 -2.77861 0
M  V30 4996 H 471.34 -3.281 -3.66894 0
M  V30 4997 N 472.992 0.995999 -1.22138 0
M  V30 4998 C 473.939 2.08551 -0.988687 0
M  V30 4999 C 474.909 1.65864 0.0885021 0
M  V30 5000 O 476.094 1.90704 -0.0604589 0
M  V30 5001 C 473.234 3.40374 -0.569191 0
M  V30 5002 C 472.347 3.96421 -1.71681 0
M  V30 5003 C 471.482 5.1639 -1.2456 0
M  V30 5004 C 470.521 5.64567 -2.36497 0
M  V30 5005 N 469.658 6.75777 -1.90445 0
M  V30 5006 H 474.498 2.2779 -1.92135 0
M  V30 5007 H 472.035 1.1168 -0.957388 0
M  V30 5008 H 473.993 4.16068 -0.307166 0
M  V30 5009 H 472.623 3.21145 0.326462 0
M  V30 5010 H 471.675 3.17628 -2.09324 0
M  V30 5011 H 472.987 4.2816 -2.55891 0
M  V30 5012 H 472.141 5.99362 -0.940774 0
M  V30 5013 H 470.88 4.86266 -0.373662 0
M  V30 5014 H 469.885 4.80185 -2.67772 0
M  V30 5015 H 471.11 5.96716 -3.24202 0
M  V30 5016 H 469.056 6.47443 -1.05609 0
M  V30 5017 H 468.973 7.06818 -2.68223 0
M  V30 5018 H 470.241 7.62262 -1.63022 0
M  V30 5019 N 474.47 1.03057 1.19235 0
M  V30 5020 C 475.719 0.72326 1.88287 0
M  V30 5021 C 476.032 -0.751333 1.80594 0
M  V30 5022 O 477.238 -1.17176 2.44912 0
M  V30 5023 C 475.694 1.24338 3.3774 0
M  V30 5024 C 475.302 2.74587 3.53986 0
M  V30 5025 C 477.046 1.01213 4.12257 0
M  V30 5026 C 474.953 3.20009 4.97341 0
M  V30 5027 H 473.883 0.266848 0.705201 0
M  V30 5028 H 476.534 1.24509 1.34795 0
M  V30 5029 H 474.916 0.649457 3.90638 0
M  V30 5030 H 476.09 3.39649 3.11408 0
M  V30 5031 H 474.405 2.9601 2.9286 0
M  V30 5032 H 477.002 1.32675 5.17978 0
M  V30 5033 H 477.345 -0.051001 4.16269 0
M  V30 5034 H 477.878 1.57014 3.65501 0
M  V30 5035 H 474.617 4.25659 4.98493 0
M  V30 5036 H 474.137 2.59676 5.40674 0
M  V30 5037 H 475.816 3.13447 5.66003 0
M  V30 5038 N 475.948 -1.35272 0.808662 0
M  V30 5039 C 476.898 -2.27181 0.193124 0
M  V30 5040 C 477.882 -1.47871 -0.634265 0
M  V30 5041 O 479.074 -1.70048 -0.491182 0
M  V30 5042 C 476.203 -3.36979 -0.655751 0
M  V30 5043 C 475.289 -4.23712 0.181481 0
M  V30 5044 N 475.68 -4.90225 1.24551 0
M  V30 5045 C 473.978 -4.45985 -0.0365493 0
M  V30 5046 C 474.679 -5.54537 1.75682 0
M  V30 5047 N 473.655 -5.33107 1.06294 0
M  V30 5048 H 477.457 -2.76101 1.00724 0
M  V30 5049 H 474.971 -1.48823 0.650029 0
M  V30 5050 H 476.968 -4.01774 -1.11279 0
M  V30 5051 H 475.628 -2.89611 -1.46819 0
M  V30 5052 H 476.639 -4.91641 1.62818 0
M  V30 5053 H 473.316 -4.09409 -0.817964 0
M  V30 5054 H 474.706 -6.17597 2.64621 0
M  V30 5055 N 477.426 -0.562348 -1.47226 0
M  V30 5056 C 478.674 -0.0401371 -2.0206 0
M  V30 5057 C 478.995 1.3165 -1.43852 0
M  V30 5058 O 478.265 1.85976 -0.615599 0
M  V30 5059 H 476.845 -0.0118479 -0.746906 0
M  V30 5060 H 479.507 -0.73352 -1.8057 0
M  V30 5061 H 478.603 0.0441254 -3.12069 0
M  V30 5062 N 478.904 1.54736 -0.299062 0
M  V30 5063 C 479.851 2.23448 0.577899 0
M  V30 5064 C 480.821 1.21637 1.13109 0
M  V30 5065 O 482.006 1.50252 1.17597 0
M  V30 5066 C 479.146 2.9774 1.74484 0
M  V30 5067 C 478.259 4.1432 1.22323 0
M  V30 5068 C 477.394 4.76199 2.35388 0
M  V30 5069 C 476.433 5.84927 1.80351 0
M  V30 5070 N 475.57 6.4077 2.86982 0
M  V30 5071 H 480.41 2.97996 -0.0146545 0
M  V30 5072 H 477.947 1.47088 -0.0190013 0
M  V30 5073 H 479.905 3.39045 2.43114 0
M  V30 5074 H 478.535 2.25572 2.30905 0
M  V30 5075 H 477.587 3.7797 0.429249 0
M  V30 5076 H 478.899 4.92659 0.780309 0
M  V30 5077 H 478.053 5.20346 3.11969 0
M  V30 5078 H 476.792 3.97188 2.83006 0
M  V30 5079 H 475.797 5.40207 1.02259 0
M  V30 5080 H 477.022 6.65821 1.3364 0
M  V30 5081 H 474.968 5.64643 3.33938 0
M  V30 5082 H 474.885 7.1445 2.4718 0
M  V30 5083 H 476.153 6.89574 3.63466 0
M  V30 5084 N 480.382 0.0267497 1.57577 0
M  V30 5085 C 481.607 -0.666227 1.96408 0
M  V30 5086 C 482.032 -1.65004 0.903071 0
M  V30 5087 O 481.39 -1.80787 -0.136263 0
M  V30 5088 C 481.438 -1.35101 3.34335 0
M  V30 5089 O 480.542 -2.46623 3.30531 0
M  V30 5090 H 479.883 -0.175206 0.640468 0
M  V30 5091 H 482.413 0.0878977 2.04411 0
M  V30 5092 H 482.423 -1.70834 3.70513 0
M  V30 5093 H 481.098 -0.629844 4.11103 0
M  V30 5094 H 479.675 -2.13019 3.06068 0
M  V30 5095 N 481.861 -1.55662 -0.24637 0
M  V30 5096 C 482.793 -1.86811 -1.32794 0
M  V30 5097 C 483.806 -0.754413 -1.44265 0
M  V30 5098 O 484.995 -1.03253 -1.45606 0
M  V30 5099 C 482.095 -2.0397 -2.70646 0
M  V30 5100 C 481.268 -3.34832 -2.81436 0
M  V30 5101 C 480.327 -3.41727 -4.00136 0
M  V30 5102 O 479.353 -4.14934 -3.89639 0
M  V30 5103 N 480.555 -2.71058 -5.1333 0
M  V30 5104 H 483.32 -2.80174 -1.06409 0
M  V30 5105 H 480.881 -1.55906 -0.43647 0
M  V30 5106 H 482.873 -2.05924 -3.48393 0
M  V30 5107 H 481.443 -1.1735 -2.89738 0
M  V30 5108 H 480.663 -3.4519 -1.90361 0
M  V30 5109 H 481.951 -4.21085 -2.85595 0
M  V30 5110 H 481.349 -2.11314 -5.2475 0
M  V30 5111 H 479.906 -2.78704 -5.89209 0
M  V30 5112 N 483.339 0.512053 -1.4905 0
M  V30 5113 C 484.287 1.63568 -1.65373 0
M  V30 5114 C 485.281 1.61228 -0.519806 0
M  V30 5115 O 486.487 1.65869 -0.699101 0
M  V30 5116 H 482.862 0.542019 -0.521267 0
M  V30 5117 H 484.833 1.4695 -2.59708 0
M  V30 5118 C 483.582 3.01761 -1.7273 0
M  V30 5119 H 482.905 3.04263 -2.59353 0
M  V30 5120 H 484.345 3.79948 -1.8819 0
M  V30 5121 C 482.804 3.33609 -0.46973 0
M  V30 5122 O 483.334 3.99607 0.409492 0
M  V30 5123 N 481.54 2.88651 -0.336003 0
M  V30 5124 H 481.087 2.35119 -1.05247 0
M  V30 5125 H 481.045 3.10328 0.504363 0
M  V30 5126 N 484.817 1.37938 0.762283 0
M  V30 5127 C 485.749 1.30349 1.88525 0
M  V30 5128 C 486.762 0.217402 1.61342 0
M  V30 5129 O 487.951 0.474291 1.72084 0
M  V30 5130 C 485.051 0.994844 3.23969 0
M  V30 5131 C 484.224 2.18829 3.78725 0
M  V30 5132 C 483.283 1.84844 4.92665 0
M  V30 5133 O 482.309 2.57244 5.07754 0
M  V30 5134 N 483.511 0.798201 5.74986 0
M  V30 5135 H 486.276 2.27114 1.95549 0
M  V30 5136 H 483.837 1.31686 0.941825 0
M  V30 5137 H 485.829 0.748168 3.97724 0
M  V30 5138 H 484.399 0.115446 3.12387 0
M  V30 5139 H 483.619 2.59615 2.96637 0
M  V30 5140 H 484.907 2.98497 4.1204 0
M  V30 5141 H 484.305 0.197611 5.65355 0
M  V30 5142 H 482.862 0.611396 6.48926 0
M  V30 5143 N 486.295 -0.989507 1.22664 0
M  V30 5144 C 487.541 -1.7321 1.05481 0
M  V30 5145 C 487.874 -1.89852 -0.408635 0
M  V30 5146 O 487.149 -1.44416 -1.30285 0
M  V30 5147 C 487.432 -3.1357 1.77047 0
M  V30 5148 C 487.285 -3.04555 3.31008 0
M  V30 5149 C 488.604 -4.12812 1.5256 0
M  V30 5150 H 485.723 -0.628697 0.384589 0
M  V30 5151 H 488.365 -1.15258 1.51049 0
M  V30 5152 H 486.515 -3.63046 1.3831 0
M  V30 5153 H 488.187 -2.62674 3.7921 0
M  V30 5154 H 486.43 -2.41278 3.6051 0
M  V30 5155 H 487.101 -4.03894 3.76263 0
M  V30 5156 H 489.577 -3.72106 1.86215 0
M  V30 5157 H 488.453 -5.09132 2.05124 0
M  V30 5158 H 488.714 -4.39711 0.458936 0
M  V30 5159 N 487.773 -1.03688 -1.18687 0
M  V30 5160 C 489.001 -0.757918 -1.92518 0
M  V30 5161 C 489.416 0.684398 -1.75959 0
M  V30 5162 O 488.773 1.46617 -1.08673 0
M  V30 5163 C 488.824 -1.10985 -3.44042 0
M  V30 5164 O 488.545 -2.49554 -3.60076 0
M  V30 5165 C 490.046 -0.854844 -4.3498 0
M  V30 5166 H 487.266 -0.276699 -0.611293 0
M  V30 5167 H 489.81 -1.38352 -1.50595 0
M  V30 5168 H 487.965 -0.529279 -3.83767 0
M  V30 5169 H 488.379 -2.6291 -4.53849 0
M  V30 5170 H 489.853 -1.15098 -5.39867 0
M  V30 5171 H 490.33 0.210507 -4.38695 0
M  V30 5172 H 490.936 -1.41853 -4.00946 0
M  V30 5173 N 489.251 1.34841 -0.815825 0
M  V30 5174 C 490.5 1.97755 -0.396976 0
M  V30 5175 C 490.813 1.65422 1.04379 0
M  V30 5176 O 492.019 2.21771 1.5662 0
M  V30 5177 C 490.475 3.53818 -0.658869 0
M  V30 5178 C 490.083 3.95051 -2.11278 0
M  V30 5179 C 491.827 4.23397 -0.305834 0
M  V30 5180 C 489.734 5.43997 -2.31994 0
M  V30 5181 H 488.664 0.739985 -0.1447 0
M  V30 5182 H 491.315 1.53781 -1.00118 0
M  V30 5183 H 489.697 3.95997 0.0154112 0
M  V30 5184 H 490.871 3.63998 -2.82564 0
M  V30 5185 H 489.186 3.38388 -2.42657 0
M  V30 5186 H 491.783 5.32899 -0.43854 0
M  V30 5187 H 492.126 4.09508 0.748952 0
M  V30 5188 H 492.659 3.8667 -0.934403 0
M  V30 5189 H 489.398 5.62865 -3.35952 0
M  V30 5190 H 488.918 5.76589 -1.65244 0
M  V30 5191 H 490.597 6.10584 -2.14001 0
M  V30 5192 N 490.729 0.570148 1.46925 0
M  V30 5193 C 491.679 -0.190921 2.27199 0
M  V30 5194 C 492.663 -0.873457 1.35128 0
M  V30 5195 O 493.855 -0.769627 1.59392 0
M  V30 5196 C 490.984 -1.21204 3.21192 0
M  V30 5197 C 490.07 -0.532261 4.20747 0
M  V30 5198 N 490.461 0.405038 5.04176 0
M  V30 5199 C 488.759 -0.784582 4.39045 0
M  V30 5200 C 489.46 0.801149 5.76157 0
M  V30 5201 N 488.436 0.153082 5.43384 0
M  V30 5202 H 492.238 0.529535 2.8909 0
M  V30 5203 H 489.752 0.391019 1.57622 0
M  V30 5204 H 491.749 -1.77135 3.77398 0
M  V30 5205 H 490.409 -1.93345 2.6086 0
M  V30 5206 H 491.42 0.779903 5.11994 0
M  V30 5207 H 488.097 -1.49352 3.89872 0
M  V30 5208 H 489.487 1.57208 6.5325 0
M  V30 5209 N 492.207 -1.54576 0.307264 0
M  V30 5210 C 493.432 -2.05139 -0.305379 0
M  V30 5211 C 493.857 -1.18278 -1.46259 0
M  V30 5212 O 493.215 -0.188243 -1.8032 0
M  V30 5213 C 493.263 -3.53066 -0.733283 0
M  V30 5214 O 492.367 -3.69206 -1.83741 0
M  V30 5215 H 491.708 -0.661444 -0.0582105 0
M  V30 5216 H 494.238 -1.99569 0.450931 0
M  V30 5217 H 494.248 -3.95034 -1.02039 0
M  V30 5218 H 492.923 -4.15746 0.113198 0
M  V30 5219 H 491.5 -3.39143 -1.55037 0
M  V30 5220 N 493.685 -0.035106 -1.57561 0
M  V30 5221 C 494.617 0.973604 -2.07494 0
M  V30 5222 C 495.63 1.28504 -0.999534 0
M  V30 5223 O 496.819 1.24864 -1.27559 0
M  V30 5224 C 493.919 2.29945 -2.48955 0
M  V30 5225 C 493.092 2.1723 -3.79644 0
M  V30 5226 C 492.151 3.328 -4.07592 0
M  V30 5227 O 491.177 3.09418 -4.77754 0
M  V30 5228 N 492.379 4.56779 -3.58236 0
M  V30 5229 H 495.144 0.547525 -2.94656 0
M  V30 5230 H 492.705 0.151515 -1.61189 0
M  V30 5231 H 494.697 3.06097 -2.64739 0
M  V30 5232 H 493.267 2.64173 -1.67126 0
M  V30 5233 H 492.487 1.25768 -3.73599 0
M  V30 5234 H 493.775 2.05945 -4.65257 0
M  V30 5235 H 493.173 4.78668 -3.01485 0
M  V30 5236 H 491.73 5.30079 -3.79288 0
M  V30 5237 N 495.163 1.55791 0.238111 0
M  V30 5238 C 496.44 1.68798 0.98826 0
M  V30 5239 C 496.82 0.577562 2.03045 0
M  V30 5240 O 496.168 -0.41778 2.24648 0
M  V30 5241 C 496.378 3.09454 1.61367 0
M  V30 5242 C 497.726 3.68335 2.11221 0
M  V30 5243 O 498.75 3.1231 1.71292 0
M  V30 5244 O 497.609 4.6657 2.84561 0
M  V30 5245 H 494.703 0.686881 0.460568 0
M  V30 5246 H 497.249 1.68118 0.231202 0
M  V30 5247 H 496.021 3.81726 0.860295 0
M  V30 5248 H 495.644 3.14182 2.4367 0
M  V30 5249 N 496.642 -0.504142 1.49319 0
M  V30 5250 C 497.574 -1.62265 1.61872 0
M  V30 5251 C 498.587 -1.54881 0.501573 0
M  V30 5252 O 499.776 -1.6087 0.773497 0
M  V30 5253 C 496.876 -3.01042 1.55651 0
M  V30 5254 C 496.049 -3.33642 2.82845 0
M  V30 5255 C 495.108 -4.51816 2.69719 0
M  V30 5256 O 494.134 -4.53755 3.4365 0
M  V30 5257 N 495.336 -5.51543 1.81055 0
M  V30 5258 H 498.101 -1.51924 2.58339 0
M  V30 5259 H 495.662 -0.691954 1.46368 0
M  V30 5260 H 497.654 -3.78013 1.44528 0
M  V30 5261 H 496.224 -3.05323 0.670546 0
M  V30 5262 H 495.444 -2.45598 3.08343 0
M  V30 5263 H 496.732 -3.5222 3.67177 0
M  V30 5264 H 496.13 -5.52774 1.20241 0
M  V30 5265 H 494.687 -6.27629 1.75856 0
M  V30 5266 N 498.12 -1.38341 -0.754957 0
M  V30 5267 C 499.03 -1.3769 -1.89944 0
M  V30 5268 C 500.046 -0.274194 -1.71826 0
M  V30 5269 O 501.222 -0.512391 -1.94773 0
M  V30 5270 C 498.287 -1.19938 -3.25293 0
M  V30 5271 C 497.348 -2.40001 -3.55946 0
M  V30 5272 C 496.581 -2.23087 -4.84838 0
M  V30 5273 O 496.804 -1.22386 -5.57116 0
M  V30 5274 O 495.738 -3.11646 -5.14937 0
M  V30 5275 H 499.564 -2.3412 -1.93446 0
M  V30 5276 H 497.149 -1.19246 -0.900044 0
M  V30 5277 H 499.031 -1.12093 -4.06218 0
M  V30 5278 H 497.706 -0.265919 -3.22606 0
M  V30 5279 H 496.613 -2.53421 -2.75188 0
M  V30 5280 H 497.946 -3.31973 -3.63394 0
M  V30 5281 N 499.598 0.982988 -1.23187 0
M  V30 5282 C 500.548 2.05962 -0.977942 0
M  V30 5283 C 501.532 1.60725 0.0751148 0
M  V30 5284 O 502.724 1.76471 -0.136683 0
M  V30 5285 C 499.853 3.38564 -0.568276 0
M  V30 5286 C 498.939 3.90407 -1.6566 0
M  V30 5287 N 499.33 4.15359 -2.88635 0
M  V30 5288 C 497.628 4.18915 -1.53058 0
M  V30 5289 C 498.329 4.57642 -3.5908 0
M  V30 5290 N 497.305 4.6192 -2.86584 0
M  V30 5291 H 501.107 2.23208 -1.91195 0
M  V30 5292 H 498.621 1.16555 -1.13087 0
M  V30 5293 H 500.618 4.15276 -0.36764 0
M  V30 5294 H 499.278 3.22712 0.358713 0
M  V30 5295 H 500.289 4.03258 -3.24966 0
M  V30 5296 H 496.966 4.12081 -0.670506 0
M  V30 5297 H 498.356 4.85488 -4.6449 0
M  V30 5298 N 501.076 1.04316 1.18135 0
M  V30 5299 C 502.324 0.746542 1.87806 0
M  V30 5300 C 502.645 -0.728082 1.80898 0
M  V30 5301 O 501.915 -1.52554 1.22899 0
M  V30 5302 H 500.495 0.273157 0.695265 0
M  V30 5303 H 503.157 1.32044 1.43354 0
M  V30 5304 H 502.253 1.05362 2.93778 0
M  V30 5305 N 502.554 -1.34406 0.822964 0
M  V30 5306 C 503.504 -2.26963 0.217208 0
M  V30 5307 C 504.488 -1.48536 -0.618545 0
M  V30 5308 O 505.68 -1.7056 -0.473118 0
M  V30 5309 C 502.809 -3.37655 -0.619973 0
M  V30 5310 C 501.895 -4.23495 0.226411 0
M  V30 5311 N 502.286 -4.88876 1.29744 0
M  V30 5312 C 500.584 -4.45999 0.0107554 0
M  V30 5313 C 501.285 -5.52642 1.81553 0
M  V30 5314 N 500.261 -5.31949 1.11942 0
M  V30 5315 H 504.063 -2.75017 1.03647 0
M  V30 5316 H 501.577 -1.48126 0.665777 0
M  V30 5317 H 503.574 -4.02932 -1.07011 0
M  V30 5318 H 502.234 -2.91151 -1.43739 0
M  V30 5319 H 503.245 -4.89886 1.68024 0
M  V30 5320 H 499.922 -4.10253 -0.774495 0
M  V30 5321 H 501.312 -6.14755 2.71156 0
M  V30 5322 N 504.032 -0.577932 -1.46621 0
M  V30 5323 C 504.979 0.158048 -2.30258 0
M  V30 5324 C 505.949 0.888669 -1.40328 0
M  V30 5325 O 507.134 0.880283 -1.6928 0
M  V30 5326 C 504.274 1.16884 -3.24703 0
M  V30 5327 C 503.387 0.442163 -4.29731 0
M  V30 5328 C 502.522 1.44007 -5.11308 0
M  V30 5329 C 501.561 0.69952 -6.0809 0
M  V30 5330 N 500.698 1.64525 -6.82551 0
M  V30 5331 H 505.538 -0.561242 -2.92667 0
M  V30 5332 H 503.075 -0.288591 -1.44241 0
M  V30 5333 H 505.033 1.7677 -3.779 0
M  V30 5334 H 503.663 1.85591 -2.64113 0
M  V30 5335 H 502.715 -0.271632 -3.79429 0
M  V30 5336 H 504.027 -0.136992 -4.98612 0
M  V30 5337 H 503.181 2.11186 -5.68758 0
M  V30 5338 H 501.92 2.05315 -4.42377 0
M  V30 5339 H 500.925 0.0139217 -5.49798 0
M  V30 5340 H 502.15 0.091894 -6.79038 0
M  V30 5341 H 500.096 2.24653 -6.16334 0
M  V30 5342 H 500.013 1.11878 -7.47676 0
M  V30 5343 H 501.281 2.30754 -7.44562 0
M  V30 5344 N 505.51 1.54411 -0.315457 0
M  V30 5345 C 506.42 2.27737 0.56329 0
M  V30 5346 C 507.436 1.31787 1.13614 0
M  V30 5347 O 508.612 1.64791 1.15784 0
M  V30 5348 C 505.677 3.01478 1.71207 0
M  V30 5349 C 504.738 4.12997 1.17185 0
M  V30 5350 C 503.971 4.83212 2.26588 0
M  V30 5351 O 504.194 4.52884 3.46775 0
M  V30 5352 O 503.128 5.70299 1.92463 0
M  V30 5353 H 506.954 3.03683 -0.0319614 0
M  V30 5354 H 504.539 1.49178 -0.0814188 0
M  V30 5355 H 506.421 3.47683 2.38106 0
M  V30 5356 H 505.096 2.28414 2.29366 0
M  V30 5357 H 504.003 3.71159 0.468174 0
M  V30 5358 H 505.336 4.8808 0.635501 0
M  V30 5359 N 506.988 0.0434614 1.5754 0
M  V30 5360 C 507.936 -0.951465 2.1225 0
M  V30 5361 C 508.93 -1.3274 1.05245 0
M  V30 5362 O 510.136 -1.30795 1.23663 0
M  V30 5363 H 506.511 -0.324667 0.678303 0
M  V30 5364 H 508.482 -0.464855 2.94757 0
M  V30 5365 C 507.231 -2.21972 2.67626 0
M  V30 5366 H 506.554 -1.93923 3.4962 0
M  V30 5367 H 507.994 -2.89765 3.09536 0
M  V30 5368 C 506.453 -2.95919 1.61038 0
M  V30 5369 O 506.983 -3.8857 1.01862 0
M  V30 5370 N 505.189 -2.58511 1.32741 0
M  V30 5371 H 504.736 -1.83244 1.81051 0
M  V30 5372 H 504.694 -3.08296 0.616531 0
M  V30 5373 N 508.466 -1.55915 -0.229846 0
M  V30 5374 C 509.413 -1.91734 -1.28478 0
M  V30 5375 C 510.383 -0.773539 -1.46988 0
M  V30 5376 O 511.568 -1.02871 -1.60693 0
M  V30 5377 C 508.708 -2.23224 -2.63182 0
M  V30 5378 C 507.821 -3.50497 -2.52539 0
M  V30 5379 C 506.956 -3.71474 -3.79711 0
M  V30 5380 C 505.995 -4.92289 -3.63755 0
M  V30 5381 N 505.132 -5.09698 -4.82858 0
M  V30 5382 H 509.972 -2.81692 -0.972308 0
M  V30 5383 H 507.509 -1.39429 -0.468815 0
M  V30 5384 H 509.467 -2.3949 -3.41614 0
M  V30 5385 H 508.097 -1.36451 -2.92542 0
M  V30 5386 H 507.149 -3.4247 -1.65585 0
M  V30 5387 H 508.461 -4.39079 -2.36666 0
M  V30 5388 H 507.615 -3.87791 -4.66586 0
M  V30 5389 H 506.354 -2.81157 -3.985 0
M  V30 5390 H 505.359 -4.7593 -2.75264 0
M  V30 5391 H 506.584 -5.84083 -3.46445 0
M  V30 5392 H 504.53 -4.22322 -5.01976 0
M  V30 5393 H 504.447 -5.92399 -4.69681 0
M  V30 5394 H 505.715 -5.30443 -5.71183 0
M  V30 5395 N 509.944 0.496216 -1.49584 0
M  V30 5396 C 511.193 1.24668 -1.58558 0
M  V30 5397 C 511.506 1.9359 -0.279703 0
M  V30 5398 O 512.712 2.70365 -0.248048 0
M  V30 5399 C 511.168 2.26388 -2.79779 0
M  V30 5400 C 510.776 1.63384 -4.17145 0
M  V30 5401 C 512.52 3.02233 -2.98086 0
M  V30 5402 C 510.427 2.63243 -5.29582 0
M  V30 5403 H 509.357 0.468995 -0.590389 0
M  V30 5404 H 512.008 0.519985 -1.75978 0
M  V30 5405 H 510.39 3.02241 -2.55863 0
M  V30 5406 H 511.564 0.93491 -4.51216 0
M  V30 5407 H 509.879 0.999121 -4.04236 0
M  V30 5408 H 512.476 3.76919 -3.79257 0
M  V30 5409 H 512.819 3.60132 -2.08831 0
M  V30 5410 H 513.352 2.33495 -3.22063 0
M  V30 5411 H 510.091 2.10119 -6.20911 0
M  V30 5412 H 509.611 3.31363 -4.99959 0
M  V30 5413 H 511.29 3.25575 -5.59115 0
M  V30 5414 N 511.423 1.38739 0.74761 0
M  V30 5415 C 512.648 1.38702 1.54197 0
M  V30 5416 C 513.073 -0.019664 1.8809 0
M  V30 5417 O 512.431 -1.00333 1.51006 0
M  V30 5418 C 512.479 2.25492 2.814 0
M  V30 5419 O 511.583 1.67613 3.76802 0
M  V30 5420 H 510.924 0.472863 0.466151 0
M  V30 5421 H 513.454 1.82577 0.923413 0
M  V30 5422 H 513.464 2.39561 3.30264 0
M  V30 5423 H 512.139 3.27727 2.56062 0
M  V30 5424 H 510.716 1.62718 3.35526 0
M  V30 5425 N 512.901 -0.976442 1.23707 0
M  V30 5426 C 514.131 -1.75087 1.09673 0
M  V30 5427 C 514.539 -1.85852 -0.354344 0
M  V30 5428 O 513.882 -1.33985 -1.25673 0
M  V30 5429 C 513.944 -3.19272 1.65245 0
M  V30 5430 C 513.608 -3.32004 3.14042 0
M  V30 5431 C 514.605 -3.18017 4.11292 0
M  V30 5432 C 512.29 -3.56525 3.53829 0
M  V30 5433 C 514.284 -3.28363 5.46312 0
M  V30 5434 C 511.971 -3.6651 4.88993 0
M  V30 5435 C 512.969 -3.52439 5.85043 0
M  V30 5436 O 512.657 -3.62063 7.1775 0
M  V30 5437 H 512.389 -0.556164 0.384262 0
M  V30 5438 H 514.943 -1.23518 1.64111 0
M  V30 5439 H 513.173 -3.72107 1.05231 0
M  V30 5440 H 514.862 -3.7849 1.46629 0
M  V30 5441 H 515.628 -2.98966 3.81896 0
M  V30 5442 H 511.507 -3.66547 2.79579 0
M  V30 5443 H 515.051 -3.17297 6.21263 0
M  V30 5444 H 510.948 -3.85072 5.18063 0
M  V30 5445 H 511.716 -3.78833 7.25553 0
M  V30 5446 N 514.379 -1.04941 -1.1758 0
M  V30 5447 C 515.311 -0.606174 -2.21039 0
M  V30 5448 C 516.324 0.328763 -1.59446 0
M  V30 5449 O 517.513 0.121895 -1.78083 0
M  V30 5450 C 514.613 0.133294 -3.38638 0
M  V30 5451 C 513.786 -0.811711 -4.29802 0
M  V30 5452 C 512.845 -0.113958 -5.26077 0
M  V30 5453 O 511.871 -0.747237 -5.64274 0
M  V30 5454 N 513.073 1.14953 -5.69004 0
M  V30 5455 H 515.838 -1.49606 -2.59689 0
M  V30 5456 H 513.399 -0.930997 -1.32454 0
M  V30 5457 H 515.391 0.610144 -4.00074 0
M  V30 5458 H 513.961 0.924816 -2.98607 0
M  V30 5459 H 513.181 -1.46824 -3.65837 0
M  V30 5460 H 514.469 -1.45326 -4.87604 0
M  V30 5461 H 513.867 1.68441 -5.40041 0
M  V30 5462 H 512.424 1.57049 -6.32597 0
M  V30 5463 N 515.857 1.33968 -0.830081 0
M  V30 5464 C 517.082 2.02813 -0.433796 0
M  V30 5465 C 517.507 1.62076 0.954614 0
M  V30 5466 O 516.865 0.808955 1.62252 0
M  V30 5467 C 516.913 3.56348 -0.552115 0
M  V30 5468 O 516.017 4.10202 0.425191 0
M  V30 5469 H 515.358 0.639817 -0.177567 0
M  V30 5470 H 517.888 1.7106 -1.12248 0
M  V30 5471 H 517.898 4.05722 -0.430513 0
M  V30 5472 H 516.573 3.85344 -1.56471 0
M  V30 5473 H 515.15 3.71979 0.261878 0
M  V30 5474 N 517.335 0.585699 1.46312 0
M  V30 5475 C 518.56 0.0762461 2.0726 0
M  V30 5476 C 518.985 -1.22071 1.43109 0
M  V30 5477 O 518.343 -1.73804 0.515942 0
M  V30 5478 C 518.391 -0.0729404 3.60526 0
M  V30 5479 O 517.495 -1.1287 3.96654 0
M  V30 5480 H 516.836 0.0641558 0.660893 0
M  V30 5481 H 519.366 0.809492 1.87905 0
M  V30 5482 H 519.376 -0.278158 4.07051 0
M  V30 5483 H 518.051 0.874188 4.06609 0
M  V30 5484 H 516.628 -0.901703 3.61834 0
M  V30 5485 N 518.813 -1.54241 0.323641 0
M  V30 5486 C 520.038 -2.05452 -0.283605 0
M  V30 5487 C 520.463 -1.19823 -1.44997 0
M  V30 5488 O 519.821 -0.207358 -1.8011 0
M  V30 5489 C 519.869 -3.53823 -0.695795 0
M  V30 5490 O 518.973 -3.71134 -1.79815 0
M  V30 5491 H 518.314 -0.662024 -0.0511917 0
M  V30 5492 H 520.844 -1.99079 0.472073 0
M  V30 5493 H 520.854 -3.96094 -0.978434 0
M  V30 5494 H 519.529 -4.15602 0.157287 0
M  V30 5495 H 518.106 -3.40768 -1.51431 0
M  V30 5496 N 520.291 -0.0518155 -1.57515 0
M  V30 5497 C 521.519 0.631395 -1.9703 0
M  V30 5498 C 521.934 1.64341 -0.92938 0
M  V30 5499 O 521.291 1.82296 0.0863266 0
M  V30 5500 C 521.342 1.31774 -3.36627 0
M  V30 5501 O 521.063 0.346247 -4.3673 0
M  V30 5502 C 522.564 2.09065 -3.90905 0
M  V30 5503 H 519.784 0.172576 -0.648428 0
M  V30 5504 H 522.328 -0.118306 -2.04158 0
M  V30 5505 H 520.483 2.01867 -3.30649 0
M  V30 5506 H 520.897 0.836226 -5.17791 0
M  V30 5507 H 522.371 2.52508 -4.9086 0
M  V30 5508 H 522.848 2.93908 -3.26366 0
M  V30 5509 H 523.454 1.43882 -4.00223 0
M  V30 5510 N 521.769 1.56035 0.221574 0
M  V30 5511 C 522.679 1.95581 1.29558 0
M  V30 5512 C 523.695 0.859639 1.51282 0
M  V30 5513 O 524.871 1.16321 1.64413 0
M  V30 5514 C 521.936 2.26447 2.62531 0
M  V30 5515 C 520.997 3.49632 2.4911 0
M  V30 5516 C 520.23 3.79017 3.75742 0
M  V30 5517 O 520.453 3.10077 4.78757 0
M  V30 5518 O 519.387 4.72507 3.72855 0
M  V30 5519 H 523.213 2.8711 0.990035 0
M  V30 5520 H 520.798 1.43244 0.424434 0
M  V30 5521 H 522.68 2.47494 3.41064 0
M  V30 5522 H 521.355 1.38092 2.92766 0
M  V30 5523 H 520.262 3.33864 1.68777 0
M  V30 5524 H 521.595 4.3837 2.23814 0
M  V30 5525 N 523.247 -0.488276 1.49845 0
M  V30 5526 C 524.157 -1.61451 1.70207 0
M  V30 5527 C 525.173 -1.63877 0.584846 0
M  V30 5528 O 526.349 -1.82063 0.861107 0
M  V30 5529 C 523.414 -2.9776 1.77594 0
M  V30 5530 C 522.475 -3.05861 3.01243 0
M  V30 5531 C 521.708 -4.35668 3.08268 0
M  V30 5532 O 521.931 -5.25197 2.22541 0
M  V30 5533 O 520.865 -4.49005 4.00847 0
M  V30 5534 H 524.691 -1.47199 2.65643 0
M  V30 5535 H 522.276 -0.665939 1.33737 0
M  V30 5536 H 524.158 -3.7875 1.84732 0
M  V30 5537 H 522.833 -3.12248 0.8534 0
M  V30 5538 H 521.74 -2.24012 2.99616 0
M  V30 5539 H 523.073 -2.96304 3.9302 0
M  V30 5540 N 524.725 -1.39134 -0.740242 0
M  V30 5541 C 526.141 -1.20623 -1.0451 0
M  V30 5542 C 526.341 -0.0641651 -2.01398 0
M  V30 5543 O 525.397 0.585843 -2.4561 0
M  V30 5544 C 526.71 -2.53815 -1.6124 0
M  V30 5545 C 528.258 -2.60615 -1.73346 0
M  V30 5546 C 528.733 -3.94015 -2.33486 0
M  V30 5547 N 530.224 -3.95627 -2.40902 0
M  V30 5548 C 530.959 -4.95616 -2.88361 0
M  V30 5549 N 530.455 -6.06003 -3.35756 0
M  V30 5550 N 532.248 -4.82998 -2.87523 0
M  V30 5551 H 524.399 -2.12176 -0.0975576 0
M  V30 5552 H 526.662 -0.942066 -0.105904 0
M  V30 5553 H 526.368 -3.37911 -0.975144 0
M  V30 5554 H 526.242 -2.73162 -2.6012 0
M  V30 5555 H 528.629 -1.76906 -2.36195 0
M  V30 5556 H 528.71 -2.45123 -0.731336 0
M  V30 5557 H 528.354 -4.78153 -1.71267 0
M  V30 5558 H 528.284 -4.06825 -3.34366 0
M  V30 5559 H 530.775 -3.15903 -2.07398 0
M  V30 5560 H 531.088 -6.78215 -3.70464 0
M  V30 5561 H 529.433 -6.09604 -3.33778 0
M  V30 5562 H 532.624 -3.95866 -2.49816 0
M  V30 5563 H 532.797 -5.61072 -3.24196 0
M  V30 5564 N 526.204 0.969867 -1.24223 0
M  V30 5565 C 527.154 2.04913 -0.999732 0
M  V30 5566 C 528.138 1.60795 0.0580636 0
M  V30 5567 O 529.33 1.76317 -0.155392 0
M  V30 5568 C 526.459 3.37942 -0.604154 0
M  V30 5569 C 525.545 3.88628 -1.69791 0
M  V30 5570 N 525.936 4.12274 -2.93025 0
M  V30 5571 C 524.234 4.17268 -1.57492 0
M  V30 5572 C 524.935 4.53808 -3.63914 0
M  V30 5573 N 523.911 4.58855 -2.91468 0
M  V30 5574 H 527.713 2.21168 -1.93551 0
M  V30 5575 H 525.227 1.15349 -1.14317 0
M  V30 5576 H 527.224 4.14863 -0.411665 0
M  V30 5577 H 525.884 3.23075 0.324465 0
M  V30 5578 H 526.895 3.99789 -3.29225 0
M  V30 5579 H 523.572 4.11346 -0.714175 0
M  V30 5580 H 524.962 4.80534 -4.69614 0
M  V30 5581 N 527.682 1.05563 1.17022 0
M  V30 5582 C 528.612 0.681026 2.23348 0
M  V30 5583 C 529.593 -0.322983 1.67005 0
M  V30 5584 O 530.778 -0.199746 1.9317 0
M  V30 5585 C 527.908 0.0589053 3.4725 0
M  V30 5586 C 526.862 0.988082 4.16438 0
M  V30 5587 C 526.188 0.229646 5.34207 0
M  V30 5588 C 527.488 2.31388 4.68249 0
M  V30 5589 H 529.182 1.56993 2.54938 0
M  V30 5590 H 526.728 0.756302 1.2254 0
M  V30 5591 H 528.681 -0.214982 4.20851 0
M  V30 5592 H 527.405 -0.864968 3.14938 0
M  V30 5593 H 526.064 1.24659 3.44754 0
M  V30 5594 H 525.712 -0.697111 4.98146 0
M  V30 5595 H 525.412 0.848815 5.81437 0
M  V30 5596 H 526.936 -0.0368694 6.10589 0
M  V30 5597 H 528.35 2.09964 5.33468 0
M  V30 5598 H 526.747 2.88736 5.26072 0
M  V30 5599 H 527.817 2.94982 3.84855 0
M  V30 5600 N 529.16 -1.33526 0.837174 0
M  V30 5601 C 530.108 -2.31168 0.257698 0
M  V30 5602 C 531.102 -1.5806 -0.609388 0
M  V30 5603 O 532.308 -1.72941 -0.499139 0
M  V30 5604 H 528.683 -0.74922 0.0646058 0
M  V30 5605 H 530.654 -2.77552 1.09578 0
M  V30 5606 C 529.403 -3.4326 -0.553887 0
M  V30 5607 H 528.726 -3.99665 0.104008 0
M  V30 5608 H 530.166 -4.13782 -0.925219 0
M  V30 5609 C 528.625 -2.88965 -1.73207 0
M  V30 5610 O 529.155 -2.85013 -2.83073 0
M  V30 5611 N 527.361 -2.45596 -1.55342 0
M  V30 5612 H 526.908 -2.49009 -0.659705 0
M  V30 5613 H 526.866 -2.0962 -2.34322 0
M  V30 5614 N 530.638 -0.59345 -1.46 0
M  V30 5615 C 531.878 -0.0859747 -2.04219 0
M  V30 5616 C 532.242 1.25432 -1.45364 0
M  V30 5617 O 533.443 1.85168 -1.9485 0
M  V30 5618 C 531.714 -0.0324314 -3.57385 0
M  V30 5619 S 533.273 0.415908 -4.36824 0
M  V30 5620 H 530.091 -0.0426872 -0.709717 0
M  V30 5621 H 532.693 -0.788369 -1.78899 0
M  V30 5622 H 531.397 -1.01166 -3.97735 0
M  V30 5623 H 530.928 0.6924 -3.87259 0
M  V30 5624 H 532.943 1.66844 -4.67309 0
M  V30 5625 N 532.116 1.54067 -0.331816 0
M  V30 5626 C 533.364 2.00319 0.267739 0
M  V30 5627 C 533.685 1.22148 1.52003 0
M  V30 5628 O 532.955 0.325494 1.93177 0
M  V30 5629 H 531.535 0.740014 0.101922 0
M  V30 5630 H 534.197 1.89628 -0.450267 0
M  V30 5631 H 533.293 3.07765 0.518385 0
M  V30 5632 N 533.594 0.0601682 1.57485 0
M  V30 5633 C 534.504 -0.926121 2.15546 0
M  V30 5634 C 535.52 -1.33532 1.11558 0
M  V30 5635 O 536.696 -1.4104 1.4377 0
M  V30 5636 C 533.761 -2.17952 2.69625 0
M  V30 5637 C 532.822 -1.82783 3.88444 0
M  V30 5638 C 532.055 -3.02148 4.39935 0
M  V30 5639 O 532.278 -4.15803 3.90466 0
M  V30 5640 O 531.212 -2.82639 5.31412 0
M  V30 5641 H 535.038 -0.462289 3.00161 0
M  V30 5642 H 532.623 -0.162246 1.48516 0
M  V30 5643 H 534.505 -2.91474 3.04337 0
M  V30 5644 H 533.18 -2.63456 1.88077 0
M  V30 5645 H 532.087 -1.06549 3.58606 0
M  V30 5646 H 533.42 -1.42072 4.7125 0
M  V30 5647 N 535.072 -1.5615 -0.213296 0
M  V30 5648 C 536.019 -1.93086 -1.26437 0
M  V30 5649 C 536.989 -0.789086 -1.4616 0
M  V30 5650 O 538.174 -1.04569 -1.59593 0
M  V30 5651 C 535.314 -2.26003 -2.608 0
M  V30 5652 C 534.427 -3.53156 -2.48807 0
M  V30 5653 C 533.562 -3.7548 -3.7575 0
M  V30 5654 C 532.601 -4.96119 -3.58514 0
M  V30 5655 N 531.738 -5.14791 -4.77425 0
M  V30 5656 H 536.578 -2.82707 -0.942376 0
M  V30 5657 H 534.115 -1.39919 -0.454001 0
M  V30 5658 H 536.073 -2.431 -3.39055 0
M  V30 5659 H 534.703 -1.39546 -2.91079 0
M  V30 5660 H 533.755 -3.44207 -1.61944 0
M  V30 5661 H 535.067 -4.41565 -2.31996 0
M  V30 5662 H 534.221 -3.92718 -4.62447 0
M  V30 5663 H 532.96 -2.85368 -3.95495 0
M  V30 5664 H 531.965 -4.78823 -2.70201 0
M  V30 5665 H 533.19 -5.87724 -3.40231 0
M  V30 5666 H 531.136 -4.27623 -4.97468 0
M  V30 5667 H 531.053 -5.97347 -4.63371 0
M  V30 5668 H 532.321 -5.36471 -5.65525 0
M  V30 5669 N 536.55 0.480323 -1.50102 0
M  V30 5670 C 537.798 1.23063 -1.60312 0
M  V30 5671 C 538.119 1.92659 -0.301226 0
M  V30 5672 O 537.389 1.83691 0.680753 0
M  V30 5673 H 535.969 0.457231 -0.590719 0
M  V30 5674 H 538.631 0.554893 -1.86834 0
M  V30 5675 H 537.727 1.9835 -2.40964 0
M  V30 5676 N 538.028 1.39524 0.732853 0
M  V30 5677 C 539.277 1.36175 1.48792 0
M  V30 5678 C 539.59 -0.0388195 1.95561 0
M  V30 5679 O 540.796 -0.194899 2.708 0
M  V30 5680 C 539.252 2.39242 2.68871 0
M  V30 5681 C 538.86 3.85024 2.29042 0
M  V30 5682 C 540.604 2.44972 3.46683 0
M  V30 5683 C 538.511 4.79727 3.45856 0
M  V30 5684 H 537.441 0.506267 0.558757 0
M  V30 5685 H 540.092 1.65181 0.799226 0
M  V30 5686 H 538.474 2.0331 3.39825 0
M  V30 5687 H 539.648 4.30008 1.6562 0
M  V30 5688 H 537.963 3.82609 1.64316 0
M  V30 5689 H 540.56 3.12918 4.33574 0
M  V30 5690 H 540.903 1.4749 3.89297 0
M  V30 5691 H 541.436 2.79808 2.82759 0
M  V30 5692 H 538.175 5.78479 3.08289 0
M  V30 5693 H 537.695 4.39421 4.08251 0
M  V30 5694 H 539.374 4.98731 4.12161 0
M  V30 5695 N 539.506 -0.963266 1.24736 0
M  V30 5696 C 540.438 -2.06162 1.0015 0
M  V30 5697 C 541.451 -1.62771 -0.0305905 0
M  V30 5698 O 542.64 -1.77296 0.206966 0
M  V30 5699 C 539.74 -3.35333 0.490385 0
M  V30 5700 C 538.913 -4.07609 1.58663 0
M  V30 5701 C 537.972 -5.15052 1.0774 0
M  V30 5702 O 536.998 -5.4098 1.77002 0
M  V30 5703 N 538.2 -5.80436 -0.0858605 0
M  V30 5704 H 540.965 -2.27825 1.94719 0
M  V30 5705 H 538.526 -1.13121 1.15825 0
M  V30 5706 H 540.518 -4.04477 0.134371 0
M  V30 5707 H 539.088 -3.10507 -0.361155 0
M  V30 5708 H 538.308 -3.32681 2.11463 0
M  V30 5709 H 539.596 -4.52656 2.32336 0
M  V30 5710 H 538.994 -5.6178 -0.664806 0
M  V30 5711 H 537.551 -6.50674 -0.382981 0
M  V30 5712 N 540.985 -1.06182 -1.16461 0
M  V30 5713 C 541.932 -0.671613 -2.20812 0
M  V30 5714 C 542.902 0.331186 -1.62765 0
M  V30 5715 O 544.087 0.22033 -1.89524 0
M  V30 5716 C 541.227 -0.063029 -3.45042 0
M  V30 5717 C 540.34 -1.11587 -4.1734 0
M  V30 5718 C 539.475 -0.473546 -5.29085 0
M  V30 5719 C 538.514 -1.51 -5.93182 0
M  V30 5720 N 537.651 -0.891118 -6.96422 0
M  V30 5721 H 542.491 -1.56589 -2.53542 0
M  V30 5722 H 540.028 -0.782951 -1.24532 0
M  V30 5723 H 541.986 0.307344 -4.16066 0
M  V30 5724 H 540.616 0.794663 -3.12866 0
M  V30 5725 H 539.668 -1.60396 -3.44931 0
M  V30 5726 H 540.98 -1.90221 -4.61104 0
M  V30 5727 H 540.134 -0.0501432 -6.06679 0
M  V30 5728 H 538.873 0.344687 -4.8648 0
M  V30 5729 H 537.878 -1.94331 -5.14311 0
M  V30 5730 H 539.103 -2.33031 -6.37866 0
M  V30 5731 H 537.049 -0.0935753 -6.55933 0
M  V30 5732 H 536.966 -1.61486 -7.38551 0
M  V30 5733 H 538.234 -0.492822 -7.77941 0
M  V30 5734 N 542.463 1.3308 -0.844243 0
M  V30 5735 C 543.711 1.97215 -0.441676 0
M  V30 5736 C 544.032 1.67185 1.0037 0
M  V30 5737 O 543.302 0.973588 1.69994 0
M  V30 5738 H 541.882 0.72959 -0.160335 0
M  V30 5739 H 544.544 1.62348 -1.07838 0
M  V30 5740 H 543.64 3.06698 -0.57815 0
M  V30 5741 N 543.941 0.601185 1.45683 0
M  V30 5742 C 545.187 0.0940202 2.02582 0
M  V30 5743 C 545.52 -1.26972 1.46941 0
M  V30 5744 O 544.795 -1.83613 0.641612 0
M  V30 5745 C 545.078 0.0481715 3.60068 0
M  V30 5746 C 544.931 1.44212 4.26055 0
M  V30 5747 C 546.25 -0.642975 4.35378 0
M  V30 5748 H 543.369 0.0356404 0.736138 0
M  V30 5749 H 546.011 0.771929 1.73612 0
M  V30 5750 H 544.161 -0.529128 3.8488 0
M  V30 5751 H 545.833 2.06601 4.12449 0
M  V30 5752 H 544.076 2.00465 3.84703 0
M  V30 5753 H 544.747 1.36234 5.34925 0
M  V30 5754 H 547.223 -0.152351 4.15821 0
M  V30 5755 H 546.099 -0.644141 5.45107 0
M  V30 5756 H 546.36 -1.70785 4.0778 0
M  V30 5757 N 545.419 -1.53889 0.339982 0
M  V30 5758 C 546.644 -2.05741 -0.261798 0
M  V30 5759 C 547.069 -1.21354 -1.43718 0
M  V30 5760 O 546.427 -0.22645 -1.7988 0
M  V30 5761 C 546.475 -3.54542 -0.658228 0
M  V30 5762 O 545.579 -3.7302 -1.75869 0
M  V30 5763 H 544.92 -0.662529 -0.0441672 0
M  V30 5764 H 547.45 -1.98568 0.493161 0
M  V30 5765 H 547.46 -3.9711 -0.936368 0
M  V30 5766 H 546.135 -4.15412 0.201358 0
M  V30 5767 H 544.712 -3.42355 -1.47809 0
M  V30 5768 N 546.897 -0.0685191 -1.57451 0
M  V30 5769 C 547.844 0.899861 -2.12535 0
M  V30 5770 C 548.814 1.29749 -1.03703 0
M  V30 5771 O 549.999 1.38392 -1.31348 0
M  V30 5772 C 547.139 2.16328 -2.6888 0
M  V30 5773 C 546.252 1.81857 -3.91857 0
M  V30 5774 C 545.387 3.02786 -4.36457 0
M  V30 5775 C 544.426 2.64317 -5.5209 0
M  V30 5776 N 543.563 3.77994 -5.91663 0
M  V30 5777 H 548.403 0.423243 -2.94979 0
M  V30 5778 H 545.94 0.197268 -1.45771 0
M  V30 5779 H 547.898 2.90281 -2.99655 0
M  V30 5780 H 546.528 2.61536 -1.89206 0
M  V30 5781 H 545.58 0.979808 -3.67565 0
M  V30 5782 H 546.892 1.49553 -4.75852 0
M  V30 5783 H 546.046 3.85021 -4.68875 0
M  V30 5784 H 544.785 3.38281 -3.51308 0
M  V30 5785 H 543.79 1.80503 -5.19325 0
M  V30 5786 H 545.015 2.29995 -6.38967 0
M  V30 5787 H 542.961 4.13258 -5.09464 0
M  V30 5788 H 542.878 3.49447 -6.7039 0
M  V30 5789 H 544.146 4.60818 -6.28703 0
M  V30 5790 N 548.375 1.56261 0.205012 0
M  V30 5791 C 549.623 1.79684 0.925096 0
M  V30 5792 C 549.944 0.63989 1.84202 0
M  V30 5793 O 549.214 -0.342345 1.92885 0
M  V30 5794 H 547.794 0.662774 0.344587 0
M  V30 5795 H 550.456 1.93734 0.212899 0
M  V30 5796 H 549.552 2.72467 1.52211 0
M  V30 5797 N 549.853 -0.472356 1.50355 0
M  V30 5798 C 551.078 -1.25251 1.65309 0
M  V30 5799 C 551.503 -1.85081 0.335643 0
M  V30 5800 O 550.861 -1.67227 -0.700335 0
M  V30 5801 C 550.909 -2.3379 2.74544 0
M  V30 5802 O 550.013 -3.38401 2.35709 0
M  V30 5803 H 549.354 -0.368539 0.552336 0
M  V30 5804 H 551.884 -0.562271 1.96722 0
M  V30 5805 H 551.894 -2.79121 2.97583 0
M  V30 5806 H 550.569 -1.89614 3.70161 0
M  V30 5807 H 549.146 -2.9879 2.23112 0
M  V30 5808 N 551.331 -1.39911 -0.725443 0
M  V30 5809 C 552.58 -1.36963 -1.48068 0
M  V30 5810 C 552.893 0.0284478 -1.95579 0
M  V30 5811 O 554.099 0.180535 -2.70899 0
M  V30 5812 C 552.555 -2.40664 -2.67598 0
M  V30 5813 C 552.163 -3.86234 -2.26997 0
M  V30 5814 C 553.907 -2.46807 -3.45379 0
M  V30 5815 C 551.814 -4.81554 -3.43307 0
M  V30 5816 H 550.744 -0.509223 -0.556065 0
M  V30 5817 H 553.395 -1.65602 -0.790454 0
M  V30 5818 H 551.777 -2.05109 -3.38742 0
M  V30 5819 H 552.951 -4.3088 -1.63337 0
M  V30 5820 H 551.266 -3.83475 -1.62284 0
M  V30 5821 H 553.863 -3.15213 -4.31909 0
M  V30 5822 H 554.206 -1.49552 -3.8851 0
M  V30 5823 H 554.739 -2.81303 -2.81271 0
M  V30 5824 H 551.478 -5.80106 -3.05217 0
M  V30 5825 H 550.998 -4.4158 -4.05915 0
M  V30 5826 H 552.677 -5.0091 -4.0951 0
M  V30 5827 N 552.809 0.956637 -1.25245 0
M  V30 5828 C 554.034 1.74104 -1.12706 0
M  V30 5829 C 554.459 1.85436 0.315429 0
M  V30 5830 O 553.817 1.33334 1.22848 0
M  V30 5831 C 553.865 3.1338 -1.78396 0
M  V30 5832 O 552.969 3.98485 -1.06224 0
M  V30 5833 H 552.31 0.53476 -0.393609 0
M  V30 5834 H 554.84 1.19924 -1.65769 0
M  V30 5835 H 554.85 3.6385 -1.846 0
M  V30 5836 H 553.525 3.04448 -2.83345 0
M  V30 5837 H 552.102 3.56952 -1.07886 0
M  V30 5838 N 554.287 1.06798 1.15896 0
M  V30 5839 C 555.536 0.782796 1.8589 0
M  V30 5840 C 555.849 -0.693498 1.82893 0
M  V30 5841 O 557.055 -1.09325 2.48516 0
M  V30 5842 C 555.511 1.3502 3.33613 0
M  V30 5843 C 555.119 2.8571 3.45071 0
M  V30 5844 C 556.863 1.14278 4.08829 0
M  V30 5845 C 554.77 3.35669 4.86909 0
M  V30 5846 H 553.7 0.289149 0.696354 0
M  V30 5847 H 556.351 1.28734 1.30766 0
M  V30 5848 H 554.733 0.773407 3.88374 0
M  V30 5849 H 555.907 3.49385 3.00445 0
M  V30 5850 H 554.222 3.05178 2.83294 0
M  V30 5851 H 556.819 1.49087 5.13495 0
M  V30 5852 H 557.162 0.0814575 4.1622 0
M  V30 5853 H 557.695 1.68563 3.60321 0
M  V30 5854 H 554.434 4.41302 4.84698 0
M  V30 5855 H 553.954 2.76745 5.32139 0
M  V30 5856 H 555.633 3.31296 5.55745 0
M  V30 5857 N 555.766 -1.3263 0.851289 0
M  V30 5858 C 556.698 -2.27824 0.250757 0
M  V30 5859 C 557.711 -1.52285 -0.575598 0
M  V30 5860 O 558.9 -1.73946 -0.400638 0
M  V30 5861 C 556 -3.3232 -0.664571 0
M  V30 5862 C 555.173 -4.37221 0.125187 0
M  V30 5863 C 554.232 -5.21314 -0.715385 0
M  V30 5864 O 553.258 -5.69002 -0.150111 0
M  V30 5865 N 554.46 -5.43823 -2.03069 0
M  V30 5866 H 557.225 -2.79997 1.06873 0
M  V30 5867 H 554.786 -1.45455 0.710943 0
M  V30 5868 H 556.778 -3.85486 -1.23216 0
M  V30 5869 H 555.348 -2.80331 -1.38323 0
M  V30 5870 H 554.568 -3.84384 0.874199 0
M  V30 5871 H 555.856 -5.04399 0.667774 0
M  V30 5872 H 555.254 -5.06803 -2.51332 0
M  V30 5873 H 553.811 -5.99998 -2.54648 0
M  V30 5874 N 557.244 -0.608902 -1.45362 0
M  V30 5875 C 558.472 -0.111013 -2.06602 0
M  V30 5876 C 558.887 1.20516 -1.45332 0
M  V30 5877 O 558.244 1.73437 -0.567978 0
M  V30 5878 C 558.295 0.033688 -3.61484 0
M  V30 5879 O 558.016 -1.23041 -4.20467 0
M  V30 5880 C 559.517 0.562882 -4.39712 0
M  V30 5881 H 556.737 -0.0694453 -0.667397 0
M  V30 5882 H 559.281 -0.837008 -1.86586 0
M  V30 5883 H 557.436 0.710016 -3.80838 0
M  V30 5884 H 557.85 -1.06094 -5.13658 0
M  V30 5885 H 559.324 0.613213 -5.48583 0
M  V30 5886 H 559.801 1.58543 -4.09586 0
M  V30 5887 H 560.407 -0.0794454 -4.25226 0
M  V30 5888 N 558.722 1.53707 -0.348139 0
M  V30 5889 C 559.632 2.28881 0.514857 0
M  V30 5890 C 560.648 1.34168 1.10793 0
M  V30 5891 O 561.824 1.6721 1.12262 0
M  V30 5892 C 558.889 3.05042 1.64774 0
M  V30 5893 C 557.95 4.15389 1.08398 0
M  V30 5894 C 557.183 4.87909 2.16287 0
M  V30 5895 O 557.406 4.60137 3.3709 0
M  V30 5896 O 556.34 5.74254 1.80323 0
M  V30 5897 H 560.166 3.03547 -0.0963699 0
M  V30 5898 H 557.751 1.48972 -0.113043 0
M  V30 5899 H 559.633 3.52656 2.30677 0
M  V30 5900 H 558.308 2.33228 2.24469 0
M  V30 5901 H 557.215 3.72068 0.389341 0
M  V30 5902 H 558.548 4.89318 0.531829 0
M  V30 5903 N 560.2 0.0768682 1.57412 0
M  V30 5904 C 561.11 -0.903207 2.16516 0
M  V30 5905 C 562.126 -1.32341 1.12968 0
M  V30 5906 O 563.302 -1.39507 1.45258 0
M  V30 5907 C 560.367 -2.1508 2.71922 0
M  V30 5908 C 559.428 -1.78653 3.90361 0
M  V30 5909 C 558.661 -2.97465 4.43114 0
M  V30 5910 O 558.884 -4.11638 3.94854 0
M  V30 5911 O 557.818 -2.76987 5.3438 0
M  V30 5912 H 561.644 -0.430427 3.00634 0
M  V30 5913 H 559.229 -0.146485 1.4868 0
M  V30 5914 H 561.111 -2.8823 3.07411 0
M  V30 5915 H 559.786 -2.61446 1.9086 0
M  V30 5916 H 558.693 -1.0274 3.59716 0
M  V30 5917 H 560.026 -1.37066 4.7273 0
M  V30 5918 N 561.678 -1.56367 -0.196722 0
M  V30 5919 C 562.61 -1.90941 -1.26784 0
M  V30 5920 C 563.623 -0.799928 -1.41792 0
M  V30 5921 O 564.812 -1.07833 -1.42247 0
M  V30 5922 C 561.912 -2.12477 -2.6402 0
M  V30 5923 C 561.085 -3.43616 -2.70641 0
M  V30 5924 C 560.144 -3.54284 -3.89062 0
M  V30 5925 O 559.17 -4.2712 -3.76241 0
M  V30 5926 N 560.372 -2.87252 -5.04447 0
M  V30 5927 H 563.137 -2.83417 -0.974417 0
M  V30 5928 H 560.698 -1.57215 -0.386649 0
M  V30 5929 H 562.69 -2.16904 -3.41665 0
M  V30 5930 H 561.26 -1.26508 -2.85857 0
M  V30 5931 H 560.48 -3.51072 -1.79283 0
M  V30 5932 H 561.768 -4.29958 -2.72054 0
M  V30 5933 H 561.166 -2.27901 -5.17762 0
M  V30 5934 H 559.723 -2.97308 -5.80044 0
M  V30 5935 N 563.156 0.464375 -1.50603 0
M  V30 5936 C 564.405 1.21277 -1.61167 0
M  V30 5937 C 564.718 1.92953 -0.320704 0
M  V30 5938 O 565.924 2.69778 -0.30534 0
M  V30 5939 C 564.38 2.20403 -2.84518 0
M  V30 5940 C 563.988 1.54499 -4.20516 0
M  V30 5941 C 565.732 2.95843 -3.0443 0
M  V30 5942 C 563.639 2.51951 -5.35047 0
M  V30 5943 H 562.569 0.456367 -0.600204 0
M  V30 5944 H 565.22 0.48254 -1.77042 0
M  V30 5945 H 563.602 2.96746 -2.62217 0
M  V30 5946 H 564.776 0.83899 -4.53098 0
M  V30 5947 H 563.091 0.913152 -4.06264 0
M  V30 5948 H 565.688 3.6879 -3.87167 0
M  V30 5949 H 566.031 3.55622 -2.16423 0
M  V30 5950 H 566.564 2.26611 -3.26944 0
M  V30 5951 H 563.303 1.96901 -6.25228 0
M  V30 5952 H 562.823 3.20683 -5.06875 0
M  V30 5953 H 564.502 3.13643 -5.65895 0
M  V30 5954 N 564.634 1.40294 0.718013 0
M  V30 5955 C 565.584 1.36847 1.82365 0
M  V30 5956 C 566.568 0.246424 1.59002 0
M  V30 5957 O 567.76 0.485336 1.70216 0
M  V30 5958 C 564.889 1.23105 3.20469 0
M  V30 5959 C 563.975 2.4008 3.49603 0
M  V30 5960 N 564.366 3.65562 3.49568 0
M  V30 5961 C 562.664 2.33407 3.80049 0
M  V30 5962 C 563.365 4.43015 3.76978 0
M  V30 5963 N 562.341 3.72823 3.95606 0
M  V30 5964 H 566.143 2.31811 1.80668 0
M  V30 5965 H 563.657 1.34031 0.91703 0
M  V30 5966 H 565.654 1.18718 3.9964 0
M  V30 5967 H 564.314 0.291056 3.23393 0
M  V30 5968 H 565.325 3.98756 3.30476 0
M  V30 5969 H 562.002 1.47762 3.90478 0
M  V30 5970 H 563.392 5.51859 3.83276 0
M  V30 5971 N 566.112 -0.949982 1.2575 0
M  V30 5972 C 567.36 -1.6918 1.10555 0
M  V30 5973 C 567.681 -1.91773 -0.353298 0
M  V30 5974 O 566.951 -1.50814 -1.25027 0
M  V30 5975 H 565.531 -0.626952 0.406129 0
M  V30 5976 H 568.193 -1.1419 1.57945 0
M  V30 5977 H 567.289 -2.66915 1.61749 0
M  V30 5978 N 567.59 -1.07411 -1.15328 0
M  V30 5979 C 568.537 -0.694995 -2.20087 0
M  V30 5980 C 569.507 0.313904 -1.63107 0
M  V30 5981 O 570.692 0.200216 -1.89747 0
M  V30 5982 C 567.832 -0.0996218 -3.44956 0
M  V30 5983 C 566.945 -1.16007 -4.16133 0
M  V30 5984 C 566.08 -0.529636 -5.28553 0
M  V30 5985 C 565.119 -1.57283 -5.91548 0
M  V30 5986 N 564.256 -0.964932 -6.95438 0
M  V30 5987 H 569.096 -1.5927 -2.51867 0
M  V30 5988 H 566.633 -0.796115 -1.23695 0
M  V30 5989 H 568.591 0.263197 -4.16369 0
M  V30 5990 H 567.221 0.761435 -3.13691 0
M  V30 5991 H 566.273 -1.64045 -3.4321 0
M  V30 5992 H 567.585 -1.95101 -4.59061 0
M  V30 5993 H 566.739 -0.114487 -6.06592 0
M  V30 5994 H 565.478 0.29307 -4.86819 0
M  V30 5995 H 564.483 -1.99775 -5.12221 0
M  V30 5996 H 565.708 -2.39783 -6.35359 0
M  V30 5997 H 563.654 -0.16314 -6.55797 0
M  V30 5998 H 563.571 -1.69311 -7.36797 0
M  V30 5999 H 564.839 -0.575305 -7.77374 0
M  V30 6000 N 569.068 1.32177 -0.85831 0
M  V30 6001 C 570.293 2.01847 -0.476718 0
M  V30 6002 C 570.718 1.64065 0.920021 0
M  V30 6003 O 570.076 0.843189 1.60499 0
M  V30 6004 C 570.124 3.55097 -0.627578 0
M  V30 6005 O 569.228 4.11012 0.338086 0
M  V30 6006 H 568.569 0.635907 -0.191099 0
M  V30 6007 H 571.099 1.68641 -1.15851 0
M  V30 6008 H 571.109 4.04718 -0.516476 0
M  V30 6009 H 569.784 3.81938 -1.64609 0
M  V30 6010 H 568.361 3.72451 0.182917 0
M  V30 6011 N 570.547 0.616602 1.45037 0
M  V30 6012 C 571.479 -0.135186 2.28801 0
M  V30 6013 C 572.492 -0.82303 1.40464 0
M  V30 6014 O 573.681 -0.686909 1.64754 0
M  V30 6015 C 570.781 -1.21292 3.16451 0
M  V30 6016 C 569.954 -0.61043 4.3312 0
M  V30 6017 C 569.013 -1.58022 5.01912 0
M  V30 6018 O 568.039 -1.10301 5.58411 0
M  V30 6019 N 569.241 -2.91464 5.02025 0
M  V30 6020 H 572.006 0.583612 2.93963 0
M  V30 6021 H 569.567 0.456723 1.55324 0
M  V30 6022 H 571.559 -1.86169 3.59337 0
M  V30 6023 H 570.129 -1.83412 2.53138 0
M  V30 6024 H 569.349 0.216638 3.93604 0
M  V30 6025 H 570.637 -0.188293 5.08451 0
M  V30 6026 H 570.035 -3.32829 4.57429 0
M  V30 6027 H 568.592 -3.51741 5.48745 0
M  V30 6028 N 572.025 -1.5352 0.356285 0
M  V30 6029 C 572.973 -2.26945 -0.50978 0
M  V30 6030 C 573.967 -1.29569 -1.09125 0
M  V30 6031 O 575.173 -1.47231 -1.03552 0
M  V30 6032 H 571.548 -0.729368 -0.183102 0
M  V30 6033 H 573.519 -2.98111 0.131374 0
M  V30 6034 C 572.268 -3.06466 -1.64237 0
M  V30 6035 H 571.591 -3.81233 -1.20423 0
M  V30 6036 H 573.031 -3.61035 -2.22327 0
M  V30 6037 C 571.49 -2.16737 -2.57928 0
M  V30 6038 O 572.02 -1.77195 -3.60507 0
M  V30 6039 N 570.226 -1.81558 -2.26903 0
M  V30 6040 H 569.773 -2.13913 -1.43524 0
M  V30 6041 H 569.731 -1.21806 -2.89846 0
M  V30 6042 N 573.503 -0.0852151 -1.57369 0
M  V30 6043 C 574.435 0.907099 -2.10486 0
M  V30 6044 C 575.448 1.25259 -1.03991 0
M  V30 6045 O 576.637 1.20743 -1.31467 0
M  V30 6046 C 573.737 2.21908 -2.56145 0
M  V30 6047 C 572.91 2.05042 -3.86363 0
M  V30 6048 C 571.969 3.19664 -4.17973 0
M  V30 6049 O 570.995 2.94062 -4.87356 0
M  V30 6050 N 572.197 4.45151 -3.72587 0
M  V30 6051 H 574.962 0.453505 -2.96249 0
M  V30 6052 H 572.523 0.100157 -1.6159 0
M  V30 6053 H 574.515 2.97519 -2.74343 0
M  V30 6054 H 573.085 2.58723 -1.75446 0
M  V30 6055 H 572.305 1.13819 -3.77411 0
M  V30 6056 H 573.593 1.91039 -4.71574 0
M  V30 6057 H 572.991 4.68834 -3.16561 0
M  V30 6058 H 571.548 5.17744 -3.9596 0
M  V30 6059 N 574.981 1.5647 0.188427 0
M  V30 6060 C 576.227 1.81281 0.909124 0
M  V30 6061 C 576.56 0.66034 1.82628 0
M  V30 6062 O 575.835 -0.338737 1.91528 0
M  V30 6063 C 576.118 3.16388 1.7196 0
M  V30 6064 C 575.971 4.42137 0.826714 0
M  V30 6065 C 577.29 3.48256 2.69083 0
M  V30 6066 H 574.409 0.659457 0.329068 0
M  V30 6067 H 577.051 1.89182 0.176156 0
M  V30 6068 H 575.201 3.09784 2.34448 0
M  V30 6069 H 576.873 4.60794 0.216025 0
M  V30 6070 H 575.116 4.33594 0.133792 0
M  V30 6071 H 575.787 5.33184 1.42893 0
M  V30 6072 H 578.263 3.55203 2.16726 0
M  V30 6073 H 577.139 4.43899 3.2287 0
M  V30 6074 H 577.4 2.72088 3.48455 0
M  V30 6075 N 576.459 -0.456382 1.50847 0
M  V30 6076 C 577.875 -0.791345 1.386 0
M  V30 6077 C 578.075 -1.9633 0.453498 0
M  V30 6078 O 577.131 -2.52308 -0.0984353 0
M  V30 6079 C 578.444 -1.08959 2.80265 0
M  V30 6080 C 579.992 -1.19517 2.89283 0
M  V30 6081 C 580.467 -1.52647 4.31814 0
M  V30 6082 N 581.958 -1.59609 4.34832 0
M  V30 6083 C 582.693 -1.86777 5.42127 0
M  V30 6084 N 582.189 -2.11866 6.59609 0
M  V30 6085 N 583.982 -1.88402 5.29586 0
M  V30 6086 H 576.133 0.315746 2.1004 0
M  V30 6087 H 578.396 0.0787916 0.94472 0
M  V30 6088 H 578.102 -0.301355 3.50407 0
M  V30 6089 H 577.976 -2.02211 3.18419 0
M  V30 6090 H 580.363 -1.97406 2.19351 0
M  V30 6091 H 580.444 -0.242111 2.54652 0
M  V30 6092 H 580.088 -0.752922 5.02288 0
M  V30 6093 H 580.018 -2.49127 4.63943 0
M  V30 6094 H 582.509 -1.42201 3.50125 0
M  V30 6095 H 582.822 -2.31912 7.37182 0
M  V30 6096 H 581.167 -2.09228 6.62758 0
M  V30 6097 H 584.358 -1.68307 4.36795 0
M  V30 6098 H 584.531 -2.09238 6.13289 0
M  V30 6099 N 577.937 -1.40673 -0.710563 0
M  V30 6100 C 579.186 -1.38525 -1.46607 0
M  V30 6101 C 579.499 0.0077024 -1.95598 0
M  V30 6102 O 580.705 0.151792 -2.71075 0
M  V30 6103 C 579.161 -2.43489 -2.6503 0
M  V30 6104 C 578.769 -3.88619 -2.22888 0
M  V30 6105 C 580.513 -2.50456 -3.42742 0
M  V30 6106 C 578.42 -4.85168 -3.3818 0
M  V30 6107 H 577.35 -0.515092 -0.550632 0
M  V30 6108 H 580.001 -1.66431 -0.772846 0
M  V30 6109 H 578.383 -2.0869 -3.36548 0
M  V30 6110 H 579.557 -4.32588 -1.58758 0
M  V30 6111 H 577.872 -3.85174 -1.58208 0
M  V30 6112 H 580.469 -3.19776 -4.28541 0
M  V30 6113 H 580.812 -1.53665 -3.86902 0
M  V30 6114 H 581.345 -2.84271 -2.78271 0
M  V30 6115 H 578.084 -5.8331 -2.99047 0
M  V30 6116 H 577.604 -4.4586 -4.01209 0
M  V30 6117 H 579.283 -5.05225 -4.04174 0
M  V30 6118 N 579.415 0.9433 -1.26252 0
M  V30 6119 C 580.826 1.50404 -1.10614 0
M  V30 6120 C 581.177 1.93666 0.31429 0
M  V30 6121 O 580.302 1.79709 1.20555 0
M  V30 6122 C 580.897 2.73336 -2.00182 0
M  V30 6123 C 579.456 3.25686 -1.88695 0
M  V30 6124 C 578.603 1.98474 -1.93658 0
M  V30 6125 H 581.554 0.759006 -1.39373 0
M  V30 6126 H 581.575 3.47567 -1.54847 0
M  V30 6127 H 581.087 2.41818 -3.03555 0
M  V30 6128 H 579.188 3.61998 -0.882489 0
M  V30 6129 H 579.301 3.92935 -2.74115 0
M  V30 6130 H 577.665 2.14278 -1.37684 0
M  V30 6131 H 578.448 1.6929 -2.98657 0
M  V30 6132 N 580.893 1.08022 1.14757 0
M  V30 6133 C 582.118 0.82895 1.90114 0
M  V30 6134 C 582.543 -0.612772 1.77839 0
M  V30 6135 O 581.901 -1.42895 1.11583 0
M  V30 6136 C 581.949 1.25062 3.38219 0
M  V30 6137 O 581.053 0.400119 4.10454 0
M  V30 6138 H 580.394 0.301412 0.591648 0
M  V30 6139 H 582.924 1.44062 1.45284 0
M  V30 6140 H 582.934 1.22977 3.89025 0
M  V30 6141 H 581.609 2.30067 3.46471 0
M  V30 6142 H 580.186 0.484052 3.69745 0
M  V30 6143 N 582.371 -1.3172 0.865308 0
M  V30 6144 C 583.303 -2.27545 0.274906 0
M  V30 6145 C 584.316 -1.52887 -0.559413 0
M  V30 6146 O 585.505 -1.74361 -0.382166 0
M  V30 6147 C 582.605 -3.33006 -0.629286 0
M  V30 6148 C 581.778 -4.37063 0.171553 0
M  V30 6149 C 580.837 -5.22044 -0.660052 0
M  V30 6150 O 579.863 -5.69129 -0.0897527 0
M  V30 6151 N 581.065 -5.45946 -1.97289 0
M  V30 6152 H 583.83 -2.78848 1.09836 0
M  V30 6153 H 581.391 -1.44693 0.726331 0
M  V30 6154 H 583.383 -3.86772 -1.19121 0
M  V30 6155 H 581.953 -2.81782 -1.35342 0
M  V30 6156 H 581.173 -3.83436 0.914919 0
M  V30 6157 H 582.461 -5.03662 0.721235 0
M  V30 6158 H 581.859 -5.0944 -2.45942 0
M  V30 6159 H 580.416 -6.02665 -2.4827 0
M  V30 6160 N 583.85 -0.624285 -1.44708 0
M  V30 6161 C 584.812 0.0749638 -2.29077 0
M  V30 6162 C 585.812 0.778965 -1.40673 0
M  V30 6163 O 587.003 0.624591 -1.62618 0
M  V30 6164 C 584.135 1.11663 -3.22094 0
M  V30 6165 H 585.327 -0.667013 -2.92388 0
M  V30 6166 H 582.88 -0.384098 -1.51507 0
M  V30 6167 H 583.615 1.88881 -2.63618 0
M  V30 6168 H 583.401 0.61583 -3.87234 0
M  V30 6169 H 584.891 1.60585 -3.8549 0
M  V30 6170 N 585.328 1.53329 -0.364422 0
M  V30 6171 C 586.26 2.23286 0.517293 0
M  V30 6172 C 587.273 1.24657 1.04711 0
M  V30 6173 O 588.462 1.50887 0.95369 0
M  V30 6174 C 585.562 2.91604 1.72685 0
M  V30 6175 C 584.735 4.1673 1.32873 0
M  V30 6176 C 583.794 4.68269 2.40022 0
M  V30 6177 O 582.82 5.31976 2.02461 0
M  V30 6178 N 584.022 4.45983 3.7159 0
M  V30 6179 H 586.787 2.99588 -0.0819391 0
M  V30 6180 H 584.348 1.60787 -0.189544 0
M  V30 6181 H 586.34 3.22992 2.4384 0
M  V30 6182 H 584.91 2.18763 2.23297 0
M  V30 6183 H 584.13 3.91657 0.447069 0
M  V30 6184 H 585.418 4.98078 1.03902 0
M  V30 6185 H 584.816 3.95077 4.04883 0
M  V30 6186 H 583.373 4.81924 4.38854 0
M  V30 6187 N 586.806 0.0935595 1.57322 0
M  V30 6188 C 587.716 -0.880192 2.17462 0
M  V30 6189 C 588.732 -1.31135 1.14366 0
M  V30 6190 O 589.908 -1.37958 1.46729 0
M  V30 6191 C 586.973 -2.12184 2.74188 0
M  V30 6192 C 586.034 -1.74503 3.92234 0
M  V30 6193 C 585.267 -2.92748 4.46245 0
M  V30 6194 O 585.49 -4.07427 3.99198 0
M  V30 6195 O 584.424 -2.71303 5.37288 0
M  V30 6196 H 588.25 -0.398516 3.01074 0
M  V30 6197 H 585.835 -0.130707 1.48827 0
M  V30 6198 H 587.717 -2.84953 3.10451 0
M  V30 6199 H 586.392 -2.59407 1.93623 0
M  V30 6200 H 585.299 -0.989186 3.60785 0
M  V30 6201 H 586.632 -1.32044 4.74157 0
M  V30 6202 N 588.284 -1.56567 -0.180126 0
M  V30 6203 C 589.514 -1.85349 -0.912647 0
M  V30 6204 C 589.922 -0.675795 -1.76719 0
M  V30 6205 O 589.265 0.3645 -1.80047 0
M  V30 6206 C 589.327 -3.08431 -1.84691 0
M  V30 6207 C 588.991 -4.41694 -1.17284 0
M  V30 6208 C 589.988 -5.17062 -0.542532 0
M  V30 6209 C 587.673 -4.8843 -1.17223 0
M  V30 6210 C 589.667 -6.37351 0.0793953 0
M  V30 6211 C 587.354 -6.08652 -0.54647 0
M  V30 6212 C 588.352 -6.82955 0.0782458 0
M  V30 6213 O 588.04 -8.00897 0.694158 0
M  V30 6214 H 587.772 -0.619286 -0.271036 0
M  V30 6215 H 590.326 -2.0454 -0.187768 0
M  V30 6216 H 588.556 -2.85163 -2.61188 0
M  V30 6217 H 590.245 -3.23733 -2.44851 0
M  V30 6218 H 591.011 -4.8204 -0.535045 0
M  V30 6219 H 586.89 -4.30542 -1.64788 0
M  V30 6220 H 590.434 -6.95287 0.567612 0
M  V30 6221 H 586.331 -6.4314 -0.55151 0
M  V30 6222 H 587.099 -8.16352 0.592537 0
M  V30 6223 N 589.762 0.448376 -1.51087 0
M  V30 6224 C 591.01 1.19635 -1.62886 0
M  V30 6225 C 591.331 1.91977 -0.342024 0
M  V30 6226 O 590.601 1.85094 0.641636 0
M  V30 6227 H 589.181 0.444598 -0.600285 0
M  V30 6228 H 591.843 0.515138 -1.87969 0
M  V30 6229 H 590.939 1.93194 -2.45117 0
M  V30 6230 N 591.24 1.41047 0.703093 0
M  V30 6231 C 592.19 1.38774 1.80903 0
M  V30 6232 C 593.174 0.263275 1.58731 0
M  V30 6233 O 594.366 0.503362 1.69692 0
M  V30 6234 C 591.495 1.26497 3.19145 0
M  V30 6235 C 590.581 2.43775 3.47037 0
M  V30 6236 N 590.972 3.69249 3.45672 0
M  V30 6237 C 589.27 2.37425 3.77552 0
M  V30 6238 C 589.971 4.46989 3.72258 0
M  V30 6239 N 588.947 3.76998 3.91629 0
M  V30 6240 H 592.749 2.33714 1.78199 0
M  V30 6241 H 590.263 1.34996 0.902762 0
M  V30 6242 H 592.26 1.2295 3.98358 0
M  V30 6243 H 590.92 0.32534 3.23066 0
M  V30 6244 H 591.931 4.02239 3.26228 0
M  V30 6245 H 588.608 1.51895 3.88888 0
M  V30 6246 H 589.998 5.55894 3.77402 0
M  V30 6247 N 592.718 -0.936591 1.26751 0
M  V30 6248 C 593.665 -2.03597 1.08706 0
M  V30 6249 C 594.635 -1.66097 -0.00926542 0
M  V30 6250 O 595.82 -1.90199 0.151377 0
M  V30 6251 C 592.96 -3.3727 0.73094 0
M  V30 6252 C 592.073 -3.87778 1.90399 0
M  V30 6253 C 591.208 -5.09859 1.49056 0
M  V30 6254 C 590.247 -5.5264 2.63164 0
M  V30 6255 N 589.384 -6.65921 2.22471 0
M  V30 6256 H 594.224 -2.18364 2.02784 0
M  V30 6257 H 591.761 -1.06985 1.00958 0
M  V30 6258 H 593.719 -4.14128 0.505328 0
M  V30 6259 H 592.349 -3.22337 -0.172868 0
M  V30 6260 H 591.401 -3.07279 2.2424 0
M  V30 6261 H 592.713 -4.15464 2.76028 0
M  V30 6262 H 591.867 -5.9419 1.22567 0
M  V30 6263 H 590.606 -4.8393 0.60524 0
M  V30 6264 H 589.611 -4.66863 2.90377 0
M  V30 6265 H 590.836 -5.80568 3.52303 0
M  V30 6266 H 588.782 -6.41667 1.36379 0
M  V30 6267 H 588.699 -6.93216 3.01641 0
M  V30 6268 H 589.967 -7.53616 1.99205 0
M  V30 6269 N 594.196 -1.08629 -1.14182 0
M  V30 6270 C 595.106 -0.730126 -2.22949 0
M  V30 6271 C 596.122 0.26436 -1.7198 0
M  V30 6272 O 597.298 0.107742 -2.01112 0
M  V30 6273 C 594.363 -0.147227 -3.46387 0
M  V30 6274 C 593.424 -1.19662 -4.12286 0
M  V30 6275 C 592.657 -0.641437 -5.29831 0
M  V30 6276 O 592.88 0.538351 -5.67854 0
M  V30 6277 O 591.814 -1.39257 -5.85569 0
M  V30 6278 H 595.64 -1.63753 -2.55771 0
M  V30 6279 H 593.225 -0.860118 -1.22157 0
M  V30 6280 H 595.107 0.174923 -4.21037 0
M  V30 6281 H 593.782 0.733304 -3.15285 0
M  V30 6282 H 592.689 -1.57133 -3.395 0
M  V30 6283 H 594.022 -2.0495 -4.475 0
M  V30 6284 N 595.674 1.31259 -0.872281 0
M  V30 6285 C 596.622 2.30404 -0.318897 0
M  V30 6286 C 597.616 1.5962 0.567267 0
M  V30 6287 O 598.822 1.74204 0.453111 0
M  V30 6288 H 595.197 0.747243 -0.0844474 0
M  V30 6289 H 597.168 2.74549 -1.16899 0
M  V30 6290 C 595.917 3.44608 0.462683 0
M  V30 6291 H 595.24 3.99248 -0.209936 0
M  V30 6292 H 596.68 4.1609 0.815187 0
M  V30 6293 C 595.139 2.93456 1.65485 0
M  V30 6294 O 595.669 2.92418 2.75417 0
M  V30 6295 N 593.875 2.49628 1.48776 0
M  V30 6296 H 593.422 2.50671 0.593452 0
M  V30 6297 H 593.38 2.15759 2.28682 0
M  V30 6298 N 597.152 0.631951 1.44375 0
M  V30 6299 C 598.099 -0.0724807 2.30686 0
M  V30 6300 C 599.069 -0.835975 1.43529 0
M  V30 6301 O 600.254 -0.816849 1.7243 0
M  V30 6302 C 597.394 -1.04753 3.28817 0
M  V30 6303 C 596.507 -0.282367 4.31076 0
M  V30 6304 C 595.642 -1.2493 5.163 0
M  V30 6305 C 594.681 -0.473349 6.10267 0
M  V30 6306 N 593.818 -1.39079 6.88187 0
M  V30 6307 H 598.658 0.669477 2.90383 0
M  V30 6308 H 596.195 0.341927 1.43071 0
M  V30 6309 H 598.153 -1.62623 3.842 0
M  V30 6310 H 596.783 -1.75661 2.70819 0
M  V30 6311 H 595.835 0.412268 3.78159 0
M  V30 6312 H 597.147 0.321955 4.9776 0
M  V30 6313 H 596.301 -1.89931 5.76204 0
M  V30 6314 H 595.04 -1.88755 4.49692 0
M  V30 6315 H 594.045 0.190142 5.49471 0
M  V30 6316 H 595.27 0.16019 6.78911 0
M  V30 6317 H 593.216 -2.01623 6.24247 0
M  V30 6318 H 593.133 -0.840513 7.51313 0
M  V30 6319 H 594.401 -2.02961 7.52613 0
M  V30 6320 N 598.631 -1.53133 0.372548 0
M  V30 6321 C 599.88 -2.00539 -0.216115 0
M  V30 6322 C 600.193 -1.26374 -1.49295 0
M  V30 6323 O 601.399 -1.64404 -2.16064 0
M  V30 6324 C 599.855 -3.57253 -0.435678 0
M  V30 6325 C 599.463 -4.40302 0.82693 0
M  V30 6326 C 601.207 -4.12995 -0.981618 0
M  V30 6327 C 599.114 -5.88583 0.576567 0
M  V30 6328 H 598.044 -0.749246 -0.084536 0
M  V30 6329 H 600.695 -1.76771 0.492364 0
M  V30 6330 H 599.077 -3.77202 -1.20559 0
M  V30 6331 H 600.251 -4.32124 1.60017 0
M  V30 6332 H 598.566 -3.95699 1.29659 0
M  V30 6333 H 601.163 -5.21418 -1.18436 0
M  V30 6334 H 601.506 -3.68027 -1.94581 0
M  V30 6335 H 602.039 -3.96871 -0.271696 0
M  V30 6336 H 598.778 -6.37841 1.51128 0
M  V30 6337 H 598.298 -5.99592 -0.158047 0
M  V30 6338 H 599.977 -6.46676 0.204722 0
M  V30 6339 N 600.109 -0.101901 -1.5727 0
M  V30 6340 C 601.334 0.571759 -1.99363 0
M  V30 6341 C 601.759 1.60507 -0.980768 0
M  V30 6342 O 601.117 1.81231 0.0498517 0
M  V30 6343 C 601.165 1.18996 -3.404 0
M  V30 6344 O 600.269 2.30572 -3.41922 0
M  V30 6345 H 599.61 0.144449 -0.648098 0
M  V30 6346 H 602.14 -0.185325 -2.03759 0
M  V30 6347 H 602.15 1.52962 -3.78241 0
M  V30 6348 H 600.825 0.432984 -4.1364 0
M  V30 6349 H 599.402 1.98173 -3.15883 0
M  V30 6350 N 601.587 1.56661 0.17182 0
M  V30 6351 C 602.817 1.85831 0.902804 0
M  V30 6352 C 603.225 0.685157 1.76358 0
M  V30 6353 O 602.568 -0.354947 1.80238 0
M  V30 6354 C 602.63 3.09406 1.83053 0
M  V30 6355 C 602.294 4.4231 1.1494 0
M  V30 6356 C 603.291 5.17342 0.515104 0
M  V30 6357 C 600.976 4.89045 1.14631 0
M  V30 6358 C 602.97 6.37299 -0.113194 0
M  V30 6359 C 600.657 6.08933 0.514184 0
M  V30 6360 C 601.655 6.82904 -0.114463 0
M  V30 6361 O 601.343 8.00518 -0.736622 0
M  V30 6362 H 601.075 0.620715 0.267748 0
M  V30 6363 H 603.629 2.04637 0.176918 0
M  V30 6364 H 601.859 2.86544 2.59672 0
M  V30 6365 H 603.548 3.25027 2.4313 0
M  V30 6366 H 604.314 4.82317 0.509474 0
M  V30 6367 H 600.193 4.31409 1.62502 0
M  V30 6368 H 603.737 6.94976 -0.604477 0
M  V30 6369 H 599.634 6.43423 0.517395 0
M  V30 6370 H 600.402 8.16027 -0.635822 0
M  V30 6371 N 603.065 -0.440357 1.51323 0
M  V30 6372 C 603.997 -1.55254 1.68609 0
M  V30 6373 C 605.01 -1.52614 0.566812 0
M  V30 6374 O 606.199 -1.57445 0.841032 0
M  V30 6375 C 603.299 -2.94169 1.68279 0
M  V30 6376 C 602.472 -3.21346 2.96742 0
M  V30 6377 C 601.531 -4.3997 2.8864 0
M  V30 6378 O 600.557 -4.38771 3.62586 0
M  V30 6379 N 601.759 -5.43367 2.04285 0
M  V30 6380 H 604.524 -1.40831 2.6455 0
M  V30 6381 H 602.085 -0.629251 1.49171 0
M  V30 6382 H 604.077 -3.71543 1.60431 0
M  V30 6383 H 602.647 -3.02205 0.799441 0
M  V30 6384 H 601.867 -2.32299 3.18482 0
M  V30 6385 H 603.155 -3.3633 3.81785 0
M  V30 6386 H 602.553 -5.47176 1.43578 0
M  V30 6387 H 601.11 -6.19605 2.02318 0
M  V30 6388 N 604.543 -1.41418 -0.695603 0
M  V30 6389 C 605.768 -1.44329 -1.48942 0
M  V30 6390 C 606.193 -0.0501579 -1.88033 0
M  V30 6391 O 605.551 0.946598 -1.54626 0
M  V30 6392 C 605.599 -2.3578 -2.72837 0
M  V30 6393 O 604.703 -1.81482 -3.70322 0
M  V30 6394 H 604.044 -0.489838 -0.44828 0
M  V30 6395 H 606.574 -1.85878 -0.855014 0
M  V30 6396 H 606.584 -2.51654 -3.21145 0
M  V30 6397 H 605.259 -3.37005 -2.43722 0
M  V30 6398 H 603.836 -1.75058 -3.29255 0
M  V30 6399 N 606.021 0.929856 -1.27246 0
M  V30 6400 C 607.246 1.71674 -1.16374 0
M  V30 6401 C 607.671 1.86064 0.276024 0
M  V30 6402 O 607.029 1.3591 1.19992 0
M  V30 6403 C 607.077 3.09526 -1.85003 0
M  V30 6404 O 606.181 3.96142 -1.14653 0
M  V30 6405 H 605.522 0.52629 -0.404863 0
M  V30 6406 H 608.052 1.16381 -1.68276 0
M  V30 6407 H 608.062 3.59852 -1.92276 0
M  V30 6408 H 606.737 2.98369 -2.89739 0
M  V30 6409 H 605.314 3.54584 -1.15433 0
M  V30 6410 N 607.499 1.09233 1.13605 0
M  V30 6411 C 608.724 0.849067 1.89224 0
M  V30 6412 C 609.149 -0.593875 1.78479 0
M  V30 6413 O 608.507 -1.41703 1.13092 0
M  V30 6414 C 608.555 1.28642 3.36873 0
M  V30 6415 O 607.659 0.44363 4.10007 0
M  V30 6416 H 607 0.30767 0.588417 0
M  V30 6417 H 609.53 1.45595 1.43748 0
M  V30 6418 H 609.54 1.27096 3.87699 0
M  V30 6419 H 608.215 2.33729 3.44011 0
M  V30 6420 H 606.792 0.523241 3.69211 0
M  V30 6421 N 608.977 -1.30795 0.87923 0
M  V30 6422 C 610.205 -2.00527 0.509548 0
M  V30 6423 C 610.62 -1.65944 -0.90045 0
M  V30 6424 O 609.977 -0.893525 -1.5913 0
M  V30 6425 C 610.028 -3.55276 0.667943 0
M  V30 6426 O 609.749 -3.88625 2.02242 0
M  V30 6427 C 611.25 -4.4228 0.300494 0
M  V30 6428 H 608.47 -0.641261 0.197549 0
M  V30 6429 H 611.014 -1.66813 1.18295 0
M  V30 6430 H 609.169 -3.87377 0.0419843 0
M  V30 6431 H 609.583 -4.83334 2.03688 0
M  V30 6432 H 611.057 -5.50061 0.462242 0
M  V30 6433 H 611.534 -4.32556 -0.76106 0
M  V30 6434 H 612.14 -4.15613 0.902536 0
M  V30 6435 N 610.455 -0.639598 -1.44038 0
M  V30 6436 C 611.365 0.0612377 -2.3452 0
M  V30 6437 C 612.381 0.826717 -1.53106 0
M  V30 6438 O 613.557 0.777059 -1.85806 0
M  V30 6439 C 610.622 1.02492 -3.31204 0
M  V30 6440 C 609.683 0.25788 -4.28525 0
M  V30 6441 C 608.916 1.17566 -5.2059 0
M  V30 6442 O 609.139 2.41461 -5.16771 0
M  V30 6443 O 608.073 0.655407 -5.98321 0
M  V30 6444 H 611.899 -0.68318 -2.95916 0
M  V30 6445 H 609.484 -0.399784 -1.43952 0
M  V30 6446 H 611.366 1.57911 -3.90694 0
M  V30 6447 H 610.041 1.7498 -2.7233 0
M  V30 6448 H 608.948 -0.339566 -3.72556 0
M  V30 6449 H 610.281 -0.427154 -4.90343 0
M  V30 6450 N 611.933 1.52934 -0.380664 0
M  V30 6451 C 612.843 2.29921 0.466192 0
M  V30 6452 C 613.859 1.36488 1.07922 0
M  V30 6453 O 615.035 1.69553 1.0869 0
M  V30 6454 C 612.1 3.08468 1.58266 0
M  V30 6455 C 611.161 4.17595 0.995627 0
M  V30 6456 C 610.394 4.92387 2.05889 0
M  V30 6457 O 610.617 4.67184 3.27254 0
M  V30 6458 O 609.551 5.77949 1.68102 0
M  V30 6459 H 613.377 3.03274 -0.160735 0
M  V30 6460 H 610.962 1.48698 -0.144617 0
M  V30 6461 H 612.844 3.57469 2.23145 0
M  V30 6462 H 611.519 2.37937 2.19471 0
M  V30 6463 H 610.426 3.72811 0.310332 0
M  V30 6464 H 611.759 4.90336 0.427918 0
M  V30 6465 N 613.412 0.11024 1.57214 0
M  V30 6466 C 614.828 -0.24638 1.57687 0
M  V30 6467 C 615.028 -1.67344 1.12241 0
M  V30 6468 O 614.084 -2.39298 0.805783 0
M  V30 6469 C 615.397 -0.0210288 3.00693 0
M  V30 6470 C 616.945 -0.0876077 3.12877 0
M  V30 6471 C 617.42 0.10994 4.57868 0
M  V30 6472 N 618.911 0.0556135 4.63167 0
M  V30 6473 C 619.646 0.183495 5.73106 0
M  V30 6474 N 619.142 0.367058 6.91827 0
M  V30 6475 N 620.935 0.123689 5.61964 0
M  V30 6476 H 613.086 1.04246 1.85058 0
M  V30 6477 H 615.349 0.40979 0.854854 0
M  V30 6478 H 615.055 0.965203 3.38196 0
M  V30 6479 H 614.929 -0.756748 3.69531 0
M  V30 6480 H 617.316 -1.06436 2.75237 0
M  V30 6481 H 617.397 0.67985 2.466 0
M  V30 6482 H 617.041 1.08362 4.96206 0
M  V30 6483 H 616.971 -0.677397 5.22225 0
M  V30 6484 H 619.462 -0.0831062 3.77809 0
M  V30 6485 H 619.775 0.455739 7.71455 0
M  V30 6486 H 618.12 0.40292 6.93831 0
M  V30 6487 H 621.311 -0.0186928 4.68096 0
M  V30 6488 H 621.484 0.226797 6.47603 0
M  V30 6489 N 614.89 -1.56749 -0.16351 0
M  V30 6490 C 616.306 -1.51043 -0.515567 0
M  V30 6491 C 616.506 -0.815855 -1.84245 0
M  V30 6492 O 615.562 -0.379477 -2.49632 0
M  V30 6493 C 616.875 -2.95791 -0.541114 0
M  V30 6494 C 618.423 -3.0664 -0.627776 0
M  V30 6495 C 618.898 -4.52861 -0.684141 0
M  V30 6496 N 620.389 -4.5714 -0.746818 0
M  V30 6497 C 621.124 -5.67634 -0.811137 0
M  V30 6498 N 620.62 -6.8774 -0.835811 0
M  V30 6499 N 622.413 -5.55624 -0.850756 0
M  V30 6500 H 614.564 -2.00307 0.70645 0
M  V30 6501 H 616.827 -0.912876 0.255659 0
M  V30 6502 H 616.533 -3.49797 0.365329 0
M  V30 6503 H 616.407 -3.50858 -1.38487 0
M  V30 6504 H 618.794 -2.52663 -1.52464 0
M  V30 6505 H 618.875 -2.54645 0.242805 0
M  V30 6506 H 618.519 -5.07472 0.2085 0
M  V30 6507 H 618.449 -5.02621 -1.57098 0
M  V30 6508 H 620.94 -3.70669 -0.735717 0
M  V30 6509 H 621.253 -7.67701 -0.886279 0
M  V30 6510 H 619.598 -6.90334 -0.803958 0
M  V30 6511 H 622.789 -4.60709 -0.828535 0
M  V30 6512 H 622.962 -6.41756 -0.897418 0
M  V30 6513 N 616.368 0.432326 -1.51554 0
M  V30 6514 C 617.298 1.53242 -1.76179 0
M  V30 6515 C 618.279 1.58717 -0.611801 0
M  V30 6516 O 619.464 1.74364 -0.855033 0
M  V30 6517 C 616.594 2.91278 -1.89141 0
M  V30 6518 C 615.548 3.00663 -3.04608 0
M  V30 6519 C 614.874 4.40728 -3.02759 0
M  V30 6520 C 616.174 2.74281 -4.44485 0
M  V30 6521 H 617.868 1.32886 -2.68294 0
M  V30 6522 H 615.414 0.637841 -1.29103 0
M  V30 6523 H 617.367 3.68203 -2.04951 0
M  V30 6524 H 616.091 3.12877 -0.936785 0
M  V30 6525 H 614.75 2.26179 -2.88511 0
M  V30 6526 H 614.398 4.59301 -2.05065 0
M  V30 6527 H 614.098 4.47936 -3.80299 0
M  V30 6528 H 615.622 5.19619 -3.20669 0
M  V30 6529 H 617.036 3.40936 -4.60907 0
M  V30 6530 H 615.433 2.92893 -5.23769 0
M  V30 6531 H 616.503 1.69856 -4.54177 0
M  V30 6532 N 617.846 1.41785 0.688094 0
M  V30 6533 C 618.794 1.44436 1.82321 0
M  V30 6534 C 619.788 0.321544 1.6632 0
M  V30 6535 O 620.994 0.493931 1.73091 0
M  V30 6536 H 617.369 0.452084 0.600936 0
M  V30 6537 H 619.34 2.40087 1.77202 0
M  V30 6538 C 618.089 1.35071 3.20392 0
M  V30 6539 H 617.412 2.2076 3.33324 0
M  V30 6540 H 618.852 1.40988 3.99873 0
M  V30 6541 C 617.311 0.0639127 3.36839 0
M  V30 6542 O 617.841 -0.888495 3.91751 0
M  V30 6543 N 616.047 -0.0146114 2.90596 0
M  V30 6544 H 615.594 0.761191 2.46097 0
M  V30 6545 H 615.552 -0.874988 3.01979 0
M  V30 6546 N 619.324 -0.923095 1.27737 0
M  V30 6547 C 620.549 -1.71054 1.17283 0
M  V30 6548 C 620.974 -1.86208 -0.266153 0
M  V30 6549 O 620.332 -1.36545 -1.1927 0
M  V30 6550 C 620.38 -3.0854 1.86642 0
M  V30 6551 O 619.484 -3.95528 1.16752 0
M  V30 6552 H 618.825 -0.524136 0.407649 0
M  V30 6553 H 621.355 -1.15487 1.6889 0
M  V30 6554 H 621.365 -3.58828 1.94182 0
M  V30 6555 H 620.04 -2.96828 2.91317 0
M  V30 6556 H 618.617 -3.53967 1.17312 0
M  V30 6557 N 620.802 -1.09834 -1.13024 0
M  V30 6558 C 622.05 -0.835297 -1.8403 0
M  V30 6559 C 622.371 0.640944 -1.84165 0
M  V30 6560 O 621.641 1.46517 -1.30037 0
M  V30 6561 H 620.221 -0.306018 -0.681441 0
M  V30 6562 H 622.883 -1.38734 -1.36891 0
M  V30 6563 H 621.979 -1.19258 -2.88416 0
M  V30 6564 N 622.28 1.30327 -0.886154 0
M  V30 6565 C 623.19 2.31854 -0.357866 0
M  V30 6566 C 624.206 1.65392 0.540502 0
M  V30 6567 O 625.382 1.96683 0.433339 0
M  V30 6568 C 622.447 3.44171 0.417999 0
M  V30 6569 C 621.508 4.26257 -0.510263 0
M  V30 6570 C 620.741 5.3321 0.228669 0
M  V30 6571 O 620.964 5.51542 1.45458 0
M  V30 6572 O 619.898 6.0042 -0.421832 0
M  V30 6573 H 623.724 2.78995 -1.19982 0
M  V30 6574 H 621.309 1.34518 -0.650028 0
M  V30 6575 H 623.191 4.12588 0.857251 0
M  V30 6576 H 621.866 2.99164 1.23623 0
M  V30 6577 H 620.773 3.60533 -0.99835 0
M  V30 6578 H 622.106 4.74871 -1.29454 0
M  V30 6579 N 623.758 0.647228 1.43697 0
M  V30 6580 C 624.705 -0.0480092 2.3075 0
M  V30 6581 C 625.675 -0.820705 1.44408 0
M  V30 6582 O 626.86 -0.798515 1.73287 0
M  V30 6583 C 624 -1.01259 3.2991 0
M  V30 6584 C 623.113 -0.236629 4.31351 0
M  V30 6585 C 622.248 -1.19447 5.17596 0
M  V30 6586 C 621.287 -0.408595 6.10735 0
M  V30 6587 N 620.424 -1.31772 6.89623 0
M  V30 6588 H 625.264 0.700238 2.89656 0
M  V30 6589 H 622.801 0.357082 1.427 0
M  V30 6590 H 624.759 -1.58538 3.85903 0
M  V30 6591 H 623.389 -1.72778 2.72667 0
M  V30 6592 H 622.441 0.452353 3.77701 0
M  V30 6593 H 623.753 0.374731 4.9739 0
M  V30 6594 H 622.907 -1.83809 5.78186 0
M  V30 6595 H 621.646 -1.83975 4.51669 0
M  V30 6596 H 620.651 0.24841 5.49239 0
M  V30 6597 H 621.876 0.232188 6.78703 0
M  V30 6598 H 619.822 -1.94991 6.2635 0
M  V30 6599 H 619.739 -0.760779 7.52162 0
M  V30 6600 H 621.007 -1.94967 7.54724 0
M  V30 6601 N 625.236 -1.5273 0.388769 0
M  V30 6602 C 626.513 -1.93981 -0.251133 0
M  V30 6603 C 626.893 -1.32418 -1.64404 0
M  V30 6604 O 626.241 -0.492074 -2.23139 0
M  V30 6605 C 626.451 -3.47891 -0.27802 0
M  V30 6606 C 627.799 -4.21559 -0.507229 0
M  V30 6607 O 628.823 -3.54394 -0.358252 0
M  V30 6608 O 627.682 -5.40626 -0.799094 0
M  V30 6609 H 624.776 -0.812157 -0.15598 0
M  V30 6610 H 627.322 -1.63809 0.443237 0
M  V30 6611 H 626.094 -3.8503 0.697669 0
M  V30 6612 H 625.717 -3.84364 -1.01733 0
M  V30 6613 N 626.714 -0.118576 -1.57153 0
M  V30 6614 C 627.96 0.540326 -1.95469 0
M  V30 6615 C 628.293 1.66356 -1.00196 0
M  V30 6616 O 627.568 1.94461 -0.039104 0
M  V30 6617 C 627.851 1.07342 -3.43729 0
M  V30 6618 C 627.704 -0.0463732 -4.49776 0
M  V30 6619 C 629.023 1.96442 -3.93826 0
M  V30 6620 H 626.142 0.19494 -0.710751 0
M  V30 6621 H 628.784 -0.19405 -1.89006 0
M  V30 6622 H 626.934 1.69925 -3.49368 0
M  V30 6623 H 628.606 -0.681648 -4.56236 0
M  V30 6624 H 626.849 -0.709574 -4.27957 0
M  V30 6625 H 627.52 0.367856 -5.50773 0
M  V30 6626 H 629.996 1.43731 -3.90488 0
M  V30 6627 H 628.872 2.3066 -4.98084 0
M  V30 6628 H 629.133 2.89077 -3.34495 0
M  V30 6629 N 628.193 1.56834 0.155195 0
M  V30 6630 C 629.125 1.94235 1.21677 0
M  V30 6631 C 630.138 0.83724 1.39621 0
M  V30 6632 O 631.327 1.11567 1.39338 0
M  V30 6633 C 628.427 2.19402 2.58294 0
M  V30 6634 C 627.6 3.50671 2.61436 0
M  V30 6635 C 626.659 3.64475 3.79532 0
M  V30 6636 O 625.685 4.36945 3.64784 0
M  V30 6637 N 626.887 3.00526 4.96653 0
M  V30 6638 H 629.652 2.85901 0.898932 0
M  V30 6639 H 627.213 1.58185 0.34483 0
M  V30 6640 H 629.205 2.25886 3.35794 0
M  V30 6641 H 627.775 1.34042 2.82403 0
M  V30 6642 H 626.995 3.55702 1.69912 0
M  V30 6643 H 628.283 4.3702 2.60559 0
M  V30 6644 H 627.681 2.41549 5.11538 0
M  V30 6645 H 626.238 3.12583 5.71958 0
M  V30 6646 N 629.671 -0.424282 1.51781 0
M  V30 6647 C 630.618 -1.51591 1.74037 0
M  V30 6648 C 631.588 -1.55556 0.582358 0
M  V30 6649 O 632.773 -1.72364 0.818245 0
M  V30 6650 C 629.913 -2.89188 1.8832 0
M  V30 6651 C 629.026 -2.9465 3.1592 0
M  V30 6652 C 628.161 -4.23452 3.20721 0
M  V30 6653 C 627.2 -4.22831 4.42584 0
M  V30 6654 N 626.337 -5.43178 4.44862 0
M  V30 6655 H 631.177 -1.31917 2.67212 0
M  V30 6656 H 628.714 -0.640599 1.32419 0
M  V30 6657 H 630.672 -3.69044 1.94583 0
M  V30 6658 H 629.302 -3.07392 0.985402 0
M  V30 6659 H 628.354 -2.07378 3.18902 0
M  V30 6660 H 629.666 -2.90055 4.05795 0
M  V30 6661 H 628.82 -5.1169 3.25973 0
M  V30 6662 H 627.559 -4.30722 2.28757 0
M  V30 6663 H 626.564 -3.32984 4.37495 0
M  V30 6664 H 627.789 -4.17213 5.35826 0
M  V30 6665 H 625.735 -5.51145 3.55775 0
M  V30 6666 H 625.652 -5.40515 5.28563 0
M  V30 6667 H 626.92 -6.33412 4.54324 0
M  V30 6668 N 631.149 -1.42148 -0.680565 0
M  V30 6669 C 632.397 -1.42029 -1.43779 0
M  V30 6670 C 632.718 -0.0356347 -1.94967 0
M  V30 6671 O 631.988 0.924936 -1.7269 0
M  V30 6672 H 630.568 -0.522835 -0.533529 0
M  V30 6673 H 633.23 -1.7752 -0.804538 0
M  V30 6674 H 632.326 -2.11658 -2.29363 0
M  V30 6675 N 632.627 0.916307 -1.28225 0
M  V30 6676 C 633.873 1.66765 -1.154 0
M  V30 6677 C 634.206 1.91912 0.297251 0
M  V30 6678 O 633.481 1.51766 1.21644 0
M  V30 6679 C 633.764 3.02715 -1.95028 0
M  V30 6680 C 633.617 2.84738 -3.48201 0
M  V30 6681 C 634.936 4.03215 -1.76369 0
M  V30 6682 H 632.055 0.605205 -0.42059 0
M  V30 6683 H 634.697 1.06255 -1.57512 0
M  V30 6684 H 632.847 3.54365 -1.59242 0
M  V30 6685 H 634.519 2.40118 -3.9388 0
M  V30 6686 H 632.762 2.19848 -3.73964 0
M  V30 6687 H 633.433 3.8127 -3.99171 0
M  V30 6688 H 635.909 3.60617 -2.07593 0
M  V30 6689 H 634.785 4.96306 -2.34459 0
M  V30 6690 H 635.046 4.36288 -0.71452 0
M  V30 6691 N 634.105 1.10431 1.1244 0
M  V30 6692 C 635.33 0.869089 1.88313 0
M  V30 6693 C 635.755 -0.574912 1.79099 0
M  V30 6694 O 635.113 -1.40496 1.14589 0
M  V30 6695 C 635.161 1.32208 3.3549 0
M  V30 6696 O 634.265 0.487092 4.09513 0
M  V30 6697 H 633.606 0.313894 0.585121 0
M  V30 6698 H 636.136 1.47111 1.42195 0
M  V30 6699 H 636.146 1.31201 3.86329 0
M  V30 6700 H 634.821 2.37364 3.41513 0
M  V30 6701 H 633.398 0.562372 3.68635 0
M  V30 6702 N 635.583 -1.29855 0.893053 0
M  V30 6703 C 636.53 -2.27909 0.364161 0
M  V30 6704 C 637.5 -1.56726 -0.550093 0
M  V30 6705 O 638.685 -1.84747 -0.47677 0
M  V30 6706 C 635.825 -3.42678 -0.408178 0
M  V30 6707 C 634.938 -4.28659 0.536212 0
M  V30 6708 C 634.073 -5.30599 -0.252521 0
M  V30 6709 C 633.112 -6.08234 0.686822 0
M  V30 6710 N 632.249 -7.02068 -0.0670902 0
M  V30 6711 H 637.089 -2.72531 1.20544 0
M  V30 6712 H 634.626 -1.34047 0.605779 0
M  V30 6713 H 636.584 -4.07986 -0.871962 0
M  V30 6714 H 635.214 -2.99103 -1.21397 0
M  V30 6715 H 634.266 -3.63584 1.1185 0
M  V30 6716 H 635.578 -4.8274 1.25552 0
M  V30 6717 H 634.732 -6.01694 -0.777801 0
M  V30 6718 H 633.471 -4.77233 -1.005 0
M  V30 6719 H 632.476 -5.3601 1.22366 0
M  V30 6720 H 633.701 -6.63689 1.43852 0
M  V30 6721 H 631.647 -6.5108 -0.801955 0
M  V30 6722 H 631.564 -7.53675 0.59243 0
M  V30 6723 H 632.832 -7.77392 -0.572851 0
M  V30 6724 N 637.061 -0.65484 -1.43351 0
M  V30 6725 C 638.309 -0.168559 -2.01396 0
M  V30 6726 C 638.63 1.22235 -1.51933 0
M  V30 6727 O 637.9 1.81685 -0.732627 0
M  V30 6728 H 636.48 -0.0593244 -0.744641 0
M  V30 6729 H 639.142 -0.846871 -1.75539 0
M  V30 6730 H 638.238 -0.154428 -3.11718 0
M  V30 6731 N 638.539 1.52521 -0.396863 0
M  V30 6732 C 639.764 2.06571 0.185258 0
M  V30 6733 C 640.189 1.26605 1.39115 0
M  V30 6734 O 639.547 0.293055 1.78916 0
M  V30 6735 C 639.595 3.5674 0.526189 0
M  V30 6736 O 638.699 3.7929 1.61903 0
M  V30 6737 H 638.04 0.663712 0.0195474 0
M  V30 6738 H 640.57 1.966 -0.566519 0
M  V30 6739 H 640.58 4.00311 0.788338 0
M  V30 6740 H 639.255 4.14379 -0.355397 0
M  V30 6741 H 637.832 3.47605 1.35 0
M  V30 6742 N 640.017 0.126909 1.57088 0
M  V30 6743 C 641.266 -0.529024 1.94639 0
M  V30 6744 C 641.579 -1.67323 1.01304 0
M  V30 6745 O 642.785 -2.39245 1.28352 0
M  V30 6746 C 641.241 -0.992483 3.45945 0
M  V30 6747 C 640.849 0.123691 4.47829 0
M  V30 6748 C 642.593 -1.61934 3.924 0
M  V30 6749 C 640.5 -0.356911 5.90322 0
M  V30 6750 H 639.43 -0.201397 0.726605 0
M  V30 6751 H 642.081 0.208032 1.82317 0
M  V30 6752 H 640.463 -1.7842 3.53528 0
M  V30 6753 H 641.637 0.900168 4.51922 0
M  V30 6754 H 639.952 0.657699 4.11173 0
M  V30 6755 H 642.549 -1.9902 4.96281 0
M  V30 6756 H 642.892 -2.50075 3.32819 0
M  V30 6757 H 643.425 -0.892894 3.8765 0
M  V30 6758 H 640.164 0.488636 6.53676 0
M  V30 6759 H 639.684 -1.0997 5.89633 0
M  V30 6760 H 641.363 -0.815547 6.41839 0
M  V30 6761 N 641.495 -1.56914 -0.146875 0
M  V30 6762 C 642.72 -1.87881 -0.878386 0
M  V30 6763 C 643.145 -0.715945 -1.73942 0
M  V30 6764 O 642.503 0.334447 -1.78189 0
M  V30 6765 C 642.551 -3.17431 -1.71084 0
M  V30 6766 O 641.655 -3.01374 -2.81509 0
M  V30 6767 H 640.996 -0.617289 -0.244644 0
M  V30 6768 H 643.526 -2.04136 -0.137654 0
M  V30 6769 H 643.536 -3.49455 -2.10582 0
M  V30 6770 H 642.211 -4.01671 -1.07856 0
M  V30 6771 H 640.788 -2.80758 -2.45416 0
M  V30 6772 N 642.974 0.416227 -1.52004 0
M  V30 6773 C 644.223 1.16088 -1.64944 0
M  V30 6774 C 644.536 1.91835 -0.381928 0
M  V30 6775 O 645.742 2.6867 -0.391013 0
M  V30 6776 C 644.198 2.1124 -2.91386 0
M  V30 6777 C 643.806 1.41042 -4.25219 0
M  V30 6778 C 645.55 2.86008 -3.13688 0
M  V30 6779 C 643.457 2.34801 -5.42791 0
M  V30 6780 H 642.387 0.437041 -0.61442 0
M  V30 6781 H 645.038 0.425971 -1.78487 0
M  V30 6782 H 643.42 2.88254 -2.71525 0
M  V30 6783 H 644.594 0.694416 -4.55538 0
M  V30 6784 H 642.909 0.78344 -4.08964 0
M  V30 6785 H 645.506 3.56286 -3.98703 0
M  V30 6786 H 645.849 3.48556 -2.27628 0
M  V30 6787 H 646.382 2.16095 -3.33988 0
M  V30 6788 H 643.121 1.7691 -6.31176 0
M  V30 6789 H 642.641 3.04395 -5.16821 0
M  V30 6790 H 644.32 2.9548 -5.75587 0
M  V30 6791 N 644.452 1.42507 0.673017 0
M  V30 6792 C 645.384 1.42074 1.79854 0
M  V30 6793 C 646.397 0.319569 1.59633 0
M  V30 6794 O 647.586 0.582769 1.68719 0
M  V30 6795 C 644.686 1.19886 3.16987 0
M  V30 6796 C 643.859 2.42471 3.64042 0
M  V30 6797 C 642.918 2.15802 4.79913 0
M  V30 6798 O 641.944 2.89015 4.90366 0
M  V30 6799 N 643.146 1.16225 5.68746 0
M  V30 6800 H 645.911 2.3909 1.8071 0
M  V30 6801 H 643.472 1.37409 0.856171 0
M  V30 6802 H 645.464 0.999591 3.92161 0
M  V30 6803 H 644.034 0.313879 3.1102 0
M  V30 6804 H 643.254 2.77954 2.79526 0
M  V30 6805 H 644.542 3.24097 3.92223 0
M  V30 6806 H 643.94 0.556756 5.62954 0
M  V30 6807 H 642.497 1.02285 6.43724 0
M  V30 6808 N 645.93 -0.909495 1.28709 0
M  V30 6809 C 647.158 -1.69272 1.18973 0
M  V30 6810 C 647.573 -1.87123 -0.251048 0
M  V30 6811 O 646.93 -1.40127 -1.16922 0
M  V30 6812 C 646.981 -3.08257 1.88839 0
M  V30 6813 O 646.702 -2.91228 3.27289 0
M  V30 6814 C 648.203 -4.02642 1.85457 0
M  V30 6815 H 645.423 -0.528999 0.412797 0
M  V30 6816 H 647.967 -1.13803 1.69909 0
M  V30 6817 H 646.122 -3.6053 1.41762 0
M  V30 6818 H 646.536 -3.79223 3.6234 0
M  V30 6819 H 648.01 -4.97613 2.38925 0
M  V30 6820 H 648.487 -4.31327 0.827893 0
M  V30 6821 H 649.093 -3.56298 2.32233 0
M  V30 6822 N 647.408 -1.11026 -1.11852 0
M  V30 6823 C 648.318 -0.777252 -2.2135 0
M  V30 6824 C 649.334 0.227821 -1.72502 0
M  V30 6825 O 650.51 0.0650587 -2.01295 0
M  V30 6826 C 647.575 -0.220668 -3.45997 0
M  V30 6827 C 646.636 -1.2838 -4.09655 0
M  V30 6828 C 645.869 -0.753678 -5.28352 0
M  V30 6829 O 646.092 0.417779 -5.68868 0
M  V30 6830 O 645.026 -1.51647 -5.82483 0
M  V30 6831 H 648.852 -1.69141 -2.5224 0
M  V30 6832 H 646.437 -0.885836 -1.20305 0
M  V30 6833 H 648.319 0.0855756 -4.21313 0
M  V30 6834 H 646.994 0.666262 -3.16769 0
M  V30 6835 H 645.901 -1.64299 -3.3609 0
M  V30 6836 H 647.234 -2.14396 -4.43052 0
M  V30 6837 N 648.886 1.2938 -0.899927 0
M  V30 6838 C 649.796 2.31462 -0.382437 0
M  V30 6839 C 650.812 1.65956 0.522929 0
M  V30 6840 O 651.988 1.97131 0.412454 0
M  V30 6841 C 649.053 3.44595 0.381472 0
M  V30 6842 C 648.114 4.25692 -0.555444 0
M  V30 6843 C 647.347 5.33422 0.172102 0
M  V30 6844 O 647.57 5.53053 1.396 0
M  V30 6845 O 646.504 5.99939 -0.485491 0
M  V30 6846 H 650.33 2.77706 -1.22934 0
M  V30 6847 H 647.915 1.33821 -0.664259 0
M  V30 6848 H 649.797 4.13474 0.813442 0
M  V30 6849 H 648.472 3.00458 1.20443 0
M  V30 6850 H 647.379 3.59453 -1.03653 0
M  V30 6851 H 648.712 4.73471 -1.34483 0
M  V30 6852 N 650.364 0.662433 1.43002 0
M  V30 6853 C 651.311 -0.0235324 2.30788 0
M  V30 6854 C 652.281 -0.805342 1.4527 0
M  V30 6855 O 653.466 -0.78009 1.74124 0
M  V30 6856 C 650.606 -0.977545 3.30965 0
M  V30 6857 C 649.719 -0.190865 4.31578 0
M  V30 6858 C 648.854 -1.13951 5.18834 0
M  V30 6859 C 647.893 -0.343796 6.11134 0
M  V30 6860 N 647.03 -1.2445 6.90982 0
M  V30 6861 H 651.87 0.730921 2.88897 0
M  V30 6862 H 649.407 0.372197 1.42313 0
M  V30 6863 H 651.365 -1.54437 3.87563 0
M  V30 6864 H 649.995 -1.69877 2.74484 0
M  V30 6865 H 649.047 0.492388 3.772 0
M  V30 6866 H 650.359 0.427464 4.96965 0
M  V30 6867 H 649.513 -1.77666 5.80103 0
M  V30 6868 H 648.252 -1.79174 4.53595 0
M  V30 6869 H 647.257 0.30665 5.48944 0
M  V30 6870 H 648.482 0.304161 6.78419 0
M  V30 6871 H 646.428 -1.88336 6.28383 0
M  V30 6872 H 646.345 -0.680959 7.52927 0
M  V30 6873 H 647.613 -1.86952 7.56749 0
M  V30 6874 N 651.842 -1.52309 0.404946 0
M  V30 6875 C 653.091 -2.00952 -0.173529 0
M  V30 6876 C 653.404 -1.29512 -1.46581 0
M  V30 6877 O 654.61 -1.6895 -2.12528 0
M  V30 6878 C 653.066 -3.58097 -0.359801 0
M  V30 6879 C 652.674 -4.38449 0.920138 0
M  V30 6880 C 654.418 -4.14984 -0.893794 0
M  V30 6881 C 652.325 -5.87227 0.701285 0
M  V30 6882 H 651.255 -0.750871 -0.0686244 0
M  V30 6883 H 653.906 -1.75687 0.529749 0
M  V30 6884 H 652.288 -3.79675 -1.12531 0
M  V30 6885 H 653.462 -4.28633 1.69147 0
M  V30 6886 H 651.777 -3.92859 1.38024 0
M  V30 6887 H 654.374 -5.23813 -1.0735 0
M  V30 6888 H 654.717 -3.72072 -1.8673 0
M  V30 6889 H 655.25 -3.97358 -0.187453 0
M  V30 6890 H 651.989 -6.34491 1.64624 0
M  V30 6891 H 651.509 -5.99792 -0.0308288 0
M  V30 6892 H 653.188 -6.46096 0.341846 0
M  V30 6893 N 653.32 -0.135238 -1.57019 0
M  V30 6894 C 654.27 0.820408 -2.12728 0
M  V30 6895 C 655.254 1.21735 -1.05211 0
M  V30 6896 O 656.446 1.18574 -1.31413 0
M  V30 6897 C 653.575 2.06414 -2.74314 0
M  V30 6898 C 652.661 1.69083 -3.88937 0
M  V30 6899 N 653.052 1.0251 -4.95303 0
M  V30 6900 C 651.35 1.98434 -3.99425 0
M  V30 6901 C 652.051 0.846749 -5.75504 0
M  V30 6902 N 651.027 1.3769 -5.25873 0
M  V30 6903 H 654.829 0.302426 -2.9234 0
M  V30 6904 H 652.343 0.0667009 -1.62263 0
M  V30 6905 H 654.34 2.75863 -3.12579 0
M  V30 6906 H 653 2.58741 -1.96171 0
M  V30 6907 H 654.011 0.687207 -5.1332 0
M  V30 6908 H 650.688 2.52693 -3.32344 0
M  V30 6909 H 652.078 0.322949 -6.71123 0
M  V30 6910 N 654.798 1.5699 0.138552 0
M  V30 6911 C 656.046 1.83446 0.848053 0
M  V30 6912 C 656.367 0.71744 1.81322 0
M  V30 6913 O 655.637 -0.260228 1.94164 0
M  V30 6914 H 654.217 0.676792 0.316166 0
M  V30 6915 H 656.879 1.94462 0.130538 0
M  V30 6916 H 655.975 2.78677 1.40518 0
M  V30 6917 N 656.276 -0.40816 1.52223 0
M  V30 6918 C 657.223 -1.49737 1.75635 0
M  V30 6919 C 658.193 -1.5493 0.598824 0
M  V30 6920 O 659.378 -1.71487 0.83648 0
M  V30 6921 C 656.518 -2.87174 1.91376 0
M  V30 6922 C 655.631 -2.91283 3.19027 0
M  V30 6923 C 654.766 -4.20026 3.25195 0
M  V30 6924 C 653.805 -4.18113 4.47044 0
M  V30 6925 N 652.942 -5.38429 4.50598 0
M  V30 6926 H 657.782 -1.29075 2.68596 0
M  V30 6927 H 655.319 -0.626518 1.33091 0
M  V30 6928 H 657.277 -3.66959 1.98486 0
M  V30 6929 H 655.907 -3.06329 1.01795 0
M  V30 6930 H 654.959 -2.03984 3.21084 0
M  V30 6931 H 656.271 -2.85734 4.08849 0
M  V30 6932 H 655.425 -5.08204 3.31382 0
M  V30 6933 H 654.164 -4.28271 2.33313 0
M  V30 6934 H 653.169 -3.28325 4.41002 0
M  V30 6935 H 654.394 -4.11507 5.40221 0
M  V30 6936 H 652.34 -5.4734 3.616 0
M  V30 6937 H 652.257 -5.34879 5.34266 0
M  V30 6938 H 653.525 -6.28557 4.61016 0
M  V30 6939 N 657.755 -1.42862 -0.66545 0
M  V30 6940 C 658.98 -1.47456 -1.45848 0
M  V30 6941 C 659.405 -0.0900312 -1.87884 0
M  V30 6942 O 658.763 0.913587 -1.56599 0
M  V30 6943 C 658.811 -2.41514 -2.67774 0
M  V30 6944 O 657.915 -1.89296 -3.66389 0
M  V30 6945 H 657.256 -0.499236 -0.437789 0
M  V30 6946 H 659.786 -1.8765 -0.815394 0
M  V30 6947 H 659.796 -2.58409 -3.15735 0
M  V30 6948 H 658.471 -3.42099 -2.36519 0
M  V30 6949 H 657.048 -1.82003 -3.25468 0
M  V30 6950 N 659.233 0.902656 -1.29189 0
M  V30 6951 C 660.165 2.01149 -1.09872 0
M  V30 6952 C 661.178 1.62732 -0.0471046 0
M  V30 6953 O 662.367 1.76107 -0.29132 0
M  V30 6954 C 659.467 3.32612 -0.649818 0
M  V30 6955 C 658.64 3.99574 -1.7793 0
M  V30 6956 C 657.699 5.09325 -1.32191 0
M  V30 6957 O 656.725 5.31919 -2.02611 0
M  V30 6958 N 657.927 5.80185 -0.191171 0
M  V30 6959 H 660.692 2.18276 -2.05368 0
M  V30 6960 H 658.253 1.07466 -1.2109 0
M  V30 6961 H 660.245 4.03375 -0.327199 0
M  V30 6962 H 658.815 3.11876 0.212597 0
M  V30 6963 H 658.035 3.22213 -2.27095 0
M  V30 6964 H 659.323 4.41056 -2.53668 0
M  V30 6965 H 658.721 5.64312 0.396016 0
M  V30 6966 H 657.278 6.5176 0.0721001 0
M  V30 6967 N 660.711 1.11618 1.11262 0
M  V30 6968 C 661.659 0.771291 2.1944 0
M  V30 6969 C 662.653 -0.238073 1.67719 0
M  V30 6970 O 663.859 -0.0971628 1.79738 0
M  V30 6971 H 660.234 0.231548 0.715465 0
M  V30 6972 H 662.205 1.69226 2.45775 0
M  V30 6973 C 660.954 0.232765 3.4692 0
M  V30 6974 H 660.277 1.00072 3.87073 0
M  V30 6975 H 661.717 0.0296561 4.2399 0
M  V30 6976 C 660.176 -1.03738 3.20531 0
M  V30 6977 O 660.706 -2.11675 3.41404 0
M  V30 6978 N 658.912 -0.960906 2.74253 0
M  V30 6979 H 658.459 -0.0824323 2.57468 0
M  V30 6980 H 658.417 -1.8114 2.56974 0
M  V30 6981 N 662.189 -1.289 0.906776 0
M  V30 6982 C 663.121 -2.26556 0.347159 0
M  V30 6983 C 664.134 -1.54589 -0.51049 0
M  V30 6984 O 665.323 -1.75489 -0.326501 0
M  V30 6985 C 662.423 -3.3484 -0.523024 0
M  V30 6986 C 661.596 -4.36296 0.310515 0
M  V30 6987 C 660.655 -5.23879 -0.493634 0
M  V30 6988 O 659.681 -5.69127 0.0913569 0
M  V30 6989 N 660.883 -5.51946 -1.7982 0
M  V30 6990 H 663.648 -2.75212 1.18652 0
M  V30 6991 H 661.209 -1.42309 0.771996 0
M  V30 6992 H 663.201 -3.90366 -1.06756 0
M  V30 6993 H 661.771 -2.85946 -1.26309 0
M  V30 6994 H 660.991 -3.80331 1.03644 0
M  V30 6995 H 662.279 -5.01113 0.881106 0
M  V30 6996 H 661.677 -5.17006 -2.2961 0
M  V30 6997 H 660.234 -6.10258 -2.28971 0
M  V30 6998 N 663.667 -0.670007 -1.42649 0
M  V30 6999 C 664.913 -0.190568 -2.01903 0
M  V30 7000 C 665.246 1.19817 -1.52832 0
M  V30 7001 O 664.521 1.80342 -0.728485 0
M  V30 7002 C 664.804 -0.21991 -3.59428 0
M  V30 7003 C 664.657 -1.64376 -4.18689 0
M  V30 7004 C 665.976 0.434519 -4.3795 0
M  V30 7005 H 663.095 -0.0707219 -0.733599 0
M  V30 7006 H 665.737 -0.853883 -1.69732 0
M  V30 7007 H 663.887 0.344894 -3.86966 0
M  V30 7008 H 665.559 -2.26044 -4.02122 0
M  V30 7009 H 663.802 -2.18591 -3.747 0
M  V30 7010 H 664.473 -1.61601 -5.27815 0
M  V30 7011 H 666.949 -0.0462156 -4.16074 0
M  V30 7012 H 665.825 0.38333 -5.4756 0
M  V30 7013 H 666.086 1.51135 -4.15464 0
M  V30 7014 N 665.145 1.52092 -0.413018 0
M  V30 7015 C 666.373 2.06274 0.160881 0
M  V30 7016 C 666.788 1.28273 1.38533 0
M  V30 7017 O 666.145 0.33563 1.79387 0
M  V30 7018 C 666.196 3.57921 0.507443 0
M  V30 7019 O 665.917 4.32971 -0.668388 0
M  V30 7020 C 667.418 4.28533 1.13465 0
M  V30 7021 H 664.638 0.67074 0.0186759 0
M  V30 7022 H 667.182 1.95951 -0.585092 0
M  V30 7023 H 665.337 3.68238 1.20331 0
M  V30 7024 H 665.751 5.23135 -0.378169 0
M  V30 7025 H 667.225 5.35804 1.32732 0
M  V30 7026 H 667.702 3.85258 2.10886 0
M  V30 7027 H 668.308 4.22595 0.478876 0
M  V30 7028 N 666.623 0.143563 1.56945 0
M  V30 7029 C 667.872 -0.50835 1.95189 0
M  V30 7030 C 668.185 -1.66239 1.03073 0
M  V30 7031 O 669.391 -2.3787 1.30882 0
M  V30 7032 C 667.847 -0.955735 3.46978 0
M  V30 7033 C 667.455 0.171183 4.47673 0
M  V30 7034 C 669.199 -1.57763 3.94095 0
M  V30 7035 C 667.106 -0.294279 5.90667 0
M  V30 7036 H 666.036 -0.193679 0.728701 0
M  V30 7037 H 668.687 0.227357 1.82086 0
M  V30 7038 H 667.069 -1.7466 3.55401 0
M  V30 7039 H 668.243 0.948049 4.50942 0
M  V30 7040 H 666.558 0.701273 4.10452 0
M  V30 7041 H 669.155 -1.93745 4.98364 0
M  V30 7042 H 669.498 -2.46531 3.35452 0
M  V30 7043 H 670.031 -0.851728 3.88575 0
M  V30 7044 H 666.77 0.557939 6.53121 0
M  V30 7045 H 666.29 -1.0371 5.90766 0
M  V30 7046 H 667.969 -0.747426 6.42668 0
M  V30 7047 N 668.101 -1.57061 -0.130224 0
M  V30 7048 C 669.512 -1.73539 -0.68856 0
M  V30 7049 C 669.863 -0.760554 -1.80859 0
M  V30 7050 O 668.988 0.0690796 -2.1629 0
M  V30 7051 C 669.583 -3.14666 -1.25581 0
M  V30 7052 C 668.142 -3.32689 -1.76055 0
M  V30 7053 C 667.289 -2.69436 -0.655712 0
M  V30 7054 H 670.24 -1.58412 0.0956002 0
M  V30 7055 H 670.261 -3.15595 -2.12556 0
M  V30 7056 H 669.773 -3.85593 -0.440412 0
M  V30 7057 H 667.874 -2.66786 -2.60108 0
M  V30 7058 H 667.987 -4.4077 -1.87772 0
M  V30 7059 H 666.351 -2.30362 -1.08654 0
M  V30 7060 H 667.134 -3.42979 0.14852 0
M  V30 7061 N 669.579 0.400081 -1.52437 0
M  V30 7062 C 670.804 1.17221 -1.71096 0
M  V30 7063 C 671.229 1.83269 -0.423565 0
M  V30 7064 O 670.587 1.70378 0.619751 0
M  V30 7065 C 670.635 2.20425 -2.85386 0
M  V30 7066 O 669.739 3.26769 -2.51586 0
M  V30 7067 H 669.08 0.341766 -0.569291 0
M  V30 7068 H 671.61 0.467772 -1.99181 0
M  V30 7069 H 671.62 2.64605 -3.10561 0
M  V30 7070 H 670.295 1.71737 -3.78786 0
M  V30 7071 H 668.872 2.87804 -2.37114 0
M  V30 7072 N 671.057 1.43213 0.657864 0
M  V30 7073 C 671.989 1.43974 1.78337 0
M  V30 7074 C 673.002 0.336482 1.59285 0
M  V30 7075 O 674.191 0.600631 1.68091 0
M  V30 7076 C 671.291 1.23242 3.15697 0
M  V30 7077 C 670.464 2.46319 3.61449 0
M  V30 7078 C 669.523 2.2088 4.77597 0
M  V30 7079 O 668.549 2.942 4.87273 0
M  V30 7080 N 669.751 1.22251 5.67481 0
M  V30 7081 H 672.516 2.40993 1.78164 0
M  V30 7082 H 670.077 1.3831 0.841549 0
M  V30 7083 H 672.069 1.04113 3.91079 0
M  V30 7084 H 670.639 0.346849 3.1067 0
M  V30 7085 H 669.859 2.80904 2.76563 0
M  V30 7086 H 671.147 3.28239 3.88763 0
M  V30 7087 H 670.545 0.616433 5.62331 0
M  V30 7088 H 669.102 1.09107 6.42603 0
M  V30 7089 N 672.536 -0.895792 1.29666 0
M  V30 7090 C 673.813 -1.62723 1.08538 0
M  V30 7091 C 674.193 -2.07848 -0.369119 0
M  V30 7092 O 673.541 -1.8372 -1.35864 0
M  V30 7093 C 673.751 -2.80505 2.07648 0
M  V30 7094 C 675.099 -3.51098 2.3878 0
M  V30 7095 O 676.123 -2.90679 2.05874 0
M  V30 7096 O 674.982 -4.60028 2.9502 0
M  V30 7097 H 672.076 -0.714692 0.416106 0
M  V30 7098 H 674.622 -0.943517 1.41053 0
M  V30 7099 H 673.394 -2.44386 3.05599 0
M  V30 7100 H 673.017 -3.5658 1.75887 0
M  V30 7101 N 674.014 -1.12206 -1.10668 0
M  V30 7102 C 674.946 -0.74552 -2.16736 0
M  V30 7103 C 675.959 0.226696 -1.61214 0
M  V30 7104 O 677.148 0.0083936 -1.78498 0
M  V30 7105 C 674.248 -0.0823368 -3.388 0
M  V30 7106 C 673.421 -1.08341 -4.2377 0
M  V30 7107 C 672.48 -0.448292 -5.24287 0
M  V30 7108 O 671.506 -1.10458 -5.58379 0
M  V30 7109 N 672.708 0.785336 -5.75163 0
M  V30 7110 H 675.473 -1.65818 -2.49649 0
M  V30 7111 H 673.034 -1.01335 -1.26265 0
M  V30 7112 H 675.026 0.354476 -4.03145 0
M  V30 7113 H 673.596 0.733041 -3.03884 0
M  V30 7114 H 672.816 -1.69792 -3.55759 0
M  V30 7115 H 674.104 -1.76042 -4.77375 0
M  V30 7116 H 673.502 1.33755 -5.4966 0
M  V30 7117 H 672.059 1.16501 -6.41304 0
M  V30 7118 N 675.492 1.28418 -0.913599 0
M  V30 7119 C 676.402 2.31043 -0.406965 0
M  V30 7120 C 677.418 1.66501 0.505298 0
M  V30 7121 O 678.594 1.97558 0.391522 0
M  V30 7122 C 675.659 3.4498 0.344901 0
M  V30 7123 C 674.72 4.25078 -0.600563 0
M  V30 7124 C 673.953 5.33575 0.115516 0
M  V30 7125 O 674.176 5.54503 1.33727 0
M  V30 7126 O 673.11 5.9939 -0.549095 0
M  V30 7127 H 676.936 2.76387 -1.25873 0
M  V30 7128 H 674.521 1.33109 -0.678415 0
M  V30 7129 H 676.403 4.14314 0.769542 0
M  V30 7130 H 675.078 3.01719 1.1725 0
M  V30 7131 H 673.985 3.58334 -1.0746 0
M  V30 7132 H 675.318 4.72018 -1.39497 0
M  V30 7133 N 676.97 0.677563 1.42291 0
M  V30 7134 C 677.92 -0.0218641 2.2799 0
M  V30 7135 C 678.904 -0.770816 1.41235 0
M  V30 7136 O 680.096 -0.649273 1.64662 0
M  V30 7137 C 677.225 -0.970449 3.29298 0
M  V30 7138 C 676.311 -0.218695 4.23536 0
M  V30 7139 N 676.702 0.777908 4.99782 0
M  V30 7140 C 675 -0.456748 4.43655 0
M  V30 7141 C 675.701 1.22632 5.68627 0
M  V30 7142 N 674.677 0.55573 5.40752 0
M  V30 7143 H 678.479 0.742516 2.84366 0
M  V30 7144 H 675.993 0.506862 1.54288 0
M  V30 7145 H 677.99 -1.48652 3.89497 0
M  V30 7146 H 676.65 -1.73463 2.74483 0
M  V30 7147 H 677.661 1.15754 5.04798 0
M  V30 7148 H 674.338 -1.20021 3.99877 0
M  V30 7149 H 675.728 2.05231 6.39789 0
M  V30 7150 N 678.448 -1.51871 0.421078 0
M  V30 7151 C 679.696 -2.01539 -0.150492 0
M  V30 7152 C 680.017 -1.30803 -1.44623 0
M  V30 7153 O 679.287 -0.437568 -1.90951 0
M  V30 7154 H 677.867 -0.744698 -0.0586041 0
M  V30 7155 H 680.529 -1.8668 0.560059 0
M  V30 7156 H 679.625 -3.10264 -0.338068 0
M  V30 7157 N 679.926 -0.151884 -1.56866 0
M  V30 7158 C 680.876 0.797799 -2.13586 0
M  V30 7159 C 681.86 1.20613 -1.06496 0
M  V30 7160 O 683.052 1.17173 -1.32663 0
M  V30 7161 C 680.181 2.03493 -2.76488 0
M  V30 7162 C 679.267 1.64948 -3.90708 0
M  V30 7163 N 679.658 0.972513 -4.96363 0
M  V30 7164 C 677.956 1.94186 -4.01507 0
M  V30 7165 C 678.657 0.785661 -5.7637 0
M  V30 7166 N 677.633 1.32105 -5.27304 0
M  V30 7167 H 681.435 0.271403 -2.92644 0
M  V30 7168 H 678.949 0.049487 -1.62325 0
M  V30 7169 H 680.946 2.72532 -3.15487 0
M  V30 7170 H 679.606 2.56646 -1.98904 0
M  V30 7171 H 680.617 0.632724 -5.1402 0
M  V30 7172 H 677.294 2.49154 -3.35005 0
M  V30 7173 H 678.684 0.251749 -6.71428 0
M  V30 7174 N 681.404 1.57128 0.121893 0
M  V30 7175 C 682.351 2.0013 1.14964 0
M  V30 7176 C 683.321 0.872959 1.4131 0
M  V30 7177 O 684.506 1.13696 1.53225 0
M  V30 7178 C 681.646 2.40824 2.4718 0
M  V30 7179 C 680.759 3.67061 2.27794 0
M  V30 7180 C 679.894 3.96749 3.53219 0
M  V30 7181 C 678.933 5.16178 3.28978 0
M  V30 7182 N 678.07 5.41751 4.46599 0
M  V30 7183 H 682.91 2.8772 0.775947 0
M  V30 7184 H 680.447 1.42328 0.371652 0
M  V30 7185 H 682.405 2.62454 3.24305 0
M  V30 7186 H 681.035 1.56279 2.82448 0
M  V30 7187 H 680.087 3.53063 1.416 0
M  V30 7188 H 681.399 4.5434 2.05857 0
M  V30 7189 H 680.553 4.19012 4.38764 0
M  V30 7190 H 679.292 3.07941 3.78185 0
M  V30 7191 H 678.297 4.93762 2.41824 0
M  V30 7192 H 679.522 6.06561 3.05386 0
M  V30 7193 H 677.468 4.55899 4.71691 0
M  V30 7194 H 677.385 6.23347 4.27756 0
M  V30 7195 H 678.653 5.68531 5.33285 0
M  V30 7196 N 682.882 -0.391992 1.52647 0
M  V30 7197 C 683.792 -1.503 1.80131 0
M  V30 7198 C 684.808 -1.59825 0.687882 0
M  V30 7199 O 685.984 -1.76218 0.975149 0
M  V30 7200 C 683.049 -2.85863 1.96171 0
M  V30 7201 C 682.11 -2.86084 3.20085 0
M  V30 7202 C 681.343 -4.15181 3.35351 0
M  V30 7203 O 681.566 -5.09981 2.55491 0
M  V30 7204 O 680.5 -4.22603 4.28591 0
M  V30 7205 H 684.326 -1.30007 2.74466 0
M  V30 7206 H 681.911 -0.579539 1.37701 0
M  V30 7207 H 683.793 -3.66236 2.08445 0
M  V30 7208 H 682.468 -3.06189 1.05025 0
M  V30 7209 H 681.375 -2.04504 3.13256 0
M  V30 7210 H 682.708 -2.7071 4.11068 0
M  V30 7211 N 684.36 -1.4356 -0.65026 0
M  V30 7212 C 685.308 -1.49219 -1.78427 0
M  V30 7213 C 686.302 -0.365528 -1.65409 0
M  V30 7214 O 687.508 -0.539649 -1.7172 0
M  V30 7215 H 683.883 -0.467858 -0.588738 0
M  V30 7216 H 685.854 -2.44701 -1.70774 0
M  V30 7217 C 684.603 -1.43519 -3.16698 0
M  V30 7218 H 683.926 -2.2952 -3.27354 0
M  V30 7219 H 685.366 -1.5154 -3.95995 0
M  V30 7220 C 683.825 -0.153197 -3.36552 0
M  V30 7221 O 684.355 0.784317 -3.93969 0
M  V30 7222 N 682.561 -0.0624402 -2.90533 0
M  V30 7223 H 682.108 -0.826172 -2.43992 0
M  V30 7224 H 682.066 0.794616 -3.04193 0
M  V30 7225 N 685.838 0.888903 -1.30139 0
M  V30 7226 C 686.785 1.99422 -1.16188 0
M  V30 7227 C 687.755 1.66017 -0.0523869 0
M  V30 7228 O 688.94 1.89506 -0.221864 0
M  V30 7229 C 686.08 3.34325 -0.855612 0
M  V30 7230 C 685.193 3.80445 -2.0466 0
M  V30 7231 C 684.328 5.03975 -1.67876 0
M  V30 7232 C 683.367 5.42492 -2.83493 0
M  V30 7233 N 682.504 6.57206 -2.47032 0
M  V30 7234 H 687.344 2.10687 -2.10749 0
M  V30 7235 H 684.881 1.03165 -1.04859 0
M  V30 7236 H 686.839 4.11968 -0.658681 0
M  V30 7237 H 685.469 3.22756 0.0531155 0
M  V30 7238 H 684.521 2.98745 -2.3549 0
M  V30 7239 H 685.833 4.04933 -2.91257 0
M  V30 7240 H 684.987 5.89232 -1.44535 0
M  V30 7241 H 683.726 4.8135 -0.784431 0
M  V30 7242 H 682.731 4.55764 -3.07505 0
M  V30 7243 H 683.956 5.67093 -3.73607 0
M  V30 7244 H 681.902 6.36164 -1.601 0
M  V30 7245 H 681.819 6.81543 -3.27161 0
M  V30 7246 H 683.087 7.45704 -2.27038 0
M  V30 7247 N 687.317 1.12792 1.10072 0
M  V30 7248 C 688.25 0.742921 2.15768 0
M  V30 7249 C 689.228 -0.267714 1.60381 0
M  V30 7250 O 690.412 -0.160782 1.87813 0
M  V30 7251 C 687.539 0.100244 3.38552 0
M  V30 7252 C 686.585 1.07831 4.12644 0
M  V30 7253 S 687.418 2.60765 4.6772 0
M  V30 7254 C 688.574 1.97838 5.9381 0
M  V30 7255 H 688.807 1.63822 2.48092 0
M  V30 7256 H 686.34 0.947385 1.21918 0
M  V30 7257 H 688.298 -0.264175 4.09649 0
M  V30 7258 H 686.959 -0.772223 3.04459 0
M  V30 7259 H 686.152 0.576325 5.00694 0
M  V30 7260 H 685.754 1.38586 3.47376 0
M  V30 7261 H 688.046 1.32341 6.64449 0
M  V30 7262 H 688.989 2.83943 6.48677 0
M  V30 7263 H 689.397 1.43267 5.46017 0
M  V30 7264 N 688.795 -1.27931 0.920396 0
M  V30 7265 C 690.02 -1.99343 0.572478 0
M  V30 7266 C 690.445 -1.68267 -0.840696 0
M  V30 7267 O 689.803 -0.918805 -1.56294 0
M  V30 7268 C 689.851 -3.51698 0.796284 0
M  V30 7269 O 688.955 -4.12157 -0.141602 0
M  V30 7270 H 688.296 -0.626065 0.221221 0
M  V30 7271 H 690.826 -1.62921 1.23765 0
M  V30 7272 H 690.836 -4.01793 0.708984 0
M  V30 7273 H 689.511 -3.73649 1.82644 0
M  V30 7274 H 688.088 -3.729 -0.005007 0
M  V30 7275 N 690.273 -0.685099 -1.4193 0
M  V30 7276 C 691.503 -0.220052 -2.05425 0
M  V30 7277 C 691.911 1.13185 -1.51611 0
M  V30 7278 O 691.254 1.71631 -0.654875 0
M  V30 7279 C 691.316 -0.0888364 -3.5939 0
M  V30 7280 C 690.98 -1.37109 -4.35947 0
M  V30 7281 C 691.977 -2.30675 -4.65924 0
M  V30 7282 C 689.662 -1.62155 -4.75406 0
M  V30 7283 C 691.656 -3.47556 -5.34306 0
M  V30 7284 C 689.343 -2.79324 -5.43527 0
M  V30 7285 C 690.341 -3.71848 -5.72903 0
M  V30 7286 O 690.029 -4.86966 -6.39624 0
M  V30 7287 H 689.761 -0.102165 -0.668235 0
M  V30 7288 H 692.315 -0.935194 -1.82875 0
M  V30 7289 H 690.545 0.681981 -3.80639 0
M  V30 7290 H 692.234 0.337669 -4.04493 0
M  V30 7291 H 693 -2.12579 -4.3593 0
M  V30 7292 H 688.879 -0.910053 -4.51928 0
M  V30 7293 H 692.423 -4.19794 -5.57153 0
M  V30 7294 H 688.32 -2.97342 -5.72938 0
M  V30 7295 H 689.088 -4.86644 -6.58118 0
M  V30 7296 N 691.751 1.51645 -0.429126 0
M  V30 7297 C 692.683 2.25279 0.422124 0
M  V30 7298 C 693.696 1.28986 0.993299 0
M  V30 7299 O 694.885 1.54797 0.888836 0
M  V30 7300 C 691.985 2.98666 1.60162 0
M  V30 7301 C 691.158 4.2199 1.15078 0
M  V30 7302 C 690.217 4.78028 2.19946 0
M  V30 7303 O 689.243 5.40084 1.79716 0
M  V30 7304 N 690.445 4.61342 3.5234 0
M  V30 7305 H 693.21 2.98971 -0.208931 0
M  V30 7306 H 690.771 1.59838 -0.257568 0
M  V30 7307 H 692.763 3.33044 2.29922 0
M  V30 7308 H 691.333 2.28036 2.13818 0
M  V30 7309 H 690.553 3.932 0.280552 0
M  V30 7310 H 691.841 5.02037 0.826831 0
M  V30 7311 H 691.239 4.11894 3.87763 0
M  V30 7312 H 689.796 5.00104 4.18019 0
M  V30 7313 N 693.229 0.160201 1.56784 0
M  V30 7314 C 694.454 -0.497373 2.01348 0
M  V30 7315 C 694.879 -1.56757 1.03966 0
M  V30 7316 O 694.237 -1.81292 0.0174455 0
M  V30 7317 C 694.285 -1.0628 3.44582 0
M  V30 7318 O 693.389 -2.17723 3.50244 0
M  V30 7319 H 692.73 -0.120295 0.653012 0
M  V30 7320 H 695.26 0.260821 2.02931 0
M  V30 7321 H 695.27 -1.38819 3.83658 0
M  V30 7322 H 693.945 -0.279166 4.14962 0
M  V30 7323 H 692.522 -1.86313 3.2302 0
M  V30 7324 N 694.707 -1.5719 -0.113559 0
M  V30 7325 C 695.932 -1.89702 -0.838336 0
M  V30 7326 C 696.357 -0.752679 -1.72384 0
M  V30 7327 O 695.715 0.296575 -1.78858 0
M  V30 7328 C 695.763 -3.20989 -1.64312 0
M  V30 7329 O 694.867 -3.07278 -2.75053 0
M  V30 7330 H 694.208 -0.622339 -0.231496 0
M  V30 7331 H 696.738 -2.04382 -0.0943228 0
M  V30 7332 H 696.748 -3.53843 -2.03123 0
M  V30 7333 H 695.423 -4.03869 -0.993119 0
M  V30 7334 H 694 -2.85901 -2.39406 0
M  V30 7335 N 696.185 0.383891 -1.52853 0
M  V30 7336 C 697.41 1.154 -1.7233 0
M  V30 7337 C 697.835 1.82809 -0.44298 0
M  V30 7338 O 697.193 1.71026 0.601645 0
M  V30 7339 C 697.241 2.17386 -2.87708 0
M  V30 7340 O 696.345 3.24082 -2.55038 0
M  V30 7341 H 695.686 0.335709 -0.572883 0
M  V30 7342 H 698.216 0.44662 -1.99666 0
M  V30 7343 H 698.226 2.61296 -3.1335 0
M  V30 7344 H 696.901 1.6771 -3.80587 0
M  V30 7345 H 695.478 2.85273 -2.40153 0
M  V30 7346 N 697.663 1.43903 0.642637 0
M  V30 7347 C 698.891 1.4954 1.42988 0
M  V30 7348 C 699.306 0.116588 1.8844 0
M  V30 7349 O 698.663 -0.875285 1.60141 0
M  V30 7350 C 698.714 2.45031 2.65785 0
M  V30 7351 O 698.435 3.77551 2.22232 0
M  V30 7352 C 699.936 2.60017 3.59035 0
M  V30 7353 H 697.156 0.507544 0.438907 0
M  V30 7354 H 699.7 1.88752 0.786942 0
M  V30 7355 H 697.855 2.08985 3.26196 0
M  V30 7356 H 698.269 4.29001 3.01759 0
M  V30 7357 H 699.743 3.30887 4.41835 0
M  V30 7358 H 700.22 1.64861 4.07084 0
M  V30 7359 H 700.826 2.96918 3.045 0
M  V30 7360 N 699.141 -0.881989 1.30609 0
M  V30 7361 C 700.051 -2.02076 1.19174 0
M  V30 7362 C 701.067 -1.73645 0.11102 0
M  V30 7363 O 702.243 -1.98735 0.326528 0
M  V30 7364 C 699.308 -3.3515 0.887438 0
M  V30 7365 C 698.369 -3.76983 2.05383 0
M  V30 7366 C 697.602 -5.03707 1.76395 0
M  V30 7367 O 697.825 -5.66171 0.693302 0
M  V30 7368 O 696.759 -5.42019 2.61723 0
M  V30 7369 H 700.585 -2.14652 2.14845 0
M  V30 7370 H 698.17 -1.00843 1.10232 0
M  V30 7371 H 700.052 -4.14975 0.73306 0
M  V30 7372 H 698.727 -3.23676 -0.0393354 0
M  V30 7373 H 697.634 -2.97849 2.26355 0
M  V30 7374 H 698.967 -3.93066 2.96243 0
M  V30 7375 N 700.619 -1.13374 -1.09472 0
M  V30 7376 C 701.529 -0.824029 -2.19652 0
M  V30 7377 C 702.545 0.19118 -1.72947 0
M  V30 7378 O 703.721 0.0223464 -2.01388 0
M  V30 7379 C 700.786 -0.294009 -3.45451 0
M  V30 7380 C 699.847 -1.3704 -4.0684 0
M  V30 7381 C 699.08 -0.86558 -5.26634 0
M  V30 7382 O 699.303 0.29702 -5.69626 0
M  V30 7383 O 698.237 -1.63968 -5.79136 0
M  V30 7384 H 702.063 -1.74454 -2.48595 0
M  V30 7385 H 699.648 -0.911155 -1.18399 0
M  V30 7386 H 701.53 -0.00381039 -4.214 0
M  V30 7387 H 700.205 0.598921 -3.18111 0
M  V30 7388 H 699.112 -1.71391 -3.3253 0
M  V30 7389 H 700.445 -2.23746 -4.38405 0
M  V30 7390 N 702.098 1.27442 -0.927168 0
M  V30 7391 C 703.514 1.46754 -0.627329 0
M  V30 7392 C 703.714 1.83902 0.823549 0
M  V30 7393 O 702.77 1.95215 1.60148 0
M  V30 7394 C 704.083 2.56045 -1.57674 0
M  V30 7395 C 705.631 2.69906 -1.58491 0
M  V30 7396 C 706.106 3.82355 -2.52128 0
M  V30 7397 N 707.597 3.89728 -2.50332 0
M  V30 7398 C 708.332 4.76155 -3.19475 0
M  V30 7399 N 707.828 5.67073 -3.97995 0
M  V30 7400 N 709.621 4.6988 -3.08496 0
M  V30 7401 H 701.772 1.01613 -1.86517 0
M  V30 7402 H 704.035 0.507443 -0.800753 0
M  V30 7403 H 703.741 2.35542 -2.61176 0
M  V30 7404 H 703.615 3.53423 -1.31804 0
M  V30 7405 H 706.002 2.89792 -0.557208 0
M  V30 7406 H 706.083 1.73018 -1.8841 0
M  V30 7407 H 705.727 3.63224 -3.55008 0
M  V30 7408 H 705.657 4.7867 -2.19505 0
M  V30 7409 H 708.148 3.24717 -1.93306 0
M  V30 7410 H 708.461 6.2988 -4.4774 0
M  V30 7411 H 706.806 5.6687 -4.02098 0
M  V30 7412 H 709.997 3.97848 -2.46646 0
M  V30 7413 H 710.17 5.37017 -3.62652 0
M  V30 7414 N 703.576 0.692616 1.41565 0
M  V30 7415 C 704.992 0.363878 1.55397 0
M  V30 7416 C 705.192 -1.1294 1.66874 0
M  V30 7417 O 704.248 -1.91517 1.64552 0
M  V30 7418 C 705.561 1.10982 2.7947 0
M  V30 7419 C 707.109 1.09387 2.93263 0
M  V30 7420 C 707.584 1.8215 4.20221 0
M  V30 7421 N 709.075 1.79105 4.27172 0
M  V30 7422 C 709.81 2.32247 5.2426 0
M  V30 7423 N 709.306 2.93847 6.27396 0
M  V30 7424 N 711.099 2.22519 5.1618 0
M  V30 7425 H 703.25 1.66116 1.3236 0
M  V30 7426 H 705.513 0.700848 0.63837 0
M  V30 7427 H 705.219 2.1647 2.77188 0
M  V30 7428 H 705.093 0.686492 3.709 0
M  V30 7429 H 707.48 0.0472638 2.95062 0
M  V30 7430 H 707.561 1.55623 2.03015 0
M  V30 7431 H 707.205 2.86789 4.19183 0
M  V30 7432 H 707.135 1.33351 5.09436 0
M  V30 7433 H 709.626 1.34191 3.53272 0
M  V30 7434 H 709.939 3.31972 6.97864 0
M  V30 7435 H 708.284 2.97924 6.27906 0
M  V30 7436 H 711.475 1.7407 4.34531 0
M  V30 7437 H 711.648 2.64239 5.91677 0
M  V30 7438 N 705.054 -1.51416 0.437162 0
M  V30 7439 C 705.984 -2.30631 -0.364922 0
M  V30 7440 C 706.965 -1.36037 -1.02118 0
M  V30 7441 O 708.15 -1.64956 -1.02485 0
M  V30 7442 C 705.28 -3.1482 -1.46648 0
M  V30 7443 C 704.234 -4.17691 -0.933717 0
M  V30 7444 C 703.56 -4.904 -2.13101 0
M  V30 7445 C 704.86 -5.2229 0.0317201 0
M  V30 7446 H 706.554 -2.97932 0.29614 0
M  V30 7447 H 704.1 -1.4328 0.143865 0
M  V30 7448 H 706.053 -3.69017 -2.03481 0
M  V30 7449 H 704.777 -2.4534 -2.15583 0
M  V30 7450 H 703.436 -3.64545 -0.387602 0
M  V30 7451 H 703.084 -4.17423 -2.80654 0
M  V30 7452 H 702.784 -5.59962 -1.78092 0
M  V30 7453 H 704.308 -5.4742 -2.70487 0
M  V30 7454 H 705.722 -5.7156 -0.446302 0
M  V30 7455 H 704.119 -5.99378 0.29437 0
M  V30 7456 H 705.189 -4.75131 0.968447 0
M  V30 7457 N 706.532 -0.168513 -1.56696 0
M  V30 7458 C 707.48 0.779791 -2.19139 0
M  V30 7459 C 708.474 1.23957 -1.1546 0
M  V30 7460 O 709.68 1.20555 -1.33666 0
M  V30 7461 H 706.055 0.269739 -0.701958 0
M  V30 7462 H 708.026 0.229156 -2.97519 0
M  V30 7463 C 706.775 2.00003 -2.84419 0
M  V30 7464 H 706.098 1.65527 -3.63924 0
M  V30 7465 H 707.538 2.64251 -3.31583 0
M  V30 7466 C 705.997 2.82187 -1.84044 0
M  V30 7467 O 706.527 3.79247 -1.32418 0
M  V30 7468 N 704.733 2.47145 -1.52864 0
M  V30 7469 H 704.28 1.68277 -1.9504 0
M  V30 7470 H 704.238 3.02422 -0.859569 0
M  V30 7471 N 708.01 1.57248 0.105221 0
M  V30 7472 C 709.24 1.89492 0.823175 0
M  V30 7473 C 709.648 0.75934 1.73294 0
M  V30 7474 O 708.991 -0.278182 1.81581 0
M  V30 7475 C 709.053 3.16891 1.69765 0
M  V30 7476 C 708.717 4.46787 0.960769 0
M  V30 7477 C 709.714 5.19061 0.295218 0
M  V30 7478 C 707.399 4.93467 0.937854 0
M  V30 7479 C 709.393 6.36246 -0.383393 0
M  V30 7480 C 707.08 6.10566 0.255452 0
M  V30 7481 C 708.078 6.81804 -0.404003 0
M  V30 7482 O 707.766 7.96673 -1.07549 0
M  V30 7483 H 707.498 0.631512 0.24118 0
M  V30 7484 H 710.052 2.05203 0.0899655 0
M  V30 7485 H 708.282 2.973 2.47285 0
M  V30 7486 H 709.971 3.35046 2.29126 0
M  V30 7487 H 710.737 4.84044 0.304448 0
M  V30 7488 H 706.616 4.37913 1.44058 0
M  V30 7489 H 710.16 6.91787 -0.898696 0
M  V30 7490 H 706.057 6.45039 0.244032 0
M  V30 7491 H 706.825 8.12596 -0.981355 0
M  V30 7492 N 709.488 -0.375779 1.53054 0
M  V30 7493 C 710.736 -1.11727 1.68409 0
M  V30 7494 C 711.057 -1.90127 0.43323 0
M  V30 7495 O 710.327 -1.87945 -0.552595 0
M  V30 7496 H 708.907 -0.415451 0.620813 0
M  V30 7497 H 711.569 -0.424869 1.90213 0
M  V30 7498 H 710.665 -1.8128 2.54055 0
M  V30 7499 N 710.966 -1.44241 -0.634997 0
M  V30 7500 C 712.214 -1.46531 -1.39187 0
M  V30 7501 C 712.535 -0.0976441 -1.94755 0
M  V30 7502 O 711.805 0.869528 -1.75545 0
M  V30 7503 H 710.385 -0.539544 -0.516625 0
M  V30 7504 H 713.047 -1.79989 -0.747655 0
M  V30 7505 H 712.143 -2.18848 -2.22513 0
M  V30 7506 N 712.444 0.87505 -1.31075 0
M  V30 7507 C 713.391 1.98178 -1.18296 0
M  V30 7508 C 714.361 1.65952 -0.0699923 0
M  V30 7509 O 715.546 1.8926 -0.241951 0
M  V30 7510 C 712.686 3.33399 -0.891024 0
M  V30 7511 C 711.799 3.78253 -2.08684 0
M  V30 7512 C 710.934 5.02166 -1.73212 0
M  V30 7513 C 709.973 5.39455 -2.89231 0
M  V30 7514 N 709.11 6.54549 -2.53989 0
M  V30 7515 H 713.95 2.0844 -2.12971 0
M  V30 7516 H 711.487 1.02047 -1.05948 0
M  V30 7517 H 713.445 4.11246 -0.702338 0
M  V30 7518 H 712.075 3.22794 0.0188799 0
M  V30 7519 H 711.127 2.9623 -2.38646 0
M  V30 7520 H 712.439 4.01821 -2.95536 0
M  V30 7521 H 711.593 5.87666 -1.50777 0
M  V30 7522 H 710.332 4.80491 -0.83544 0
M  V30 7523 H 709.337 4.52477 -3.12321 0
M  V30 7524 H 710.562 5.63098 -3.79601 0
M  V30 7525 H 708.508 6.3443 -1.66838 0
M  V30 7526 H 708.425 6.78035 -3.34372 0
M  V30 7527 H 709.693 7.43254 -2.34934 0
M  V30 7528 N 713.922 1.13953 1.08869 0
M  V30 7529 C 715.147 0.928559 1.85452 0
M  V30 7530 C 715.572 -0.517642 1.80837 0
M  V30 7531 O 714.93 -1.36779 1.19001 0
M  V30 7532 C 714.978 1.42814 3.31114 0
M  V30 7533 O 714.082 0.617129 4.07756 0
M  V30 7534 H 713.423 0.33235 0.574839 0
M  V30 7535 H 715.953 1.5156 1.37443 0
M  V30 7536 H 715.963 1.43425 3.8196 0
M  V30 7537 H 714.638 2.48109 3.33788 0
M  V30 7538 H 713.215 0.679365 3.66659 0
M  V30 7539 N 715.4 -1.26948 0.933913 0
M  V30 7540 C 716.628 -1.98186 0.59414 0
M  V30 7541 C 717.043 -1.69614 -0.829257 0
M  V30 7542 O 716.4 -0.960213 -1.55197 0
M  V30 7543 C 716.451 -3.52123 0.818026 0
M  V30 7544 O 716.172 -3.79698 2.18543 0
M  V30 7545 C 717.673 -4.40608 0.48781 0
M  V30 7546 H 714.893 -0.632305 0.224569 0
M  V30 7547 H 717.437 -1.61646 1.25263 0
M  V30 7548 H 715.592 -3.86851 0.206246 0
M  V30 7549 H 716.006 -4.7426 2.24005 0
M  V30 7550 H 717.48 -5.47606 0.695126 0
M  V30 7551 H 717.957 -4.35394 -0.576913 0
M  V30 7552 H 718.563 -4.11411 1.078 0
M  V30 7553 N 716.879 -0.700114 -1.41195 0
M  V30 7554 C 717.811 0.00155823 -2.292 0
M  V30 7555 C 718.824 0.739736 -1.45023 0
M  V30 7556 O 720.013 0.589684 -1.68478 0
M  V30 7557 C 717.113 1.02635 -3.22985 0
M  V30 7558 C 716.286 0.356871 -4.35942 0
M  V30 7559 C 715.345 1.28491 -5.10271 0
M  V30 7560 O 714.371 0.775562 -5.63892 0
M  V30 7561 N 715.573 2.61699 -5.18164 0
M  V30 7562 H 718.338 -0.754008 -2.9006 0
M  V30 7563 H 715.899 -0.546504 -1.52397 0
M  V30 7564 H 717.891 1.64902 -3.6958 0
M  V30 7565 H 716.461 1.68341 -2.63401 0
M  V30 7566 H 715.681 -0.445753 -3.91672 0
M  V30 7567 H 716.969 -0.108469 -5.08684 0
M  V30 7568 H 716.367 3.05594 -4.76056 0
M  V30 7569 H 714.924 3.19149 -5.6832 0
M  V30 7570 N 718.357 1.51182 -0.445186 0
M  V30 7571 C 719.304 2.27939 0.362291 0
M  V30 7572 C 720.274 1.31864 1.01 0
M  V30 7573 O 721.459 1.60776 1.02741 0
M  V30 7574 C 718.599 3.13016 1.45311 0
M  V30 7575 C 717.712 4.24093 0.822757 0
M  V30 7576 C 716.847 4.96467 1.88928 0
M  V30 7577 C 715.886 5.99454 1.23778 0
M  V30 7578 N 715.023 6.65206 2.24602 0
M  V30 7579 H 719.863 2.965 -0.29862 0
M  V30 7580 H 717.4 1.46237 -0.15911 0
M  V30 7581 H 719.358 3.60673 2.09692 0
M  V30 7582 H 717.988 2.46553 2.08354 0
M  V30 7583 H 717.04 3.80341 0.0670364 0
M  V30 7584 H 718.352 4.97853 0.307184 0
M  V30 7585 H 717.506 5.47712 2.60953 0
M  V30 7586 H 716.245 4.22355 2.4386 0
M  V30 7587 H 715.25 5.47494 0.503042 0
M  V30 7588 H 716.475 6.75527 0.695694 0
M  V30 7589 H 714.421 5.93901 2.78599 0
M  V30 7590 H 714.338 7.34756 1.77958 0
M  V30 7591 H 715.606 7.21078 2.96085 0
M  V30 7592 N 719.835 0.176821 1.56605 0
M  V30 7593 C 721.112 -0.513365 1.88743 0
M  V30 7594 C 721.492 -1.80929 1.08757 0
M  V30 7595 O 720.84 -2.27765 0.183127 0
M  V30 7596 C 721.05 -0.749925 3.40848 0
M  V30 7597 C 722.398 -1.07747 4.10701 0
M  V30 7598 O 723.422 -0.838277 3.46196 0
M  V30 7599 O 722.281 -1.52901 5.24675 0
M  V30 7600 H 719.375 -0.265296 0.783292 0
M  V30 7601 H 721.921 0.215669 1.68324 0
M  V30 7602 H 720.693 0.16599 3.90948 0
M  V30 7603 H 720.316 -1.53208 3.66897 0
M  V30 7604 N 721.313 -1.57302 -0.09688 0
M  V30 7605 C 722.559 -1.86273 -0.801885 0
M  V30 7606 C 722.892 -0.765694 -1.78468 0
M  V30 7607 O 722.167 0.226495 -1.93177 0
M  V30 7608 C 722.45 -3.25876 -1.53221 0
M  V30 7609 C 722.303 -4.46205 -0.567529 0
M  V30 7610 C 723.622 -3.63352 -2.48321 0
M  V30 7611 H 720.741 -0.67752 -0.29006 0
M  V30 7612 H 723.383 -1.89887 -0.0655577 0
M  V30 7613 H 721.533 -3.22926 -2.15988 0
M  V30 7614 H 723.205 -4.6127 0.0529982 0
M  V30 7615 H 721.448 -4.33636 0.119233 0
M  V30 7616 H 722.119 -5.40608 -1.11564 0
M  V30 7617 H 724.595 -3.67234 -1.95648 0
M  V30 7618 H 723.471 -4.61968 -2.9644 0
M  V30 7619 H 723.732 -2.91941 -3.31998 0
M  V30 7620 N 722.791 0.367657 -1.53252 0
M  V30 7621 C 724.016 1.13566 -1.73544 0
M  V30 7622 C 724.441 1.82329 -0.462344 0
M  V30 7623 O 723.799 1.71655 0.583472 0
M  V30 7624 C 723.847 2.14322 -2.89997 0
M  V30 7625 O 722.951 3.21359 -2.58461 0
M  V30 7626 H 722.292 0.329614 -0.576412 0
M  V30 7627 H 724.822 0.425417 -2.00128 0
M  V30 7628 H 724.832 2.57958 -3.16104 0
M  V30 7629 H 723.507 1.63664 -3.82344 0
M  V30 7630 H 722.084 2.8271 -2.43165 0
M  V30 7631 N 724.269 1.44576 0.627338 0
M  V30 7632 C 725.201 1.47724 1.75243 0
M  V30 7633 C 726.214 0.370193 1.58535 0
M  V30 7634 O 727.403 0.636151 1.66779 0
M  V30 7635 C 724.503 1.2991 3.13012 0
M  V30 7636 C 723.676 2.5393 3.56143 0
M  V30 7637 C 722.735 2.30961 4.72804 0
M  V30 7638 O 721.761 3.04469 4.80923 0
M  V30 7639 N 722.963 1.34261 5.6476 0
M  V30 7640 H 725.728 2.44718 1.73012 0
M  V30 7641 H 723.289 1.40064 0.812022 0
M  V30 7642 H 725.281 1.12385 3.88782 0
M  V30 7643 H 723.851 0.412668 3.09864 0
M  V30 7644 H 723.071 2.86707 2.70542 0
M  V30 7645 H 724.359 3.36411 3.81713 0
M  V30 7646 H 723.757 0.735573 5.60897 0
M  V30 7647 H 722.314 1.22713 6.40144 0
M  V30 7648 N 725.747 -0.868086 1.31537 0
M  V30 7649 C 726.972 -1.65926 1.24432 0
M  V30 7650 C 727.397 -1.87169 -0.186936 0
M  V30 7651 O 726.755 -1.4148 -1.13371 0
M  V30 7652 C 726.803 -3.00347 1.9956 0
M  V30 7653 O 725.907 -3.90221 1.33422 0
M  V30 7654 H 725.248 -0.506375 0.429512 0
M  V30 7655 H 727.778 -1.0822 1.73637 0
M  V30 7656 H 727.788 -3.50269 2.09226 0
M  V30 7657 H 726.463 -2.84205 3.03645 0
M  V30 7658 H 725.04 -3.48672 1.32219 0
M  V30 7659 N 727.225 -1.14528 -1.08264 0
M  V30 7660 C 728.45 -0.938381 -1.84957 0
M  V30 7661 C 728.875 0.508044 -1.81109 0
M  V30 7662 O 728.233 1.36146 -1.19724 0
M  V30 7663 C 728.281 -1.44568 -3.30352 0
M  V30 7664 O 727.385 -0.638745 -4.07423 0
M  V30 7665 H 726.726 -0.335394 -0.573068 0
M  V30 7666 H 729.256 -1.52287 -1.36637 0
M  V30 7667 H 729.266 -1.45449 -3.81194 0
M  V30 7668 H 727.941 -2.49876 -3.32468 0
M  V30 7669 H 726.518 -0.698801 -3.66294 0
M  V30 7670 N 728.703 1.26451 -0.940633 0
M  V30 7671 C 729.952 1.93071 -0.583656 0
M  V30 7672 C 730.265 1.74618 0.881366 0
M  V30 7673 O 731.471 2.35689 1.34769 0
M  V30 7674 C 729.927 3.45927 -0.993106 0
M  V30 7675 C 729.535 3.73115 -2.4797 0
M  V30 7676 C 731.279 4.18554 -0.707998 0
M  V30 7677 C 729.186 5.19408 -2.82788 0
M  V30 7678 H 728.116 0.722824 -0.214572 0
M  V30 7679 H 730.767 1.43538 -1.1432 0
M  V30 7680 H 729.149 3.94341 -0.362099 0
M  V30 7681 H 730.323 3.35408 -3.15971 0
M  V30 7682 H 728.638 3.13719 -2.73805 0
M  V30 7683 H 731.235 5.26293 -0.94447 0
M  V30 7684 H 731.578 4.14782 0.355225 0
M  V30 7685 H 732.111 3.76003 -1.2987 0
M  V30 7686 H 728.85 5.28281 -3.88071 0
M  V30 7687 H 728.37 5.58214 -2.19449 0
M  V30 7688 H 730.049 5.87407 -2.71224 0
M  V30 7689 N 730.181 0.707592 1.40822 0
M  V30 7690 C 731.406 0.251626 2.05868 0
M  V30 7691 C 731.831 -1.09503 1.5294 0
M  V30 7692 O 731.189 -1.68806 0.661385 0
M  V30 7693 C 731.237 0.23287 3.59847 0
M  V30 7694 O 730.341 -0.788477 4.04792 0
M  V30 7695 H 729.682 0.119936 0.653078 0
M  V30 7696 H 732.212 0.96583 1.80369 0
M  V30 7697 H 732.222 0.0678204 4.07944 0
M  V30 7698 H 730.897 1.21565 3.97737 0
M  V30 7699 H 729.474 -0.591802 3.68174 0
M  V30 7700 N 731.66 -1.50943 0.453197 0
M  V30 7701 C 732.907 -2.02212 -0.107922 0
M  V30 7702 C 733.235 -1.33639 -1.41318 0
M  V30 7703 O 732.49 -0.445154 -1.9057 0
M  V30 7704 C 732.789 -3.55603 -0.357944 0
M  V30 7705 C 732.455 -4.42556 0.863427 0
M  V30 7706 C 731.117 -4.6604 1.19834 0
M  V30 7707 C 733.469 -4.93468 1.67747 0
M  V30 7708 C 730.797 -5.37681 2.34768 0
M  V30 7709 C 733.149 -5.6637 2.81793 0
M  V30 7710 C 731.813 -5.88113 3.1572 0
M  V30 7711 H 731.083 -0.739947 -0.0394916 0
M  V30 7712 H 733.73 -1.81738 0.60363 0
M  V30 7713 H 732.035 -3.74495 -1.15156 0
M  V30 7714 H 733.732 -3.92821 -0.805781 0
M  V30 7715 H 730.322 -4.24485 0.592478 0
M  V30 7716 H 734.506 -4.75194 1.43192 0
M  V30 7717 H 729.762 -5.52727 2.61348 0
M  V30 7718 H 733.936 -6.04806 3.45229 0
M  V30 7719 H 731.563 -6.43404 4.04889 0
M  V30 7720 N 733.138 -0.185124 -1.56509 0
M  V30 7721 C 734.07 0.771401 -2.15829 0
M  V30 7722 C 735.083 1.18392 -1.11747 0
M  V30 7723 O 736.272 1.12137 -1.38879 0
M  V30 7724 C 733.372 2.05169 -2.69739 0
M  V30 7725 C 732.545 1.80056 -3.98621 0
M  V30 7726 C 731.604 2.92435 -4.37456 0
M  V30 7727 O 730.63 2.62473 -5.05071 0
M  V30 7728 N 731.832 4.20554 -4.00143 0
M  V30 7729 H 734.597 0.264184 -2.98533 0
M  V30 7730 H 732.158 -0.00281069 -1.619 0
M  V30 7731 H 734.15 2.7947 -2.92709 0
M  V30 7732 H 732.72 2.47041 -1.91545 0
M  V30 7733 H 731.94 0.895862 -3.83885 0
M  V30 7734 H 733.228 1.60662 -4.82768 0
M  V30 7735 H 732.626 4.47753 -3.45736 0
M  V30 7736 H 731.183 4.91514 -4.28085 0
M  V30 7737 N 734.616 1.57351 0.0885366 0
M  V30 7738 C 735.865 1.85604 0.789556 0
M  V30 7739 C 736.178 0.775352 1.79576 0
M  V30 7740 O 737.384 0.945206 2.54515 0
M  V30 7741 C 735.84 3.29175 1.45506 0
M  V30 7742 C 735.448 4.45331 0.488278 0
M  V30 7743 C 737.192 3.66646 2.13942 0
M  V30 7744 C 735.099 5.79937 1.15874 0
M  V30 7745 H 734.029 0.692346 0.298619 0
M  V30 7746 H 736.68 1.83451 0.0425821 0
M  V30 7747 H 735.062 3.25889 2.24972 0
M  V30 7748 H 736.236 4.59977 -0.275359 0
M  V30 7749 H 734.551 4.16301 -0.0907363 0
M  V30 7750 H 737.148 4.64498 2.6485 0
M  V30 7751 H 737.491 2.956 2.93132 0
M  V30 7752 H 738.024 3.71848 1.41328 0
M  V30 7753 H 734.763 6.54232 0.407508 0
M  V30 7754 H 734.283 5.69123 1.89364 0
M  V30 7755 H 735.962 6.24718 1.68336 0
M  V30 7756 N 736.094 -0.359525 1.53444 0
M  V30 7757 C 737.004 -1.46445 1.83278 0
M  V30 7758 C 738.02 -1.5833 0.721629 0
M  V30 7759 O 739.196 -1.7411 1.01231 0
M  V30 7760 C 736.261 -2.81638 2.02191 0
M  V30 7761 C 735.322 -2.7923 3.26082 0
M  V30 7762 C 734.555 -4.07974 3.44082 0
M  V30 7763 O 734.778 -5.04447 2.66251 0
M  V30 7764 O 733.712 -4.13417 4.37458 0
M  V30 7765 H 737.538 -1.24156 2.77162 0
M  V30 7766 H 735.123 -0.550201 1.389 0
M  V30 7767 H 737.005 -3.61732 2.16167 0
M  V30 7768 H 735.68 -3.03892 1.11496 0
M  V30 7769 H 734.587 -1.97813 3.17523 0
M  V30 7770 H 735.92 -2.6193 4.16718 0
M  V30 7771 N 737.572 -1.44907 -0.619662 0
M  V30 7772 C 738.519 -1.52654 -1.73105 0
M  V30 7773 C 739.489 -0.373334 -1.6185 0
M  V30 7774 O 740.674 -0.585143 -1.81606 0
M  V30 7775 C 737.814 -1.48769 -3.11387 0
M  V30 7776 C 736.927 -2.74551 -3.33535 0
M  V30 7777 C 736.062 -2.62421 -4.61854 0
M  V30 7778 C 735.101 -3.83312 -4.77219 0
M  V30 7779 N 734.238 -3.69789 -5.96826 0
M  V30 7780 H 739.078 -2.47605 -1.65819 0
M  V30 7781 H 736.615 -1.22875 -0.808719 0
M  V30 7782 H 738.573 -1.44507 -3.91374 0
M  V30 7783 H 737.203 -0.573783 -3.1766 0
M  V30 7784 H 736.255 -2.88953 -2.47408 0
M  V30 7785 H 737.567 -3.64253 -3.40765 0
M  V30 7786 H 736.721 -2.56056 -5.50019 0
M  V30 7787 H 735.46 -1.70298 -4.57001 0
M  V30 7788 H 734.465 -3.90049 -3.87481 0
M  V30 7789 H 735.69 -4.76486 -4.83878 0
M  V30 7790 H 733.636 -2.80426 -5.93041 0
M  V30 7791 H 733.553 -4.53116 -6.05163 0
M  V30 7792 H 734.821 -3.67335 -6.87521 0
M  V30 7793 N 739.05 0.861098 -1.31996 0
M  V30 7794 C 739.98 1.98482 -1.22993 0
M  V30 7795 C 740.961 1.6971 -0.115168 0
M  V30 7796 O 742.146 1.91849 -0.30126 0
M  V30 7797 C 739.276 3.34179 -0.945615 0
M  V30 7798 C 738.23 3.77284 -2.02091 0
M  V30 7799 C 737.556 5.1054 -1.58912 0
M  V30 7800 C 738.856 3.93439 -3.43515 0
M  V30 7801 H 740.55 2.06271 -2.17008 0
M  V30 7802 H 738.096 0.991043 -1.04472 0
M  V30 7803 H 740.049 4.12338 -0.869206 0
M  V30 7804 H 738.773 3.26586 0.0301849 0
M  V30 7805 H 737.432 3.01371 -2.08737 0
M  V30 7806 H 737.08 4.99397 -0.600942 0
M  V30 7807 H 736.78 5.40352 -2.30854 0
M  V30 7808 H 738.304 5.91199 -1.52696 0
M  V30 7809 H 739.718 4.6197 -3.39495 0
M  V30 7810 H 738.115 4.34661 -4.13751 0
M  V30 7811 H 739.185 2.96548 -3.8365 0
M  V30 7812 N 740.528 1.15101 1.07655 0
M  V30 7813 C 741.774 0.925343 1.80458 0
M  V30 7814 C 742.107 -0.546354 1.86356 0
M  V30 7815 O 741.382 -1.40496 1.34503 0
M  V30 7816 C 741.665 1.53646 3.25676 0
M  V30 7817 C 741.518 3.07854 3.27942 0
M  V30 7818 C 742.837 1.21968 4.22861 0
M  V30 7819 H 739.956 0.337592 0.655134 0
M  V30 7820 H 742.598 1.42217 1.25993 0
M  V30 7821 H 740.748 1.11395 3.72187 0
M  V30 7822 H 742.42 3.58989 2.89697 0
M  V30 7823 H 740.663 3.41904 2.66991 0
M  V30 7824 H 741.334 3.45725 4.30324 0
M  V30 7825 H 743.81 1.5851 3.84726 0
M  V30 7826 H 742.686 1.67349 5.22767 0
M  V30 7827 H 742.947 0.136207 4.4189 0
M  V30 7828 N 742.006 -1.2595 0.947325 0
M  V30 7829 C 742.916 -2.29883 0.468079 0
M  V30 7830 C 743.932 -1.67783 -0.460975 0
M  V30 7831 O 745.108 -1.98526 -0.339006 0
M  V30 7832 C 742.173 -3.45773 -0.253315 0
M  V30 7833 C 741.234 -4.23337 0.713054 0
M  V30 7834 C 740.467 -5.33694 0.025993 0
M  V30 7835 O 740.69 -5.57853 -1.18978 0
M  V30 7836 O 739.624 -5.97724 0.70782 0
M  V30 7837 H 743.45 -2.72952 1.33156 0
M  V30 7838 H 741.035 -1.31263 0.713468 0
M  V30 7839 H 742.917 -4.16209 -0.659423 0
M  V30 7840 H 741.592 -3.04721 -1.09209 0
M  V30 7841 H 740.499 -3.55359 1.16923 0
M  V30 7842 H 741.832 -4.68154 1.51963 0
M  V30 7843 N 743.484 -0.715051 -1.40445 0
M  V30 7844 C 744.732 -0.253826 -2.005 0
M  V30 7845 C 745.053 1.15681 -1.5698 0
M  V30 7846 O 744.323 1.78414 -0.809027 0
M  V30 7847 H 742.903 -0.0908537 -0.741454 0
M  V30 7848 H 745.565 -0.920561 -1.7179 0
M  V30 7849 H 744.661 -0.286499 -3.10782 0
M  V30 7850 N 744.962 1.50701 -0.461195 0
M  V30 7851 C 745.909 2.2831 0.338094 0
M  V30 7852 C 746.879 1.32928 0.995957 0
M  V30 7853 O 748.064 1.61857 1.0103 0
M  V30 7854 C 745.204 3.14539 1.41983 0
M  V30 7855 C 744.317 4.24942 0.77773 0
M  V30 7856 C 743.452 4.98443 1.83652 0
M  V30 7857 C 742.491 6.00733 1.17413 0
M  V30 7858 N 741.628 6.6755 2.17533 0
M  V30 7859 H 746.468 2.96167 -0.330051 0
M  V30 7860 H 744.005 1.4606 -0.174611 0
M  V30 7861 H 745.963 3.62877 2.05855 0
M  V30 7862 H 744.593 2.48749 2.05727 0
M  V30 7863 H 743.645 3.80391 0.0266924 0
M  V30 7864 H 744.957 4.98151 0.254362 0
M  V30 7865 H 744.111 5.50449 2.55129 0
M  V30 7866 H 742.85 4.24917 2.39367 0
M  V30 7867 H 741.855 5.47997 0.444944 0
M  V30 7868 H 743.08 6.76227 0.624006 0
M  V30 7869 H 741.026 5.96823 2.72284 0
M  V30 7870 H 740.943 7.36603 1.70154 0
M  V30 7871 H 742.211 7.24178 2.88421 0
M  V30 7872 N 746.441 0.193421 1.56409 0
M  V30 7873 C 747.666 -0.454552 2.02358 0
M  V30 7874 C 748.091 -1.54516 1.07268 0
M  V30 7875 O 747.449 -1.81214 0.0558962 0
M  V30 7876 C 747.497 -0.989469 3.46759 0
M  V30 7877 O 746.601 -2.10244 3.54783 0
M  V30 7878 H 745.942 -0.106417 0.655417 0
M  V30 7879 H 748.472 0.303807 2.02332 0
M  V30 7880 H 748.482 -1.30649 3.86516 0
M  V30 7881 H 747.157 -0.191083 4.15461 0
M  V30 7882 H 745.734 -1.79419 3.26899 0
M  V30 7883 N 747.919 -1.57396 -0.0801906 0
M  V30 7884 C 748.851 -1.9982 -1.12271 0
M  V30 7885 C 749.864 -0.902902 -1.35468 0
M  V30 7886 O 751.053 -1.18088 -1.33856 0
M  V30 7887 C 748.153 -2.31476 -2.47532 0
M  V30 7888 C 747.326 -3.62745 -2.44407 0
M  V30 7889 C 746.385 -3.82168 -3.6171 0
M  V30 7890 O 745.411 -4.53852 -3.43522 0
M  V30 7891 N 746.613 -3.2388 -4.81749 0
M  V30 7892 H 749.378 -2.89864 -0.761501 0
M  V30 7893 H 746.939 -1.5965 -0.268965 0
M  V30 7894 H 748.931 -2.4165 -3.24634 0
M  V30 7895 H 747.501 -1.47364 -2.75686 0
M  V30 7896 H 746.721 -3.63403 -1.52747 0
M  V30 7897 H 748.009 -4.48954 -2.39412 0
M  V30 7898 H 747.407 -2.6568 -4.9943 0
M  V30 7899 H 745.964 -3.39515 -5.56392 0
M  V30 7900 N 749.397 0.351382 -1.53633 0
M  V30 7901 C 750.646 1.08988 -1.69719 0
M  V30 7902 C 750.959 1.90043 -0.462948 0
M  V30 7903 O 752.165 2.66769 -0.504613 0
M  V30 7904 C 750.621 1.98691 -3.00083 0
M  V30 7905 C 750.229 1.22881 -4.30818 0
M  V30 7906 C 751.973 2.72446 -3.25536 0
M  V30 7907 C 749.88 2.11568 -5.52262 0
M  V30 7908 H 748.81 0.410588 -0.632403 0
M  V30 7909 H 751.461 0.349886 -1.80133 0
M  V30 7910 H 749.843 2.76478 -2.83506 0
M  V30 7911 H 751.017 0.500582 -4.58073 0
M  V30 7912 H 749.332 0.60928 -4.11918 0
M  V30 7913 H 751.929 3.39055 -4.13456 0
M  V30 7914 H 752.272 3.38588 -2.42206 0
M  V30 7915 H 752.805 2.01735 -3.42852 0
M  V30 7916 H 749.544 1.4998 -6.38111 0
M  V30 7917 H 749.064 2.82201 -5.29266 0
M  V30 7918 H 750.743 2.70802 -5.87601 0
M  V30 7919 N 750.875 1.45233 0.611969 0
M  V30 7920 C 751.807 1.49575 1.73666 0
M  V30 7921 C 752.82 0.386987 1.58134 0
M  V30 7922 O 754.009 0.653804 1.66095 0
M  V30 7923 C 751.109 1.33223 3.11617 0
M  V30 7924 C 750.282 2.57694 3.5343 0
M  V30 7925 C 749.341 2.35962 4.70328 0
M  V30 7926 O 748.367 3.09553 4.77667 0
M  V30 7927 N 749.569 1.40243 5.63305 0
M  V30 7928 H 752.334 2.46539 1.70407 0
M  V30 7929 H 749.895 1.40917 0.79712 0
M  V30 7930 H 751.887 1.16502 3.87569 0
M  V30 7931 H 750.457 0.44551 3.09409 0
M  V30 7932 H 749.677 2.8956 2.67486 0
M  V30 7933 H 750.965 3.40441 3.78124 0
M  V30 7934 H 750.363 0.795023 5.60086 0
M  V30 7935 H 748.92 1.29496 6.38807 0
M  V30 7936 N 752.353 -0.854086 1.3245 0
M  V30 7937 C 753.581 -1.64074 1.26045 0
M  V30 7938 C 753.996 -1.8802 -0.171456 0
M  V30 7939 O 753.353 -1.4496 -1.10873 0
M  V30 7940 C 753.404 -2.9997 2.01743 0
M  V30 7941 O 753.125 -2.77084 3.39346 0
M  V30 7942 C 754.626 -3.94414 2.02368 0
M  V30 7943 H 751.846 -0.511015 0.434862 0
M  V30 7944 H 754.39 -1.06494 1.74583 0
M  V30 7945 H 752.545 -3.54193 1.56926 0
M  V30 7946 H 752.959 -3.63514 3.78098 0
M  V30 7947 H 754.433 -4.87032 2.59815 0
M  V30 7948 H 754.91 -4.27427 1.01009 0
M  V30 7949 H 755.516 -3.46127 2.47135 0
M  V30 7950 N 753.831 -1.1567 -1.07043 0
M  V30 7951 C 755.242 -0.942408 -1.61169 0
M  V30 7952 C 755.593 0.515537 -1.89306 0
M  V30 7953 O 754.718 1.38726 -1.66084 0
M  V30 7954 C 755.313 -1.70431 -2.92812 0
M  V30 7955 C 753.872 -1.53521 -3.43669 0
M  V30 7956 C 753.019 -1.7179 -2.17678 0
M  V30 7957 H 755.97 -1.3065 -0.9009 0
M  V30 7958 H 755.991 -1.17566 -3.61882 0
M  V30 7959 H 755.503 -2.76538 -2.72302 0
M  V30 7960 H 753.604 -0.498224 -3.69254 0
M  V30 7961 H 753.717 -2.31422 -4.19501 0
M  V30 7962 H 752.081 -1.14468 -2.27529 0
M  V30 7963 H 752.864 -2.79269 -1.99659 0
M  V30 7964 N 755.309 1.25446 -0.953992 0
M  V30 7965 C 756.257 2.27909 -0.46478 0
M  V30 7966 C 757.251 1.62904 0.464607 0
M  V30 7967 O 758.457 1.76733 0.341407 0
M  V30 7968 H 754.832 0.74036 -0.131798 0
M  V30 7969 H 756.803 2.66559 -1.34122 0
M  V30 7970 C 755.552 3.46853 0.242589 0
M  V30 7971 H 754.875 3.97105 -0.463418 0
M  V30 7972 H 756.315 4.20432 0.548919 0
M  V30 7973 C 754.774 3.03386 1.46487 0
M  V30 7974 O 755.304 3.09342 2.56262 0
M  V30 7975 N 753.51 2.58584 1.32599 0
M  V30 7976 H 753.057 2.53938 0.432834 0
M  V30 7977 H 753.015 2.29866 2.14497 0
M  V30 7978 N 756.787 0.722489 1.40064 0
M  V30 7979 C 758.198 0.336507 1.83642 0
M  V30 7980 C 758.549 -1.13002 1.6039 0
M  V30 7981 O 757.674 -1.87036 1.08842 0
M  V30 7982 C 758.269 0.603985 3.33373 0
M  V30 7983 C 756.828 0.271637 3.75419 0
M  V30 7984 C 755.975 0.872898 2.63203 0
M  V30 7985 H 758.926 0.921108 1.29233 0
M  V30 7986 H 758.947 -0.128471 3.80283 0
M  V30 7987 H 758.459 1.67141 3.50265 0
M  V30 7988 H 756.56 -0.790455 3.64119 0
M  V30 7989 H 756.673 0.745457 4.73265 0
M  V30 7990 H 755.037 0.300431 2.52922 0
M  V30 7991 H 755.82 1.94473 2.82905 0
M  V30 7992 N 758.265 -1.50454 0.469181 0
M  V30 7993 C 759.213 -2.30101 -0.340033 0
M  V30 7994 C 760.207 -1.37306 -0.992135 0
M  V30 7995 O 761.413 -1.54506 -0.923458 0
M  V30 7996 H 757.788 -0.740941 -0.128495 0
M  V30 7997 H 759.759 -2.96315 0.352144 0
M  V30 7998 C 758.508 -3.17804 -1.41052 0
M  V30 7999 H 757.831 -3.89115 -0.918124 0
M  V30 8000 H 759.271 -3.76533 -1.94934 0
M  V30 8001 C 757.73 -2.35272 -2.4114 0
M  V30 8002 O 758.26 -2.03448 -3.4637 0
M  V30 8003 N 756.466 -1.97889 -2.1281 0
M  V30 8004 H 756.013 -2.2397 -1.27261 0
M  V30 8005 H 755.971 -1.42971 -2.80012 0
M  V30 8006 N 759.743 -0.201713 -1.56304 0
M  V30 8007 C 760.675 0.748466 -2.16635 0
M  V30 8008 C 761.688 1.172 -1.12996 0
M  V30 8009 O 762.877 1.10658 -1.40061 0
M  V30 8010 C 759.977 2.02296 -2.719 0
M  V30 8011 C 759.15 1.75818 -4.00508 0
M  V30 8012 C 758.209 2.87779 -4.40533 0
M  V30 8013 O 757.235 2.57101 -5.07826 0
M  V30 8014 N 758.437 4.16287 -4.04581 0
M  V30 8015 H 761.202 0.232505 -2.98797 0
M  V30 8016 H 758.763 -0.0199822 -1.61888 0
M  V30 8017 H 760.755 2.7635 -2.95657 0
M  V30 8018 H 759.325 2.44996 -1.94154 0
M  V30 8019 H 758.545 0.855095 -3.84814 0
M  V30 8020 H 759.833 1.55532 -4.84445 0
M  V30 8021 H 759.231 4.44061 -3.50466 0
M  V30 8022 H 757.788 4.86946 -4.33274 0
M  V30 8023 N 761.222 1.57436 0.0718424 0
M  V30 8024 C 762.499 1.78312 0.804006 0
M  V30 8025 C 762.879 0.789273 1.9579 0
M  V30 8026 O 762.227 -0.177605 2.27809 0
M  V30 8027 C 762.437 3.24798 1.277 0
M  V30 8028 C 763.785 3.88627 1.71039 0
M  V30 8029 O 764.809 3.28689 1.37266 0
M  V30 8030 O 763.668 4.94073 2.33567 0
M  V30 8031 H 760.762 0.73178 0.385262 0
M  V30 8032 H 763.308 1.69621 0.0519219 0
M  V30 8033 H 762.08 3.88688 0.45134 0
M  V30 8034 H 761.703 3.38213 2.0904 0
M  V30 8035 N 762.7 -0.34323 1.53817 0
M  V30 8036 C 763.632 -1.44216 1.78141 0
M  V30 8037 C 764.645 -1.48701 0.662721 0
M  V30 8038 O 765.834 -1.51778 0.939458 0
M  V30 8039 C 762.934 -2.82872 1.86646 0
M  V30 8040 C 762.107 -3.01824 3.16577 0
M  V30 8041 C 761.166 -4.20723 3.16036 0
M  V30 8042 O 760.192 -4.14824 3.89756 0
M  V30 8043 N 761.394 -5.29276 2.38427 0
M  V30 8044 H 764.159 -1.23721 2.72971 0
M  V30 8045 H 761.72 -0.53311 1.52871 0
M  V30 8046 H 763.712 -3.60588 1.83735 0
M  V30 8047 H 762.282 -2.96509 0.990014 0
M  V30 8048 H 761.502 -2.11575 3.3261 0
M  V30 8049 H 762.79 -3.11369 4.02402 0
M  V30 8050 H 762.188 -5.36938 1.78085 0
M  V30 8051 H 760.745 -6.05484 2.41313 0
M  V30 8052 N 764.178 -1.45556 -0.604258 0
M  V30 8053 C 765.424 -1.50958 -1.3632 0
M  V30 8054 C 765.779 -0.15051 -1.9181 0
M  V30 8055 O 765.072 0.838035 -1.72301 0
M  V30 8056 C 765.266 -2.52697 -2.52743 0
M  V30 8057 C 765.095 -3.98364 -2.08654 0
M  V30 8058 C 763.865 -4.66295 -1.94671 0
M  V30 8059 C 766.063 -4.86801 -1.6592 0
M  V30 8060 N 764.045 -5.96669 -1.44428 0
M  V30 8061 C 765.416 -6.06829 -1.27115 0
M  V30 8062 C 767.471 -4.73634 -1.53542 0
M  V30 8063 C 766.174 -7.15149 -0.771676 0
M  V30 8064 C 768.2 -5.82005 -1.04998 0
M  V30 8065 C 767.562 -7.01191 -0.671599 0
M  V30 8066 H 763.661 -0.607329 -0.492621 0
M  V30 8067 H 766.245 -1.82048 -0.69041 0
M  V30 8068 H 764.416 -2.23554 -3.17614 0
M  V30 8069 H 766.148 -2.48227 -3.19633 0
M  V30 8070 H 762.903 -4.21496 -2.15959 0
M  V30 8071 H 763.327 -6.66003 -1.21528 0
M  V30 8072 H 767.969 -3.81898 -1.81421 0
M  V30 8073 H 765.687 -8.06671 -0.480442 0
M  V30 8074 H 769.273 -5.73851 -0.958423 0
M  V30 8075 H 768.153 -7.83619 -0.301752 0
M  V30 8076 N 765.656 0.84705 -1.32902 0
M  V30 8077 C 766.881 1.63925 -1.27056 0
M  V30 8078 C 767.306 1.87443 0.157136 0
M  V30 8079 O 766.664 1.43266 1.11106 0
M  V30 8080 C 766.712 2.97134 -2.04313 0
M  V30 8081 O 765.816 3.88049 -1.39614 0
M  V30 8082 H 765.157 0.499477 -0.437514 0
M  V30 8083 H 767.687 1.05443 -1.75336 0
M  V30 8084 H 767.697 3.46896 -2.14772 0
M  V30 8085 H 766.372 2.79339 -3.08128 0
M  V30 8086 H 764.949 3.46525 -1.3775 0
M  V30 8087 N 767.134 1.16236 1.06428 0
M  V30 8088 C 768.382 0.941171 1.78847 0
M  V30 8089 C 768.703 -0.53248 1.87589 0
M  V30 8090 O 767.973 -1.38686 1.38358 0
M  V30 8091 H 766.553 0.345228 0.66244 0
M  V30 8092 H 769.215 1.46479 1.28569 0
M  V30 8093 H 768.311 1.35871 2.80972 0
M  V30 8094 N 768.612 -1.24939 0.960631 0
M  V30 8095 C 769.544 -2.24879 0.442937 0
M  V30 8096 C 770.557 -1.56615 -0.444464 0
M  V30 8097 O 771.746 -1.76715 -0.251776 0
M  V30 8098 C 768.846 -3.36757 -0.380537 0
M  V30 8099 C 768.019 -4.34587 0.495283 0
M  V30 8100 C 767.078 -5.25502 -0.270995 0
M  V30 8101 O 766.104 -5.68227 0.332661 0
M  V30 8102 N 767.306 -5.59077 -1.56249 0
M  V30 8103 H 770.071 -2.69932 1.30218 0
M  V30 8104 H 767.632 -1.38907 0.83166 0
M  V30 8105 H 769.624 -3.94542 -0.90103 0
M  V30 8106 H 768.194 -2.91045 -1.14067 0
M  V30 8107 H 767.414 -3.75593 1.19682 0
M  V30 8108 H 768.702 -4.96925 1.09285 0
M  V30 8109 H 768.1 -5.2628 -2.07476 0
M  V30 8110 H 766.657 -6.19421 -2.02882 0
M  V30 8111 N 770.09 -0.729906 -1.39679 0
M  V30 8112 C 771.038 -0.0756589 -2.32477 0
M  V30 8113 C 772.032 0.731438 -1.52795 0
M  V30 8114 O 773.238 0.633195 -1.68495 0
M  V30 8115 H 769.613 -0.00566492 -0.751979 0
M  V30 8116 H 771.584 -0.874797 -2.85289 0
M  V30 8117 C 770.333 0.821313 -3.37861 0
M  V30 8118 H 769.656 0.209666 -3.9925 0
M  V30 8119 H 771.096 1.24679 -4.05254 0
M  V30 8120 C 769.555 1.9533 -2.74495 0
M  V30 8121 O 770.085 3.04548 -2.61942 0
M  V30 8122 N 768.291 1.74119 -2.3266 0
M  V30 8123 H 767.838 0.852908 -2.4307 0
M  V30 8124 H 767.796 2.50036 -1.90603 0
M  V30 8125 N 771.568 1.50203 -0.477153 0
M  V30 8126 C 772.531 2.27194 0.302599 0
M  V30 8127 C 773.531 1.32221 0.915112 0
M  V30 8128 O 774.721 1.55593 0.783348 0
M  V30 8129 C 771.853 3.0938 1.43167 0
M  V30 8130 H 773.046 2.97575 -0.372678 0
M  V30 8131 H 770.599 1.54578 -0.231392 0
M  V30 8132 H 771.334 2.43509 2.14182 0
M  V30 8133 H 771.119 3.79181 0.998197 0
M  V30 8134 H 772.609 3.67592 1.98157 0
M  V30 8135 N 773.046 0.209999 1.56195 0
M  V30 8136 C 773.993 -0.704854 2.19774 0
M  V30 8137 C 774.963 -1.19886 1.14964 0
M  V30 8138 O 776.148 -1.26005 1.43274 0
M  V30 8139 C 773.288 -1.91241 2.87265 0
M  V30 8140 C 772.401 -1.45838 4.06639 0
M  V30 8141 C 771.536 -2.6226 4.61945 0
M  V30 8142 C 770.575 -2.13537 5.73645 0
M  V30 8143 N 769.712 -3.2319 6.23292 0
M  V30 8144 H 774.552 -0.155944 2.97592 0
M  V30 8145 H 772.089 -0.0652235 1.46955 0
M  V30 8146 H 774.047 -2.62123 3.24573 0
M  V30 8147 H 772.677 -2.43439 2.11985 0
M  V30 8148 H 771.729 -0.644897 3.74894 0
M  V30 8149 H 773.041 -1.06103 4.87384 0
M  V30 8150 H 772.195 -3.41243 5.01636 0
M  V30 8151 H 770.934 -3.05278 3.80338 0
M  V30 8152 H 769.939 -1.33013 5.33468 0
M  V30 8153 H 771.164 -1.71533 6.57079 0
M  V30 8154 H 769.11 -3.65711 5.44602 0
M  V30 8155 H 769.027 -2.8767 6.99129 0
M  V30 8156 H 770.295 -4.02342 6.67639 0
M  V30 8157 N 774.524 -1.57472 -0.0634922 0
M  V30 8158 C 775.772 -1.87283 -0.759563 0
M  V30 8159 C 776.093 -0.803135 -1.77693 0
M  V30 8160 O 775.363 0.167293 -1.95184 0
M  V30 8161 H 773.943 -0.691106 -0.283516 0
M  V30 8162 H 776.605 -1.94864 -0.0376091 0
M  V30 8163 H 775.701 -2.85064 -1.27062 0
M  V30 8164 N 776.003 0.335068 -1.53997 0
M  V30 8165 C 776.95 1.41187 -1.82579 0
M  V30 8166 C 777.92 1.51897 -0.672061 0
M  V30 8167 O 779.105 1.673 -0.917346 0
M  V30 8168 C 776.245 2.77717 -2.0486 0
M  V30 8169 C 775.358 2.7573 -3.32561 0
M  V30 8170 C 774.493 4.04032 -3.44864 0
M  V30 8171 C 773.532 3.96308 -4.66483 0
M  V30 8172 N 772.669 5.16317 -4.75774 0
M  V30 8173 H 777.509 1.16113 -2.74448 0
M  V30 8174 H 775.046 0.562305 -1.35928 0
M  V30 8175 H 777.004 3.57071 -2.15768 0
M  V30 8176 H 775.634 3.01124 -1.16294 0
M  V30 8177 H 774.686 1.88432 -3.3045 0
M  V30 8178 H 775.998 2.65902 -4.22016 0
M  V30 8179 H 775.152 4.91814 -3.55251 0
M  V30 8180 H 773.891 4.16652 -2.53481 0
M  V30 8181 H 772.896 3.06911 -4.56164 0
M  V30 8182 H 774.121 3.85263 -5.5924 0
M  V30 8183 H 772.067 5.29464 -3.87303 0
M  V30 8184 H 771.984 5.08779 -5.59178 0
M  V30 8185 H 773.252 6.05846 -4.9048 0
M  V30 8186 N 777.481 1.45874 0.596531 0
M  V30 8187 C 778.706 1.54247 1.38646 0
M  V30 8188 C 779.131 0.179571 1.87241 0
M  V30 8189 O 778.489 -0.837831 1.6078 0
M  V30 8190 C 778.537 2.54015 2.55946 0
M  V30 8191 O 777.641 2.06561 3.5694 0
M  V30 8192 H 776.982 0.519555 0.413471 0
M  V30 8193 H 779.512 1.91327 0.724936 0
M  V30 8194 H 779.522 2.73179 3.03047 0
M  V30 8195 H 778.197 3.52994 2.19928 0
M  V30 8196 H 776.774 1.97324 3.16414 0
M  V30 8197 N 778.959 -0.83999 1.33349 0
M  V30 8198 C 780.207 -1.59202 1.24496 0
M  V30 8199 C 780.528 -1.94077 -0.189499 0
M  V30 8200 O 779.798 -1.60868 -1.11796 0
M  V30 8201 H 778.378 -0.590276 0.457802 0
M  V30 8202 H 781.04 -1.00394 1.67054 0
M  V30 8203 H 780.136 -2.52247 1.83788 0
M  V30 8204 N 780.437 -1.16799 -1.0581 0
M  V30 8205 C 781.369 -0.836774 -2.13379 0
M  V30 8206 C 782.382 0.158116 -1.6203 0
M  V30 8207 O 783.571 -0.0673211 -1.78373 0
M  V30 8208 C 780.671 -0.225959 -3.38146 0
M  V30 8209 C 779.844 -1.26217 -4.18794 0
M  V30 8210 C 778.903 -0.670257 -5.21914 0
M  V30 8211 O 777.929 -1.34042 -5.53192 0
M  V30 8212 N 779.131 0.540683 -5.77977 0
M  V30 8213 H 781.896 -1.76257 -2.42391 0
M  V30 8214 H 779.457 -1.06599 -1.21853 0
M  V30 8215 H 781.449 0.18317 -4.04285 0
M  V30 8216 H 780.019 0.603494 -3.06719 0
M  V30 8217 H 779.239 -1.84729 -3.48237 0
M  V30 8218 H 780.527 -1.9613 -4.69479 0
M  V30 8219 H 779.925 1.10322 -5.54838 0
M  V30 8220 H 778.482 0.891958 -6.45668 0
M  V30 8221 N 781.915 1.24427 -0.967243 0
M  V30 8222 C 783.14 1.9708 -0.646069 0
M  V30 8223 C 783.565 1.71272 0.777665 0
M  V30 8224 O 782.923 0.976179 1.52776 0
M  V30 8225 C 782.971 3.48501 -0.926266 0
M  V30 8226 O 782.075 4.12398 -0.0114653 0
M  V30 8227 H 781.416 0.617423 -0.244304 0
M  V30 8228 H 783.946 1.58215 -1.29727 0
M  V30 8229 H 783.956 3.98885 -0.857619 0
M  V30 8230 H 782.631 3.66613 -1.96386 0
M  V30 8231 H 781.208 3.72661 -0.133396 0
M  V30 8232 N 783.393 0.737304 1.3929 0
M  V30 8233 C 784.356 0.10731 2.28949 0
M  V30 8234 C 785.356 -0.664716 1.46418 0
M  V30 8235 O 786.546 -0.493392 1.67067 0
M  V30 8236 C 783.678 -0.857145 3.29948 0
M  V30 8237 H 784.871 0.89725 2.86163 0
M  V30 8238 H 782.424 0.503279 1.47976 0
M  V30 8239 H 783.159 -1.67336 2.77794 0
M  V30 8240 H 782.944 -0.306167 3.90903 0
M  V30 8241 H 784.434 -1.29444 3.97031 0
M  V30 8242 N 784.871 -1.49948 0.485112 0
M  V30 8243 C 786.148 -1.95186 -0.12726 0
M  V30 8244 C 786.528 -1.42605 -1.5565 0
M  V30 8245 O 785.876 -0.632986 -2.19558 0
M  V30 8246 C 786.086 -3.48955 -0.0562117 0
M  V30 8247 C 787.434 -4.23932 -0.238106 0
M  V30 8248 O 788.458 -3.55955 -0.132145 0
M  V30 8249 O 787.317 -5.44614 -0.453658 0
M  V30 8250 H 784.411 -0.820433 -0.104014 0
M  V30 8251 H 786.957 -1.60659 0.546517 0
M  V30 8252 H 785.729 -3.79814 0.941122 0
M  V30 8253 H 785.352 -3.90056 -0.770834 0
M  V30 8254 N 786.349 -0.21828 -1.56081 0
M  V30 8255 C 787.574 0.422302 -2.03055 0
M  V30 8256 C 787.999 1.5279 -1.09713 0
M  V30 8257 O 787.357 1.81102 -0.0847187 0
M  V30 8258 C 787.405 0.934177 -3.48289 0
M  V30 8259 O 786.509 2.04574 -3.58083 0
M  V30 8260 H 785.85 0.0959764 -0.657027 0
M  V30 8261 H 788.38 -0.335958 -2.01823 0
M  V30 8262 H 788.39 1.24484 -3.88546 0
M  V30 8263 H 787.065 0.124963 -4.15712 0
M  V30 8264 H 785.642 1.74196 -3.29712 0
M  V30 8265 N 787.827 1.57504 0.0551401 0
M  V30 8266 C 788.774 2.04825 1.06373 0
M  V30 8267 C 789.744 0.932108 1.37481 0
M  V30 8268 O 790.929 1.20093 1.48265 0
M  V30 8269 C 788.069 2.51091 2.36743 0
M  V30 8270 C 787.182 3.76392 2.12021 0
M  V30 8271 C 786.317 4.11373 3.36074 0
M  V30 8272 C 785.356 5.29666 3.0679 0
M  V30 8273 N 784.493 5.60205 4.2322 0
M  V30 8274 H 789.333 2.90753 0.653216 0
M  V30 8275 H 786.87 1.43776 0.310951 0
M  V30 8276 H 788.828 2.75973 3.12881 0
M  V30 8277 H 787.458 1.68118 2.75565 0
M  V30 8278 H 786.51 3.58751 1.26498 0
M  V30 8279 H 787.822 4.62662 1.86401 0
M  V30 8280 H 786.976 4.37245 4.20597 0
M  V30 8281 H 785.715 3.23704 3.64784 0
M  V30 8282 H 784.72 5.03574 2.20664 0
M  V30 8283 H 785.945 6.18968 2.79385 0
M  V30 8284 H 783.891 4.75495 4.5193 0
M  V30 8285 H 783.808 6.40928 4.00933 0
M  V30 8286 H 785.076 5.90637 5.08692 0
M  V30 8287 N 789.305 -0.326896 1.54172 0
M  V30 8288 C 790.237 -1.42319 1.79661 0
M  V30 8289 C 791.25 -1.47989 0.678456 0
M  V30 8290 O 792.439 -1.50773 0.955503 0
M  V30 8291 C 789.539 -2.80876 1.89636 0
M  V30 8292 C 788.712 -2.98449 3.19761 0
M  V30 8293 C 787.771 -4.17347 3.2048 0
M  V30 8294 O 786.797 -4.10667 3.94134 0
M  V30 8295 N 787.999 -5.26717 2.44027 0
M  V30 8296 H 790.764 -1.20819 2.74268 0
M  V30 8297 H 788.325 -0.516866 1.53428 0
M  V30 8298 H 790.317 -3.58619 1.87549 0
M  V30 8299 H 788.887 -2.95442 1.02141 0
M  V30 8300 H 788.107 -2.08035 3.34836 0
M  V30 8301 H 789.395 -3.07083 4.05681 0
M  V30 8302 H 788.793 -5.35019 1.8377 0
M  V30 8303 H 787.35 -6.02891 2.47721 0
M  V30 8304 N 790.784 -1.46188 -0.588786 0
M  V30 8305 C 792.061 -1.41659 -1.34878 0
M  V30 8306 C 792.441 -0.0968913 -2.10878 0
M  V30 8307 O 791.789 0.921468 -2.09096 0
M  V30 8308 C 791.999 -2.6424 -2.27988 0
M  V30 8309 C 793.347 -3.1013 -2.90008 0
M  V30 8310 O 794.371 -2.64745 -2.38303 0
M  V30 8311 O 793.23 -3.88944 -3.83908 0
M  V30 8312 H 790.324 -0.563058 -0.605718 0
M  V30 8313 H 792.87 -1.58346 -0.610309 0
M  V30 8314 H 791.642 -3.51853 -1.71217 0
M  V30 8315 H 791.265 -2.49982 -3.09184 0
M  V30 8316 N 792.262 0.832906 -1.33792 0
M  V30 8317 C 793.192 1.95828 -1.27176 0
M  V30 8318 C 794.173 1.69427 -0.15114 0
M  V30 8319 O 795.358 1.91167 -0.341886 0
M  V30 8320 C 792.488 3.32098 -1.01629 0
M  V30 8321 C 791.442 3.72912 -2.10049 0
M  V30 8322 C 790.768 5.07054 -1.69706 0
M  V30 8323 C 792.068 3.86064 -3.51783 0
M  V30 8324 H 793.762 2.01622 -2.21334 0
M  V30 8325 H 791.308 0.96866 -1.0655 0
M  V30 8326 H 793.261 4.10402 -0.956474 0
M  V30 8327 H 791.985 3.26577 -0.0390956 0
M  V30 8328 H 790.644 2.96876 -2.15082 0
M  V30 8329 H 790.292 4.9801 -0.706737 0
M  V30 8330 H 789.992 5.35333 -2.42264 0
M  V30 8331 H 791.516 5.87827 -1.65202 0
M  V30 8332 H 792.93 4.54665 -3.49218 0
M  V30 8333 H 791.327 4.25787 -4.22878 0
M  V30 8334 H 792.397 2.88344 -3.89854 0
M  V30 8335 N 793.74 1.17359 1.05189 0
M  V30 8336 C 794.67 0.91365 2.14883 0
M  V30 8337 C 795.651 -0.144365 1.69486 0
M  V30 8338 O 796.836 0.00587861 1.94199 0
M  V30 8339 C 793.966 0.426196 3.44675 0
M  V30 8340 C 792.92 1.4234 4.03638 0
M  V30 8341 C 792.246 0.793902 5.28773 0
M  V30 8342 C 793.546 2.7966 4.41121 0
M  V30 8343 H 795.24 1.831 2.36885 0
M  V30 8344 H 792.786 0.881781 1.13845 0
M  V30 8345 H 794.739 0.231767 4.20762 0
M  V30 8346 H 793.463 -0.526693 3.22325 0
M  V30 8347 H 792.122 1.60457 3.2962 0
M  V30 8348 H 791.77 -0.165824 5.02727 0
M  V30 8349 H 791.47 1.45959 5.69183 0
M  V30 8350 H 792.994 0.609747 6.07548 0
M  V30 8351 H 794.408 2.6526 5.08242 0
M  V30 8352 H 792.805 3.42807 4.92548 0
M  V30 8353 H 793.875 3.34068 3.51464 0
M  V30 8354 N 795.218 -1.23913 0.973828 0
M  V30 8355 C 796.443 -1.96735 0.656511 0
M  V30 8356 C 796.868 -1.71682 -0.768571 0
M  V30 8357 O 796.226 -0.984267 -1.52256 0
M  V30 8358 C 796.274 -3.48004 0.944735 0
M  V30 8359 O 795.378 -4.12387 0.0333357 0
M  V30 8360 H 794.719 -0.616119 0.247575 0
M  V30 8361 H 797.249 -1.57525 1.30564 0
M  V30 8362 H 797.259 -3.98424 0.87876 0
M  V30 8363 H 795.934 -3.65567 1.98328 0
M  V30 8364 H 794.511 -3.72585 0.153157 0
M  V30 8365 N 796.696 -0.74468 -1.38897 0
M  V30 8366 C 797.646 -0.0869375 -2.27834 0
M  V30 8367 C 798.63 0.702553 -1.44751 0
M  V30 8368 O 799.822 0.569972 -1.67572 0
M  V30 8369 C 796.951 0.812232 -3.33553 0
M  V30 8370 C 796.037 0.0163713 -4.24097 0
M  V30 8371 N 796.428 -1.01547 -4.95502 0
M  V30 8372 C 794.726 0.244554 -4.45329 0
M  V30 8373 C 795.427 -1.49622 -5.62128 0
M  V30 8374 N 794.403 -0.813097 -5.37485 0
M  V30 8375 H 798.205 -0.877345 -2.80499 0
M  V30 8376 H 795.719 -0.579898 -1.51694 0
M  V30 8377 H 797.716 1.299 -3.96146 0
M  V30 8378 H 796.376 1.60169 -2.82446 0
M  V30 8379 H 797.387 -1.39707 -4.98701 0
M  V30 8380 H 794.064 1.00806 -4.05147 0
M  V30 8381 H 795.454 -2.35523 -6.29268 0
M  V30 8382 N 798.174 1.49689 -0.493057 0
M  V30 8383 C 799.084 2.32746 0.294358 0
M  V30 8384 C 800.1 1.44117 0.975003 0
M  V30 8385 O 801.276 1.77149 0.958138 0
M  V30 8386 C 798.341 3.19358 1.34949 0
M  V30 8387 C 797.402 4.2383 0.683122 0
M  V30 8388 C 796.635 5.06303 1.68798 0
M  V30 8389 O 796.858 4.90172 2.91698 0
M  V30 8390 O 795.792 5.88826 1.24768 0
M  V30 8391 H 799.618 3.01247 -0.385254 0
M  V30 8392 H 797.203 1.47216 -0.254519 0
M  V30 8393 H 799.085 3.73037 1.96014 0
M  V30 8394 H 797.76 2.53561 2.01217 0
M  V30 8395 H 796.667 3.74086 0.0329351 0
M  V30 8396 H 798 4.9216 0.0630192 0
M  V30 8397 N 799.652 0.226554 1.55963 0
M  V30 8398 C 800.584 -0.713907 2.17798 0
M  V30 8399 C 801.597 -1.15387 1.14846 0
M  V30 8400 O 802.786 -1.08416 1.41804 0
M  V30 8401 C 799.886 -1.97945 2.75084 0
M  V30 8402 C 799.059 -1.69424 4.03255 0
M  V30 8403 C 798.118 -2.80734 4.45056 0
M  V30 8404 O 797.144 -2.4899 5.11852 0
M  V30 8405 N 798.346 -4.09797 4.11152 0
M  V30 8406 H 801.111 -0.18494 2.99129 0
M  V30 8407 H 798.672 0.0457346 1.61835 0
M  V30 8408 H 800.664 -2.71611 3.00016 0
M  V30 8409 H 799.234 -2.41876 1.98027 0
M  V30 8410 H 798.454 -0.793767 3.86126 0
M  V30 8411 H 799.742 -1.47806 4.86858 0
M  V30 8412 H 799.14 -4.38429 3.57486 0
M  V30 8413 H 797.697 -4.79992 4.40966 0
M  V30 8414 N 801.13 -1.57531 -0.0467866 0
M  V30 8415 C 802.077 -2.05387 -1.05285 0
M  V30 8416 C 803.047 -0.939385 -1.36985 0
M  V30 8417 O 804.232 -1.20877 -1.47626 0
M  V30 8418 C 801.372 -2.52343 -2.35408 0
M  V30 8419 C 800.485 -3.77512 -2.10022 0
M  V30 8420 C 799.62 -4.1315 -3.33887 0
M  V30 8421 C 798.659 -5.31286 -3.03976 0
M  V30 8422 N 797.796 -5.62441 -4.20243 0
M  V30 8423 H 802.636 -2.91095 -0.637788 0
M  V30 8424 H 800.173 -1.43939 -0.303322 0
M  V30 8425 H 802.131 -2.77628 -3.11413 0
M  V30 8426 H 800.761 -1.69577 -2.7467 0
M  V30 8427 H 799.813 -3.59417 -1.24594 0
M  V30 8428 H 801.125 -4.63644 -1.83945 0
M  V30 8429 H 800.279 -4.39469 -4.18273 0
M  V30 8430 H 799.018 -3.25634 -3.63062 0
M  V30 8431 H 798.023 -5.04738 -2.17991 0
M  V30 8432 H 799.248 -6.20441 -2.76098 0
M  V30 8433 H 797.194 -4.77885 -4.49402 0
M  V30 8434 H 797.111 -6.43046 -3.97528 0
M  V30 8435 H 798.379 -5.93327 -5.05553 0
M  V30 8436 N 802.608 0.318715 -1.54344 0
M  V30 8437 C 803.856 1.054 -1.72439 0
M  V30 8438 C 804.177 1.88388 -0.503495 0
M  V30 8439 O 803.447 1.89866 0.48246 0
M  V30 8440 H 802.027 0.392124 -0.635805 0
M  V30 8441 H 804.689 0.35398 -1.91659 0
M  V30 8442 H 803.785 1.71726 -2.60608 0
M  V30 8443 N 804.086 1.46499 0.581025 0
M  V30 8444 C 805.502 1.31491 0.904563 0
M  V30 8445 C 805.702 0.287598 1.99437 0
M  V30 8446 O 804.758 -0.309247 2.50599 0
M  V30 8447 C 806.071 2.70163 1.32032 0
M  V30 8448 C 807.619 2.78266 1.43308 0
M  V30 8449 C 808.094 4.17524 1.8825 0
M  V30 8450 N 809.585 4.19949 1.9544 0
M  V30 8451 C 810.32 5.24594 2.31493 0
M  V30 8452 N 809.816 6.39564 2.66326 0
M  V30 8453 N 811.609 5.11961 2.32062 0
M  V30 8454 H 803.76 2.11946 -0.138856 0
M  V30 8455 H 806.023 0.948 0.000548528 0
M  V30 8456 H 805.729 3.46655 0.593554 0
M  V30 8457 H 805.603 3.00379 2.2815 0
M  V30 8458 H 807.99 2.02061 2.15071 0
M  V30 8459 H 808.071 2.51732 0.45438 0
M  V30 8460 H 807.715 4.94225 1.17065 0
M  V30 8461 H 807.645 4.41466 2.87081 0
M  V30 8462 H 810.136 3.36996 1.71004 0
M  V30 8463 H 810.449 7.15187 2.92793 0
M  V30 8464 H 808.794 6.42923 2.6396 0
M  V30 8465 H 811.985 4.21177 2.04272 0
M  V30 8466 H 812.158 5.93626 2.5983 0
M  V30 8467 N 805.565 -0.825799 1.34232 0
M  V30 8468 C 806.795 -1.61129 1.29309 0
M  V30 8469 C 807.203 -1.88714 -0.135589 0
M  V30 8470 O 806.546 -1.47703 -1.09222 0
M  V30 8471 C 806.608 -2.97866 2.01287 0
M  V30 8472 C 806.272 -2.9319 3.50555 0
M  V30 8473 C 807.269 -2.67978 4.45515 0
M  V30 8474 C 804.954 -3.12913 3.92926 0
M  V30 8475 C 806.948 -2.62536 5.80822 0
M  V30 8476 C 804.635 -3.07096 5.28333 0
M  V30 8477 C 805.633 -2.8194 6.22092 0
M  V30 8478 O 805.321 -2.7605 7.55018 0
M  V30 8479 H 805.053 -0.507652 0.446391 0
M  V30 8480 H 807.607 -1.03575 1.77374 0
M  V30 8481 H 805.837 -3.57327 1.47832 0
M  V30 8482 H 807.526 -3.58848 1.89691 0
M  V30 8483 H 808.292 -2.52478 4.14101 0
M  V30 8484 H 804.171 -3.3151 3.20347 0
M  V30 8485 H 807.715 -2.42821 6.53975 0
M  V30 8486 H 803.612 -3.22148 5.59367 0
M  V30 8487 H 804.38 -2.91798 7.6472 0
M  V30 8488 N 807.043 -1.17915 -1.04565 0
M  V30 8489 C 807.99 -0.901605 -2.12461 0
M  V30 8490 C 808.96 0.157011 -1.65356 0
M  V30 8491 O 810.145 0.0184494 -1.90791 0
M  V30 8492 C 807.285 -0.42796 -3.42436 0
M  V30 8493 C 806.398 -1.55142 -4.03181 0
M  V30 8494 C 805.533 -1.03101 -5.21098 0
M  V30 8495 C 804.572 -2.1295 -5.73863 0
M  V30 8496 N 803.709 -1.62339 -6.83074 0
M  V30 8497 H 808.549 -1.82551 -2.3554 0
M  V30 8498 H 806.086 -0.910389 -1.15544 0
M  V30 8499 H 808.044 -0.134859 -4.16982 0
M  V30 8500 H 806.674 0.458977 -3.1952 0
M  V30 8501 H 805.726 -1.96011 -3.26012 0
M  V30 8502 H 807.038 -2.37968 -4.38375 0
M  V30 8503 H 806.192 -0.692132 -6.02739 0
M  V30 8504 H 804.931 -0.17227 -4.87396 0
M  V30 8505 H 803.936 -2.47687 -4.90847 0
M  V30 8506 H 805.161 -2.9925 -6.09611 0
M  V30 8507 H 803.107 -0.787464 -6.51256 0
M  V30 8508 H 803.024 -2.38767 -7.17305 0
M  V30 8509 H 804.292 -1.31363 -7.68351 0
M  V30 8510 N 808.521 1.23394 -0.980386 0
M  V30 8511 C 809.453 2.24146 -0.478657 0
M  V30 8512 C 810.466 1.57303 0.419492 0
M  V30 8513 O 811.655 1.77094 0.223631 0
M  V30 8514 C 808.755 3.3732 0.326913 0
M  V30 8515 C 807.928 4.33744 -0.56436 0
M  V30 8516 C 806.987 5.25866 0.187358 0
M  V30 8517 O 806.013 5.67626 -0.423019 0
M  V30 8518 N 807.215 5.61492 1.47335 0
M  V30 8519 H 809.98 2.67826 -1.34496 0
M  V30 8520 H 807.541 1.37566 -0.853653 0
M  V30 8521 H 809.533 3.95926 0.838148 0
M  V30 8522 H 808.103 2.92823 1.09422 0
M  V30 8523 H 807.323 3.73641 -1.25642 0
M  V30 8524 H 808.611 4.95123 -1.17177 0
M  V30 8525 H 808.009 5.29514 1.99077 0
M  V30 8526 H 806.566 6.2257 1.93002 0
M  V30 8527 N 809.999 0.752036 1.385 0
M  V30 8528 C 810.909 0.125318 2.34265 0
M  V30 8529 C 811.925 -0.702437 1.59191 0
M  V30 8530 O 813.101 -0.626951 1.91393 0
M  V30 8531 C 810.166 -0.758486 3.38301 0
M  V30 8532 C 809.227 0.0834636 4.29219 0
M  V30 8533 C 808.46 -0.758252 5.28286 0
M  V30 8534 O 808.683 -1.99632 5.34325 0
M  V30 8535 O 807.617 -0.177878 6.01637 0
M  V30 8536 H 811.443 0.91617 2.89551 0
M  V30 8537 H 809.028 0.512911 1.4032 0
M  V30 8538 H 810.91 -1.26365 4.02007 0
M  V30 8539 H 809.585 -1.52786 2.85374 0
M  V30 8540 H 808.492 0.634545 3.68679 0
M  V30 8541 H 809.825 0.815455 4.85398 0
M  V30 8542 N 811.477 -1.49425 0.500989 0
M  V30 8543 C 812.702 -2.07356 -0.0425154 0
M  V30 8544 C 813.127 -1.35887 -1.30063 0
M  V30 8545 O 812.485 -0.41561 -1.76472 0
M  V30 8546 C 812.533 -3.59518 -0.279188 0
M  V30 8547 O 811.637 -3.89542 -1.3539 0
M  V30 8548 H 810.978 -0.663482 0.0262207 0
M  V30 8549 H 813.508 -1.92231 0.700607 0
M  V30 8550 H 813.518 -4.04791 -0.5107 0
M  V30 8551 H 812.193 -4.10946 0.640009 0
M  V30 8552 H 810.77 -3.56079 -1.10734 0
M  V30 8553 N 812.955 -0.234822 -1.55841 0
M  V30 8554 C 814.18 0.400741 -2.03492 0
M  V30 8555 C 814.605 1.51618 -1.11327 0
M  V30 8556 O 813.963 1.81002 -0.103922 0
M  V30 8557 C 814.011 0.897184 -3.49261 0
M  V30 8558 O 813.115 2.00764 -3.60233 0
M  V30 8559 H 812.456 0.0890023 -0.658008 0
M  V30 8560 H 814.986 -0.357345 -2.01455 0
M  V30 8561 H 814.996 1.20356 -3.89844 0
M  V30 8562 H 813.671 0.0808639 -4.15821 0
M  V30 8563 H 812.248 1.70689 -3.31541 0
M  V30 8564 N 814.433 1.57553 0.0384317 0
M  V30 8565 C 815.343 2.09333 1.0591 0
M  V30 8566 C 816.359 1.0299 1.40247 0
M  V30 8567 O 817.535 1.34669 1.49754 0
M  V30 8568 C 814.6 2.55468 2.34386 0
M  V30 8569 C 813.661 3.76254 2.06716 0
M  V30 8570 C 812.894 4.20179 3.29067 0
M  V30 8571 O 813.117 3.637 4.39407 0
M  V30 8572 O 812.051 5.12697 3.15317 0
M  V30 8573 H 815.877 2.96683 0.649087 0
M  V30 8574 H 813.462 1.47211 0.254802 0
M  V30 8575 H 815.344 2.85514 3.09935 0
M  V30 8576 H 814.019 1.71234 2.74701 0
M  V30 8577 H 812.926 3.51241 1.28766 0
M  V30 8578 H 814.259 4.61443 1.71263 0
M  V30 8579 N 815.911 -0.310526 1.54511 0
M  V30 8580 C 817.136 -1.07046 1.7764 0
M  V30 8581 C 817.561 -1.80488 0.529696 0
M  V30 8582 O 816.919 -1.73702 -0.519361 0
M  V30 8583 C 816.967 -2.03411 2.97752 0
M  V30 8584 O 816.071 -3.11545 2.7021 0
M  V30 8585 H 815.412 -0.307994 0.588248 0
M  V30 8586 H 817.942 -0.350848 2.01569 0
M  V30 8587 H 817.952 -2.46048 3.2546 0
M  V30 8588 H 816.627 -1.49361 3.88155 0
M  V30 8589 H 815.204 -2.7349 2.53491 0
M  V30 8590 N 817.389 -1.46805 -0.573248 0
M  V30 8591 C 818.339 -1.54497 -1.67674 0
M  V30 8592 C 819.323 -0.405117 -1.55716 0
M  V30 8593 O 820.515 -0.654097 -1.64471 0
M  V30 8594 C 817.644 -1.54717 -3.0646 0
M  V30 8595 C 816.73 -2.7403 -3.2368 0
M  V30 8596 N 817.121 -3.98871 -3.11023 0
M  V30 8597 C 815.419 -2.70453 -3.54642 0
M  V30 8598 C 816.12 -4.78689 -3.30502 0
M  V30 8599 N 815.096 -4.10727 -3.56096 0
M  V30 8600 H 818.898 -2.48809 -1.56433 0
M  V30 8601 H 816.412 -1.42576 -0.777554 0
M  V30 8602 H 818.409 -1.58316 -3.8567 0
M  V30 8603 H 817.069 -0.614886 -3.18825 0
M  V30 8604 H 818.08 -4.29976 -2.88688 0
M  V30 8605 H 814.757 -1.86291 -3.73633 0
M  V30 8606 H 816.147 -5.87615 -3.2582 0
M  V30 8607 N 818.867 0.818669 -1.34668 0
M  V30 8608 C 819.815 1.95123 -1.26609 0
M  V30 8609 C 820.809 1.68611 -0.163348 0
M  V30 8610 O 822.015 1.76975 -0.328586 0
M  V30 8611 H 818.39 0.640871 -0.393431 0
M  V30 8612 H 820.361 1.99043 -2.22316 0
M  V30 8613 C 819.11 3.31697 -1.04272 0
M  V30 8614 H 818.433 3.52648 -1.8836 0
M  V30 8615 H 819.873 4.11382 -1.0267 0
M  V30 8616 C 818.332 3.35942 0.253858 0
M  V30 8617 O 818.862 3.81632 1.25378 0
M  V30 8618 N 817.068 2.89165 0.288447 0
M  V30 8619 H 816.615 2.52176 -0.525845 0
M  V30 8620 H 816.573 2.92387 1.15572 0
M  V30 8621 N 820.346 1.18468 1.03938 0
M  V30 8622 C 821.595 0.975193 1.76558 0
M  V30 8623 C 821.908 -0.495978 1.89207 0
M  V30 8624 O 823.114 -0.824009 2.58694 0
M  V30 8625 C 821.57 1.69579 3.17444 0
M  V30 8626 C 821.178 3.20636 3.12884 0
M  V30 8627 C 822.922 1.56917 3.94433 0
M  V30 8628 C 820.829 3.8533 4.48636 0
M  V30 8629 H 819.759 0.361244 0.66183 0
M  V30 8630 H 822.41 1.41854 1.16403 0
M  V30 8631 H 820.792 1.18022 3.78004 0
M  V30 8632 H 821.966 3.79228 2.61768 0
M  V30 8633 H 820.281 3.33454 2.49394 0
M  V30 8634 H 822.878 2.02611 4.94826 0
M  V30 8635 H 823.221 0.521638 4.13019 0
M  V30 8636 H 823.754 2.05762 3.40451 0
M  V30 8637 H 820.493 4.90136 4.35255 0
M  V30 8638 H 820.013 3.31526 4.99851 0
M  V30 8639 H 821.692 3.88269 5.17549 0
M  V30 8640 N 821.824 -1.22873 0.986916 0
M  V30 8641 C 823.07 -1.91746 0.660401 0
M  V30 8642 C 823.403 -1.76738 -0.804812 0
M  V30 8643 O 822.678 -1.13246 -1.58131 0
M  V30 8644 C 822.961 -3.44156 1.05966 0
M  V30 8645 C 822.814 -3.68242 2.58298 0
M  V30 8646 C 824.133 -4.35874 0.60842 0
M  V30 8647 H 821.252 -0.696347 0.241391 0
M  V30 8648 H 823.894 -1.44867 1.22937 0
M  V30 8649 H 822.044 -3.84213 0.575534 0
M  V30 8650 H 823.716 -3.37626 3.14335 0
M  V30 8651 H 821.959 -3.12728 3.00638 0
M  V30 8652 H 822.63 -4.74956 2.81285 0
M  V30 8653 H 825.106 -4.03299 1.02417 0
M  V30 8654 H 823.982 -5.41201 0.916142 0
M  V30 8655 H 824.243 -4.39364 -0.491086 0
M  V30 8656 N 823.302 -0.75937 -1.38099 0
M  V30 8657 C 824.551 -0.314864 -1.99227 0
M  V30 8658 C 824.864 1.1113 -1.60964 0
M  V30 8659 O 826.07 1.65657 -2.15105 0
M  V30 8660 C 824.526 -0.512001 -3.56239 0
M  V30 8661 C 824.134 -1.94762 -4.0345 0
M  V30 8662 C 825.878 -0.130497 -4.24299 0
M  V30 8663 C 823.785 -2.09301 -5.53125 0
M  V30 8664 H 822.715 -0.113978 -0.745335 0
M  V30 8665 H 825.366 -0.936736 -1.57789 0
M  V30 8666 H 823.748 0.179144 -3.95595 0
M  V30 8667 H 824.922 -2.67271 -3.75371 0
M  V30 8668 H 823.237 -2.28457 -3.48133 0
M  V30 8669 H 825.834 -0.21781 -5.34256 0
M  V30 8670 H 826.177 0.917644 -4.0606 0
M  V30 8671 H 826.71 -0.773716 -3.90203 0
M  V30 8672 H 823.449 -3.1239 -5.76275 0
M  V30 8673 H 822.969 -1.41261 -5.82928 0
M  V30 8674 H 824.648 -1.88571 -6.1891 0
M  V30 8675 N 824.78 1.49157 -0.508906 0
M  V30 8676 C 826.008 2.06879 0.0293734 0
M  V30 8677 C 826.423 1.36823 1.30095 0
M  V30 8678 O 825.78 0.449034 1.7689 0
M  V30 8679 C 825.831 3.60423 0.278791 0
M  V30 8680 O 825.552 4.27844 -0.942389 0
M  V30 8681 C 827.053 4.34881 0.859825 0
M  V30 8682 H 824.273 0.67057 -0.0240184 0
M  V30 8683 H 826.817 1.91834 -0.708526 0
M  V30 8684 H 824.972 3.75145 0.966689 0
M  V30 8685 H 825.386 5.19671 -0.710097 0
M  V30 8686 H 826.86 5.43161 0.983884 0
M  V30 8687 H 827.337 3.9789 1.85958 0
M  V30 8688 H 827.943 4.24785 0.209152 0
M  V30 8689 N 826.258 0.243083 1.55714 0
M  V30 8690 C 827.168 -0.668913 2.24862 0
M  V30 8691 C 828.184 -1.19638 1.26344 0
M  V30 8692 O 829.36 -1.23345 1.5921 0
M  V30 8693 C 826.425 -1.85084 2.93163 0
M  V30 8694 C 825.486 -1.36323 4.07081 0
M  V30 8695 C 824.719 -2.48882 4.72116 0
M  V30 8696 O 824.942 -3.67523 4.36214 0
M  V30 8697 O 823.876 -2.18857 5.60701 0
M  V30 8698 H 827.702 -0.109737 3.03502 0
M  V30 8699 H 825.287 0.0117411 1.49395 0
M  V30 8700 H 827.169 -2.54065 3.36197 0
M  V30 8701 H 825.844 -2.39771 2.17466 0
M  V30 8702 H 824.751 -0.640804 3.68571 0
M  V30 8703 H 826.084 -0.86249 4.84584 0
M  V30 8704 N 827.736 -1.57571 -0.0300757 0
M  V30 8705 C 828.686 -2.02958 -1.03885 0
M  V30 8706 C 829.67 -0.918723 -1.32092 0
M  V30 8707 O 830.862 -1.18262 -1.31694 0
M  V30 8708 C 827.991 -2.51169 -2.34028 0
M  V30 8709 C 827.077 -3.69073 -2.08915 0
M  V30 8710 N 827.468 -4.81831 -1.53858 0
M  V30 8711 C 825.766 -3.76427 -2.39204 0
M  V30 8712 C 826.467 -5.6346 -1.44526 0
M  V30 8713 N 825.443 -5.08545 -1.92048 0
M  V30 8714 H 829.245 -2.8756 -0.607157 0
M  V30 8715 H 826.759 -1.6067 -0.236399 0
M  V30 8716 H 828.756 -2.81944 -3.07104 0
M  V30 8717 H 827.416 -1.67972 -2.77876 0
M  V30 8718 H 828.427 -5.03291 -1.22142 0
M  V30 8719 H 825.104 -3.04029 -2.86134 0
M  V30 8720 H 826.494 -6.64042 -1.02456 0
M  V30 8721 N 829.214 0.302327 -1.54673 0
M  V30 8722 C 830.124 1.39542 -1.88587 0
M  V30 8723 C 831.14 1.55543 -0.779895 0
M  V30 8724 O 832.316 1.70233 -1.07623 0
M  V30 8725 C 829.381 2.7394 -2.12504 0
M  V30 8726 C 828.442 2.66935 -3.3622 0
M  V30 8727 C 827.675 3.94923 -3.58987 0
M  V30 8728 O 827.898 4.94218 -2.84789 0
M  V30 8729 O 826.832 3.96896 -4.52501 0
M  V30 8730 H 830.658 1.13784 -2.81579 0
M  V30 8731 H 828.243 0.49827 -1.40846 0
M  V30 8732 H 830.125 3.5346 -2.29443 0
M  V30 8733 H 828.8 2.99544 -1.22698 0
M  V30 8734 H 827.707 1.85892 -3.24646 0
M  V30 8735 H 829.04 2.46283 -4.26152 0
M  V30 8736 N 830.692 1.47107 0.565454 0
M  V30 8737 C 831.938 1.53535 1.32495 0
M  V30 8738 C 832.271 0.193537 1.93233 0
M  V30 8739 O 831.546 -0.796956 1.77423 0
M  V30 8740 C 831.829 2.64712 2.4413 0
M  V30 8741 C 831.682 4.08482 1.88314 0
M  V30 8742 C 833.001 2.71853 3.46098 0
M  V30 8743 H 830.12 0.558926 0.480386 0
M  V30 8744 H 832.762 1.79125 0.633575 0
M  V30 8745 H 830.912 2.43023 3.03104 0
M  V30 8746 H 832.584 4.4151 1.33665 0
M  V30 8747 H 830.827 4.17148 1.19037 0
M  V30 8748 H 831.498 4.82032 2.68978 0
M  V30 8749 H 833.974 2.91397 2.97031 0
M  V30 8750 H 832.85 3.51433 4.21646 0
M  V30 8751 H 833.111 1.78584 4.04426 0
M  V30 8752 N 832.17 -0.811516 1.35101 0
M  V30 8753 C 833.133 -1.90467 1.27495 0
M  V30 8754 C 834.133 -1.59703 0.187516 0
M  V30 8755 O 835.323 -1.68528 0.440896 0
M  V30 8756 C 832.455 -3.26774 0.971154 0
M  V30 8757 H 833.648 -1.98631 2.2469 0
M  V30 8758 H 831.201 -1.00681 1.19553 0
M  V30 8759 H 831.936 -3.243 0.0028557 0
M  V30 8760 H 831.721 -3.50488 1.75785 0
M  V30 8761 H 833.211 -4.06804 0.943414 0
M  V30 8762 N 833.648 -1.19017 -1.03309 0
M  V30 8763 C 834.58 -0.881847 -2.11556 0
M  V30 8764 C 835.593 0.123711 -1.62329 0
M  V30 8765 O 836.782 -0.105141 -1.7819 0
M  V30 8766 C 833.882 -0.297634 -3.37591 0
M  V30 8767 C 833.055 -1.35072 -4.16022 0
M  V30 8768 C 832.114 -0.780812 -5.20375 0
M  V30 8769 O 831.14 -1.45745 -5.50224 0
M  V30 8770 N 832.342 0.417964 -5.78993 0
M  V30 8771 H 835.107 -1.81359 -2.38598 0
M  V30 8772 H 832.668 -1.0916 -1.19565 0
M  V30 8773 H 834.66 0.097374 -4.04583 0
M  V30 8774 H 833.23 0.538299 -3.0793 0
M  V30 8775 H 832.45 -1.92074 -3.4424 0
M  V30 8776 H 833.738 -2.06044 -4.65213 0
M  V30 8777 H 833.136 0.985281 -5.57054 0
M  V30 8778 H 831.693 0.754802 -6.47415 0
M  V30 8779 N 835.127 1.22348 -0.993418 0
M  V30 8780 C 836.404 1.86632 -0.585495 0
M  V30 8781 C 836.784 1.89156 0.937187 0
M  V30 8782 O 836.132 1.38247 1.81934 0
M  V30 8783 C 836.342 3.27481 -1.20652 0
M  V30 8784 C 837.69 4.03971 -1.30738 0
M  V30 8785 O 838.714 3.3675 -1.16096 0
M  V30 8786 O 837.573 5.24302 -1.54173 0
M  V30 8787 H 834.667 0.802704 -0.198984 0
M  V30 8788 H 837.213 1.30122 -1.08933 0
M  V30 8789 H 835.985 3.20281 -2.24802 0
M  V30 8790 H 835.608 3.91597 -0.688312 0
M  V30 8791 N 836.605 0.766683 1.37694 0
M  V30 8792 C 837.882 0.25366 1.93948 0
M  V30 8793 C 838.262 -1.25041 1.70082 0
M  V30 8794 O 837.61 -2.03115 1.04674 0
M  V30 8795 C 837.82 0.621549 3.43421 0
M  V30 8796 C 839.168 0.588504 4.20502 0
M  V30 8797 O 840.192 0.560632 3.5176 0
M  V30 8798 O 839.051 0.61107 5.43073 0
M  V30 8799 H 836.145 0.0570586 0.825029 0
M  V30 8800 H 838.691 0.847693 1.47011 0
M  V30 8801 H 837.463 1.65979 3.54354 0
M  V30 8802 H 837.086 0.000197027 3.976 0
M  V30 8803 N 838.083 -1.48885 0.516809 0
M  V30 8804 C 839.033 -2.26363 -0.272704 0
M  V30 8805 C 840.017 -1.31891 -0.921604 0
M  V30 8806 O 841.209 -1.56514 -0.826589 0
M  V30 8807 C 838.338 -3.16614 -1.32705 0
M  V30 8808 C 837.424 -4.18554 -0.683598 0
M  V30 8809 N 837.815 -5.05308 0.223015 0
M  V30 8810 C 836.113 -4.35931 -0.942351 0
M  V30 8811 C 836.814 -5.7867 0.592918 0
M  V30 8812 N 835.79 -5.43583 -0.042912 0
M  V30 8813 H 839.592 -2.90811 0.424971 0
M  V30 8814 H 837.106 -1.5893 0.333941 0
M  V30 8815 H 839.103 -3.70766 -1.90625 0
M  V30 8816 H 837.763 -2.5372 -2.02624 0
M  V30 8817 H 838.774 -5.14473 0.594818 0
M  V30 8818 H 835.451 -3.84234 -1.6331 0
M  V30 8819 H 836.841 -6.58493 1.33556 0
M  V30 8820 N 839.561 -0.251338 -1.55583 0
M  V30 8821 C 840.491 0.640437 -2.24545 0
M  V30 8822 C 841.472 1.17781 -1.22726 0
M  V30 8823 O 842.657 1.21633 -1.5139 0
M  V30 8824 C 839.787 1.8355 -2.94834 0
M  V30 8825 C 838.741 1.4307 -4.03379 0
M  V30 8826 C 838.067 2.70695 -4.61116 0
M  V30 8827 C 839.367 0.59848 -5.1886 0
M  V30 8828 H 841.061 0.0653772 -2.99329 0
M  V30 8829 H 838.607 0.0300042 -1.43969 0
M  V30 8830 H 840.56 2.46505 -3.4178 0
M  V30 8831 H 839.284 2.43601 -2.17546 0
M  V30 8832 H 837.943 0.824474 -3.57209 0
M  V30 8833 H 837.591 3.28954 -3.80524 0
M  V30 8834 H 837.291 2.44332 -5.34393 0
M  V30 8835 H 838.815 3.34541 -5.10798 0
M  V30 8836 H 840.229 1.13244 -5.62004 0
M  V30 8837 H 838.626 0.430728 -5.98552 0
M  V30 8838 H 839.696 -0.38829 -4.83343 0
M  V30 8839 N 841.039 1.57585 0.0217189 0
M  V30 8840 C 842.267 1.93871 0.722619 0
M  V30 8841 C 842.682 0.851706 1.68498 0
M  V30 8842 O 842.039 -0.17127 1.81695 0
M  V30 8843 C 842.09 3.30114 1.47333 0
M  V30 8844 O 841.811 4.34639 0.549597 0
M  V30 8845 C 843.312 3.80727 2.27072 0
M  V30 8846 H 840.532 0.639671 0.202637 0
M  V30 8847 H 843.076 2.04487 -0.0229414 0
M  V30 8848 H 841.231 3.20872 2.17071 0
M  V30 8849 H 841.645 5.13326 1.07686 0
M  V30 8850 H 843.119 4.78547 2.75131 0
M  V30 8851 H 843.596 3.12301 3.08812 0
M  V30 8852 H 844.202 3.93075 1.62395 0
M  V30 8853 N 842.517 -0.29412 1.54831 0
M  V30 8854 C 843.449 -1.38476 1.82639 0
M  V30 8855 C 844.462 -1.46517 0.709694 0
M  V30 8856 O 845.651 -1.48712 0.987269 0
M  V30 8857 C 842.751 -2.76791 1.95551 0
M  V30 8858 C 841.924 -2.91599 3.26019 0
M  V30 8859 C 840.983 -4.10456 3.29261 0
M  V30 8860 O 840.009 -4.02214 4.02756 0
M  V30 8861 N 841.211 -5.21422 2.55145 0
M  V30 8862 H 843.976 -1.14974 2.76769 0
M  V30 8863 H 841.537 -0.484206 1.5449 0
M  V30 8864 H 843.529 -3.5456 1.95113 0
M  V30 8865 H 842.099 -2.93209 1.08384 0
M  V30 8866 H 841.319 -2.00886 3.39173 0
M  V30 8867 H 842.607 -2.98409 4.12104 0
M  V30 8868 H 842.005 -5.31 1.95078 0
M  V30 8869 H 840.562 -5.97501 2.60454 0
M  V30 8870 N 843.995 -1.47404 -0.557645 0
M  V30 8871 C 844.927 -1.55917 -1.67995 0
M  V30 8872 C 845.94 -0.445411 -1.56588 0
M  V30 8873 O 847.129 -0.714999 -1.63554 0
M  V30 8874 C 844.229 -1.44697 -3.06457 0
M  V30 8875 C 843.402 -2.70633 -3.43622 0
M  V30 8876 C 842.461 -2.53256 -4.61246 0
M  V30 8877 O 841.487 -3.27068 -4.65849 0
M  V30 8878 N 842.689 -1.61053 -5.57711 0
M  V30 8879 H 845.454 -2.52694 -1.61139 0
M  V30 8880 H 843.015 -1.43778 -0.744271 0
M  V30 8881 H 845.007 -1.30806 -3.82978 0
M  V30 8882 H 843.577 -0.560039 -3.07542 0
M  V30 8883 H 842.797 -2.99288 -2.56555 0
M  V30 8884 H 844.085 -3.5424 -3.65228 0
M  V30 8885 H 843.483 -1.00235 -5.56749 0
M  V30 8886 H 842.04 -1.53115 -6.33561 0
M  V30 8887 N 845.473 0.80434 -1.35529 0
M  V30 8888 C 846.703 1.59052 -1.31856 0
M  V30 8889 C 847.111 1.88905 0.105549 0
M  V30 8890 O 846.454 1.49422 1.06858 0
M  V30 8891 C 846.516 2.94626 -2.06 0
M  V30 8892 C 846.18 2.87576 -3.55175 0
M  V30 8893 C 847.177 2.60856 -4.49722 0
M  V30 8894 C 844.862 3.06623 -3.97854 0
M  V30 8895 C 846.856 2.53262 -5.84925 0
M  V30 8896 C 844.543 2.98652 -5.33151 0
M  V30 8897 C 845.541 2.72007 -6.26499 0
M  V30 8898 O 845.229 2.64003 -7.59314 0
M  V30 8899 H 844.961 0.500486 -0.454411 0
M  V30 8900 H 847.515 1.0074 -1.78999 0
M  V30 8901 H 845.745 3.5493 -1.53498 0
M  V30 8902 H 847.434 3.55785 -1.95376 0
M  V30 8903 H 848.2 2.45858 -4.18066 0
M  V30 8904 H 844.079 3.26372 -3.2558 0
M  V30 8905 H 847.623 2.32386 -6.57756 0
M  V30 8906 H 843.52 3.13208 -5.64421 0
M  V30 8907 H 844.288 2.79595 -7.69265 0
M  V30 8908 N 846.951 1.19563 1.02676 0
M  V30 8909 C 847.899 0.931942 2.13114 0
M  V30 8910 C 848.893 -0.113007 1.69023 0
M  V30 8911 O 850.099 0.0364298 1.79963 0
M  V30 8912 H 846.474 0.283981 0.696318 0
M  V30 8913 H 848.445 1.86991 2.32545 0
M  V30 8914 C 847.194 0.489461 3.44238 0
M  V30 8915 H 846.517 1.28508 3.78584 0
M  V30 8916 H 847.957 0.34408 4.22602 0
M  V30 8917 C 846.416 -0.796761 3.27343 0
M  V30 8918 O 846.946 -1.85767 3.56165 0
M  V30 8919 N 845.152 -0.754824 2.80626 0
M  V30 8920 H 844.699 0.108778 2.5737 0
M  V30 8921 H 844.657 -1.6158 2.69702 0
M  V30 8922 N 848.429 -1.21819 0.999893 0
M  V30 8923 C 849.339 -2.27691 0.565159 0
M  V30 8924 C 850.355 -1.69587 -0.389398 0
M  V30 8925 O 851.531 -1.99786 -0.254499 0
M  V30 8926 C 848.596 -3.46537 -0.106432 0
M  V30 8927 C 847.657 -4.19932 0.891964 0
M  V30 8928 C 846.89 -5.33103 0.252327 0
M  V30 8929 O 847.113 -5.62398 -0.952103 0
M  V30 8930 O 846.047 -5.94184 0.960698 0
M  V30 8931 H 849.873 -2.67059 1.44613 0
M  V30 8932 H 847.458 -1.28119 0.768499 0
M  V30 8933 H 849.34 -4.18631 -0.482301 0
M  V30 8934 H 848.015 -3.09079 -0.961865 0
M  V30 8935 H 846.922 -3.5008 1.3189 0
M  V30 8936 H 848.255 -4.61287 1.71682 0
M  V30 8937 N 849.908 -0.773975 -1.37286 0
M  V30 8938 C 851.185 -0.263942 -1.93811 0
M  V30 8939 C 851.565 1.24138 -1.70743 0
M  V30 8940 O 850.913 2.02557 -1.05749 0
M  V30 8941 C 851.123 -0.639753 -3.43086 0
M  V30 8942 C 852.471 -0.610796 -4.20184 0
M  V30 8943 O 853.495 -0.579278 -3.51458 0
M  V30 8944 O 852.354 -0.639862 -5.42741 0
M  V30 8945 H 849.448 -0.0614331 -0.824715 0
M  V30 8946 H 851.994 -0.855477 -1.46559 0
M  V30 8947 H 850.766 -1.67856 -3.53469 0
M  V30 8948 H 850.389 -0.0212827 -3.97594 0
M  V30 8949 N 851.386 1.48609 -0.524698 0
M  V30 8950 C 852.802 1.58557 -0.182199 0
M  V30 8951 C 853.002 1.52732 1.31435 0
M  V30 8952 O 852.058 1.41362 2.0922 0
M  V30 8953 C 853.371 2.90406 -0.78004 0
M  V30 8954 C 854.919 3.03924 -0.748293 0
M  V30 8955 C 855.394 4.38427 -1.32462 0
M  V30 8956 N 856.885 4.4498 -1.28635 0
M  V30 8957 C 857.62 5.47551 -1.70223 0
M  V30 8958 N 857.116 6.57103 -2.19515 0
M  V30 8959 N 858.909 5.38402 -1.61493 0
M  V30 8960 H 851.06 1.50638 -1.4974 0
M  V30 8961 H 853.323 0.714952 -0.622533 0
M  V30 8962 H 853.029 3.00308 -1.83052 0
M  V30 8963 H 852.903 3.76343 -0.254075 0
M  V30 8964 H 855.29 2.93638 0.293407 0
M  V30 8965 H 855.371 2.19611 -1.31167 0
M  V30 8966 H 855.015 4.49466 -2.36522 0
M  V30 8967 H 854.945 5.21418 -0.736967 0
M  V30 8968 H 857.436 3.66393 -0.92545 0
M  V30 8969 H 857.749 7.31499 -2.49257 0
M  V30 8970 H 856.094 6.58081 -2.23506 0
M  V30 8971 H 859.285 4.5171 -1.22785 0
M  V30 8972 H 859.458 6.18208 -1.94225 0
M  V30 8973 N 852.864 0.259585 1.55447 0
M  V30 8974 C 853.812 -0.6507 2.23313 0
M  V30 8975 C 854.806 -1.17014 1.22491 0
M  V30 8976 O 856.012 -1.12557 1.40467 0
M  V30 8977 H 852.387 -0.228354 0.71649 0
M  V30 8978 H 854.358 -0.0553039 2.98349 0
M  V30 8979 C 853.107 -1.83081 2.95596 0
M  V30 8980 H 852.43 -1.44027 3.72956 0
M  V30 8981 H 853.87 -2.44469 3.46426 0
M  V30 8982 C 852.329 -2.70976 2.00184 0
M  V30 8983 O 852.859 -3.70882 1.54304 0
M  V30 8984 N 851.065 -2.37813 1.67014 0
M  V30 8985 H 850.612 -1.5662 2.04519 0
M  V30 8986 H 850.57 -2.96896 1.03443 0
M  V30 8987 N 854.342 -1.57594 -0.0133615 0
M  V30 8988 C 855.753 -1.78168 -0.557937 0
M  V30 8989 C 856.104 -0.892616 -1.74719 0
M  V30 8990 O 855.229 -0.0915491 -2.16206 0
M  V30 8991 C 855.824 -3.23115 -1.01894 0
M  V30 8992 C 854.383 -3.44831 -1.50892 0
M  V30 8993 C 853.53 -2.73558 -0.454044 0
M  V30 8994 H 856.481 -1.57266 0.212843 0
M  V30 8995 H 856.502 -3.30493 -1.8856 0
M  V30 8996 H 856.014 -3.87798 -0.153175 0
M  V30 8997 H 854.115 -2.85345 -2.39602 0
M  V30 8998 H 854.228 -4.53485 -1.54559 0
M  V30 8999 H 852.592 -2.37787 -0.912666 0
M  V30 9000 H 853.375 -3.40932 0.402524 0
M  V30 9001 N 855.82 0.285905 -1.54985 0
M  V30 9002 C 857.069 1.01691 -1.74189 0
M  V30 9003 C 857.382 1.87908 -0.543135 0
M  V30 9004 O 858.588 2.64389 -0.617305 0
M  V30 9005 C 857.044 1.85785 -3.0824 0
M  V30 9006 C 856.652 1.04497 -4.35642 0
M  V30 9007 C 858.396 2.58393 -3.36798 0
M  V30 9008 C 856.303 1.87955 -5.60738 0
M  V30 9009 H 855.233 0.383396 -0.649248 0
M  V30 9010 H 857.884 0.27317 -1.81455 0
M  V30 9011 H 856.266 2.64205 -2.94978 0
M  V30 9012 H 857.44 0.305847 -4.59784 0
M  V30 9013 H 855.755 0.434023 -4.14132 0
M  V30 9014 H 858.352 3.21214 -4.27464 0
M  V30 9015 H 858.695 3.28011 -2.56349 0
M  V30 9016 H 859.228 1.87012 -3.511 0
M  V30 9017 H 855.967 1.22781 -6.43898 0
M  V30 9018 H 855.487 2.59499 -5.40759 0
M  V30 9019 H 857.166 2.45636 -5.98558 0
M  V30 9020 N 857.298 1.47698 0.54982 0
M  V30 9021 C 858.523 1.58579 1.33669 0
M  V30 9022 C 858.948 0.239049 1.86575 0
M  V30 9023 O 858.306 -0.786256 1.63364 0
M  V30 9024 C 858.354 2.62029 2.47736 0
M  V30 9025 O 857.458 2.17813 3.50188 0
M  V30 9026 H 856.799 0.532447 0.396732 0
M  V30 9027 H 859.329 1.93536 0.6637 0
M  V30 9028 H 859.339 2.82682 2.94202 0
M  V30 9029 H 858.014 3.59812 2.08586 0
M  V30 9030 H 856.591 2.07291 3.09976 0
M  V30 9031 N 858.776 -0.797141 1.35954 0
M  V30 9032 C 860.004 -1.5858 1.32891 0
M  V30 9033 C 860.419 -1.88578 -0.0915564 0
M  V30 9034 O 859.776 -1.49532 -1.04625 0
M  V30 9035 C 859.827 -2.91143 2.14284 0
M  V30 9036 O 859.548 -2.62442 3.50793 0
M  V30 9037 C 861.049 -3.85476 2.18914 0
M  V30 9038 H 858.269 -0.492111 0.456144 0
M  V30 9039 H 860.813 -0.98994 1.78943 0
M  V30 9040 H 858.968 -3.47219 1.71807 0
M  V30 9041 H 859.382 -3.4715 3.93175 0
M  V30 9042 H 860.856 -4.75574 2.80238 0
M  V30 9043 H 861.333 -4.22758 1.19047 0
M  V30 9044 H 861.939 -3.35334 2.61593 0
M  V30 9045 O 860.293 -1.31581 -0.936416 0
M  V30 9046 H 860.984 -1.13849 -1.56711 0
M  V30 END ATOM
M  V30 BEGIN BOND
M  V30 END BOND
M  V30 END CTAB
M  END
$$$$
