drugbank_target|Q02643 Growth hormone-releasing hormone receptor (DB00010; DB08869)
 OpenBabel12092119353D

  0  0  0     0  0            999 V3000
M  V30 BEGIN CTAB
M  V30 COUNTS 6658 6767 0 0 0
M  V30 BEGIN ATOM
M  V30 1 H -0.908 1.98254 -0.117106 0
M  V30 2 N 0 1.576 0 0
M  V30 3 C 0.933 2.03868 1.02534 0
M  V30 4 C 1.911 0.928543 1.3348 0
M  V30 5 O 3.095 1.19667 1.45644 0
M  V30 6 C 0.222 2.43627 2.35294 0
M  V30 7 C -0.732 3.65373 2.2001 0
M  V30 8 S 0.101 5.13292 1.52614 0
M  V30 9 C 1.257 5.56322 2.86805 0
M  V30 10 H 1.49 2.90518 0.631377 0
M  V30 11 H -0.977 1.52953 0.210867 0
M  V30 12 H 0.981 2.67203 3.11629 0
M  V30 13 H -0.358 1.57376 2.7183 0
M  V30 14 H -1.165 3.90944 3.18086 0
M  V30 15 H -1.563 3.418 1.51819 0
M  V30 16 H 0.729 5.58782 3.83104 0
M  V30 17 H 1.672 6.56266 2.65933 0
M  V30 18 H 2.08 4.83886 2.90714 0
M  V30 19 N 1.4781 -0.272755 1.55222 0
M  V30 20 C 2.7551 -1.02562 1.66555 0
M  V30 21 C 3.1351 -2.04282 0.532189 0
M  V30 22 O 2.4831 -2.23662 -0.467717 0
M  V30 23 C 2.6931 -1.6822 3.05782 0
M  V30 24 C 4.0411 -2.19373 3.63539 0
M  V30 25 O 5.0651 -1.78206 3.08417 0
M  V30 26 O 3.9241 -2.94883 4.60115 0
M  V30 27 H 1.0181 -0.475755 0.676451 0
M  V30 28 H 3.5641 -0.268593 1.67561 0
M  V30 29 H 2.3361 -0.945112 3.79715 0
M  V30 30 H 1.9591 -2.50609 3.08676 0
M  V30 31 N 2.9562 -1.48159 -0.537278 0
M  V30 32 C 4.3722 -1.34118 -0.865129 0
M  V30 33 C 4.5722 -0.346678 -1.98495 0
M  V30 34 O 3.6282 0.234715 -2.51407 0
M  V30 35 C 4.9412 -2.73963 -1.23954 0
M  V30 36 C 6.4892 -2.82397 -1.34984 0
M  V30 37 C 6.9642 -4.22928 -1.75772 0
M  V30 38 N 8.4552 -4.25566 -1.82887 0
M  V30 39 C 9.1902 -5.31235 -2.15817 0
M  V30 40 N 8.6862 -6.47189 -2.47222 0
M  V30 41 N 10.4792 -5.18624 -2.16761 0
M  V30 42 H 2.6302 -2.1144 0.201715 0
M  V30 43 H 4.8932 -0.947598 0.0275949 0
M  V30 44 H 4.5992 -3.48264 -0.490381 0
M  V30 45 H 4.4732 -3.0702 -2.19132 0
M  V30 46 H 6.8602 -2.08356 -2.08978 0
M  V30 47 H 6.9412 -2.5297 -0.379448 0
M  V30 48 H 6.5852 -4.97482 -1.02341 0
M  V30 49 H 6.5152 -4.49794 -2.73848 0
M  V30 50 H 9.0062 -3.41924 -1.60924 0
M  V30 51 H 9.3192 -7.23564 -2.71433 0
M  V30 52 H 7.6642 -6.50476 -2.44757 0
M  V30 53 H 10.8552 -4.27056 -1.91679 0
M  V30 54 H 11.0282 -6.01078 -2.42093 0
M  V30 55 N 4.4343 0.785586 -1.36625 0
M  V30 56 C 5.8503 1.08419 -1.17122 0
M  V30 57 C 6.0503 2.015 0.00208491 0
M  V30 58 O 5.1063 2.43551 0.666278 0
M  V30 59 C 6.4193 1.69498 -2.48377 0
M  V30 60 C 7.9673 1.81821 -2.54775 0
M  V30 61 C 8.4423 2.46315 -3.86126 0
M  V30 62 N 9.9333 2.53779 -3.87492 0
M  V30 63 C 10.6683 3.045 -4.85868 0
M  V30 64 N 10.1643 3.55499 -5.94637 0
M  V30 65 N 11.9573 3.03247 -4.73284 0
M  V30 66 H 4.1083 0.167264 -2.1174 0
M  V30 67 H 6.3713 0.13682 -0.938075 0
M  V30 68 H 6.0773 1.08571 -3.34522 0
M  V30 69 H 5.9513 2.6896 -2.64462 0
M  V30 70 H 8.3383 2.41884 -1.69045 0
M  V30 71 H 8.4193 0.811532 -2.42586 0
M  V30 72 H 8.0633 1.86895 -4.72263 0
M  V30 73 H 7.9933 3.47561 -3.95612 0
M  V30 74 H 10.4843 2.17672 -3.08913 0
M  V30 75 H 10.7973 3.92562 -6.65669 0
M  V30 76 H 9.1423 3.5364 -5.98301 0
M  V30 77 H 12.3333 2.62696 -3.87438 0
M  V30 78 H 12.5063 3.42467 -5.50109 0
M  V30 79 N 5.9124 1.20967 1.01018 0
M  V30 80 C 6.8454 0.907578 2.09376 0
M  V30 81 C 7.8234 -0.142868 1.61971 0
M  V30 82 O 9.0074 -0.0150391 1.88494 0
M  V30 83 C 6.1344 0.361791 3.36762 0
M  V30 84 C 5.1804 1.39423 4.03068 0
M  V30 85 S 6.0134 2.96159 4.4615 0
M  V30 86 C 7.1694 2.43173 5.7673 0
M  V30 87 H 7.4024 1.82519 2.34678 0
M  V30 88 H 4.9354 1.03884 1.14225 0
M  V30 89 H 6.8934 0.0534523 4.10465 0
M  V30 90 H 5.5544 -0.53443 3.0952 0
M  V30 91 H 4.7474 0.961853 4.94737 0
M  V30 92 H 4.3494 1.65038 3.35617 0
M  V30 93 H 6.6414 1.83335 6.52223 0
M  V30 94 H 7.5844 3.33264 6.24773 0
M  V30 95 H 7.9924 1.85069 5.33301 0
M  V30 96 N 7.3905 -1.2043 1.01659 0
M  V30 97 C 8.6365 -1.90356 0.716674 0
M  V30 98 C 8.9915 -1.77367 -0.745557 0
M  V30 99 O 8.2845 -1.1471 -1.53467 0
M  V30 100 C 8.4785 -3.40464 1.08714 0
M  V30 101 C 8.3075 -3.6806 2.58384 0
M  V30 102 C 7.0775 -3.86775 3.25167 0
M  V30 103 C 9.2755 -3.70623 3.56572 0
M  V30 104 N 7.2575 -4.01889 4.64067 0
M  V30 105 C 8.6285 -3.91161 4.81034 0
M  V30 106 C 10.6835 -3.53586 3.50544 0
M  V30 107 C 9.3865 -3.96428 6.00198 0
M  V30 108 C 11.4125 -3.60125 4.6911 0
M  V30 109 C 10.7745 -3.81135 5.92381 0
M  V30 110 H 6.8735 -0.716226 0.313918 0
M  V30 111 H 9.4575 -1.44815 1.30141 0
M  V30 112 H 7.6285 -3.84757 0.530745 0
M  V30 113 H 9.3605 -3.97863 0.740763 0
M  V30 114 H 6.1155 -3.85156 2.75594 0
M  V30 115 H 6.5395 -4.13323 5.36184 0
M  V30 116 H 11.1815 -3.36308 2.56235 0
M  V30 117 H 8.8995 -4.12502 6.94887 0
M  V30 118 H 12.4855 -3.4825 4.66062 0
M  V30 119 H 11.3655 -3.86054 6.82592 0
M  V30 120 N 8.8686 -0.792821 -1.36206 0
M  V30 121 C 10.1166 -0.366062 -1.98757 0
M  V30 122 C 10.4376 1.0668 -1.63231 0
M  V30 123 O 9.7076 1.73587 -0.907978 0
M  V30 124 H 8.2876 -0.132364 -0.735179 0
M  V30 125 H 10.9496 -1.01562 -1.66347 0
M  V30 126 H 10.0456 -0.460638 -3.08682 0
M  V30 127 N 10.3467 1.47872 -0.545128 0
M  V30 128 C 11.3097 2.28337 0.198717 0
M  V30 129 C 12.3097 1.36255 0.853888 0
M  V30 130 O 13.4997 1.59003 0.711606 0
M  V30 131 C 10.6317 3.15585 1.28915 0
M  V30 132 H 11.8247 2.95567 -0.507941 0
M  V30 133 H 9.3777 1.53362 -0.301616 0
M  V30 134 H 10.1127 2.53019 2.02859 0
M  V30 135 H 9.8977 3.83337 0.824309 0
M  V30 136 H 11.3877 3.76243 1.81194 0
M  V30 137 N 11.8248 0.280983 1.55075 0
M  V30 138 C 12.7748 -0.618585 2.19448 0
M  V30 139 C 13.7588 -1.11401 1.16098 0
M  V30 140 O 14.9508 -1.0581 1.41891 0
M  V30 141 C 12.0798 -1.79951 2.92357 0
M  V30 142 C 11.1658 -1.321 4.03002 0
M  V30 143 N 11.5568 -0.559044 5.02701 0
M  V30 144 C 9.8548 -1.60346 4.16179 0
M  V30 145 C 10.5558 -0.306722 5.80891 0
M  V30 146 N 9.5318 -0.880825 5.36416 0
M  V30 147 H 13.3338 -0.0286638 2.93886 0
M  V30 148 H 10.8478 0.0848104 1.62178 0
M  V30 149 H 12.8448 -2.45531 3.36927 0
M  V30 150 H 11.5048 -2.39333 2.19431 0
M  V30 151 H 12.5158 -0.205827 5.17491 0
M  V30 152 H 9.1928 -2.20621 3.54447 0
M  V30 153 H 10.5828 0.30391 6.71212 0
M  V30 154 N 13.3029 -1.57598 0.00835791 0
M  V30 155 C 14.5489 -1.91211 -0.675732 0
M  V30 156 C 14.8819 -0.883139 -1.72958 0
M  V30 157 O 14.1569 0.097016 -1.94258 0
M  V30 158 C 14.4399 -3.35379 -1.31123 0
M  V30 159 C 14.2929 -4.48999 -0.268356 0
M  V30 160 C 15.6119 -3.7912 -2.23508 0
M  V30 161 H 12.7309 -0.695374 -0.244179 0
M  V30 162 H 15.3729 -1.89901 0.0613655 0
M  V30 163 H 13.5229 -3.36626 -1.93946 0
M  V30 164 H 15.1949 -4.59887 0.360844 0
M  V30 165 H 13.4379 -4.31873 0.408482 0
M  V30 166 H 14.1089 -5.46851 -0.752218 0
M  V30 167 H 16.5849 -3.79477 -1.70693 0
M  V30 168 H 15.4609 -4.80729 -2.64936 0
M  V30 169 H 15.7219 -3.13455 -3.11766 0
M  V30 170 N 14.781 0.264519 -1.55364 0
M  V30 171 C 16.028 0.994986 -1.7637 0
M  V30 172 C 16.356 1.85976 -0.5695 0
M  V30 173 O 15.611 1.90509 0.44776 0
M  V30 174 C 15.91 1.9004 -3.02687 0
M  V30 175 C 15.576 1.19243 -4.34847 0
M  V30 176 C 14.238 0.996709 -4.70764 0
M  V30 177 C 16.59 0.689296 -5.16622 0
M  V30 178 C 13.918 0.285261 -5.86006 0
M  V30 179 C 16.27 -0.00860079 -6.32599 0
M  V30 180 C 14.934 -0.215963 -6.67151 0
M  V30 181 H 14.204 0.364091 -0.645383 0
M  V30 182 H 16.851 0.266543 -1.89636 0
M  V30 183 H 15.156 2.69533 -2.84357 0
M  V30 184 H 16.853 2.46695 -3.16137 0
M  V30 185 H 13.443 1.3549 -4.06621 0
M  V30 186 H 17.627 0.828108 -4.89342 0
M  V30 187 H 12.883 0.113961 -6.11294 0
M  V30 188 H 17.057 -0.406186 -6.95214 0
M  V30 189 H 14.684 -0.769217 -7.56298 0
M  V30 190 N 16.2591 1.48442 0.529413 0
M  V30 191 C 17.4991 1.58086 1.29569 0
M  V30 192 C 17.8631 0.249302 1.90375 0
M  V30 193 O 19.0641 0.220738 2.67892 0
M  V30 194 C 17.3351 2.68793 2.35552 0
M  V30 195 S 18.8941 2.98207 3.21898 0
M  V30 196 H 15.7121 0.557922 0.440732 0
M  V30 197 H 18.3141 1.85966 0.603059 0
M  V30 198 H 17.0181 3.64102 1.89363 0
M  V30 199 H 16.5491 2.42817 3.09522 0
M  V30 200 H 18.5641 2.37548 4.35644 0
M  V30 201 N 17.7372 -0.778329 1.37039 0
M  V30 202 C 18.9832 -1.53892 1.32079 0
M  V30 203 C 19.3162 -1.9396 -0.0965386 0
M  V30 204 O 18.5912 -1.63568 -1.05242 0
M  V30 205 C 18.8742 -2.80847 2.25382 0
M  V30 206 C 18.7272 -2.47076 3.75864 0
M  V30 207 C 20.0462 -3.82741 2.1725 0
M  V30 208 H 17.1652 -0.558303 0.48111 0
M  V30 209 H 19.8072 -0.893397 1.67685 0
M  V30 210 H 17.9572 -3.35931 1.95148 0
M  V30 211 H 19.6292 -1.97957 4.16666 0
M  V30 212 H 17.8722 -1.79863 3.94755 0
M  V30 213 H 18.5432 -3.37798 4.36574 0
M  V30 214 H 21.0192 -3.37133 2.43887 0
M  V30 215 H 19.8952 -4.69303 2.84686 0
M  V30 216 H 20.1562 -4.2652 1.16331 0
M  V30 217 N 19.2153 -1.21501 -1.00376 0
M  V30 218 C 20.1453 -0.999478 -2.11028 0
M  V30 219 C 21.1263 0.0759671 -1.6993 0
M  V30 220 O 22.3113 -0.0841106 -1.94018 0
M  V30 221 C 19.4413 -0.564709 -3.42678 0
M  V30 222 C 18.3953 -1.58486 -3.97576 0
M  V30 223 C 17.7213 -1.00628 -5.25146 0
M  V30 224 C 19.0213 -2.97204 -4.29496 0
M  V30 225 H 20.7153 -1.92495 -2.29317 0
M  V30 226 H 18.2613 -0.92693 -1.102 0
M  V30 227 H 20.2143 -0.401091 -4.19487 0
M  V30 228 H 18.9383 0.396411 -3.24185 0
M  V30 229 H 17.5973 -1.73606 -3.22888 0
M  V30 230 H 17.2453 -0.0368439 -5.02987 0
M  V30 231 H 16.9453 -1.68771 -5.62841 0
M  V30 232 H 18.4693 -0.854015 -6.04598 0
M  V30 233 H 19.8833 -2.8552 -4.97143 0
M  V30 234 H 18.2803 -3.62372 -4.78338 0
M  V30 235 H 19.3503 -3.47956 -3.3772 0
M  V30 236 N 20.6934 1.19889 -1.02296 0
M  V30 237 C 21.9184 1.9393 -0.735237 0
M  V30 238 C 22.3434 1.74639 0.698782 0
M  V30 239 O 21.7014 1.04481 1.48167 0
M  V30 240 C 21.7494 3.43916 -1.08417 0
M  V30 241 O 20.8534 4.11917 -0.199446 0
M  V30 242 H 20.1944 0.605645 -0.272196 0
M  V30 243 H 22.7244 1.52137 -1.36804 0
M  V30 244 H 22.7344 3.9456 -1.03856 0
M  V30 245 H 21.4094 3.5728 -2.12894 0
M  V30 246 H 19.9864 3.71666 -0.303136 0
M  V30 247 N 22.1715 0.800033 1.35784 0
M  V30 248 C 23.5825 0.439142 1.81462 0
M  V30 249 C 23.9335 -1.03813 1.66485 0
M  V30 250 O 23.0585 -1.80626 1.19177 0
M  V30 251 C 23.6535 0.790314 3.29453 0
M  V30 252 C 22.2125 0.482111 3.733 0
M  V30 253 C 21.3595 1.01938 2.57883 0
M  V30 254 H 24.3105 0.992254 1.23855 0
M  V30 255 H 24.3315 0.0853677 3.80404 0
M  V30 256 H 23.8435 1.86554 3.40322 0
M  V30 257 H 21.9445 -0.584652 3.67984 0
M  V30 258 H 22.0575 1.01015 4.6833 0
M  V30 259 H 20.4215 0.442043 2.50835 0
M  V30 260 H 21.2045 2.10059 2.71533 0
M  V30 261 N 23.6496 -1.47581 0.552962 0
M  V30 262 C 24.5796 -2.32762 -0.185451 0
M  V30 263 C 25.5606 -1.43527 -0.912905 0
M  V30 264 O 26.7456 -1.72388 -0.894201 0
M  V30 265 C 23.8756 -3.25219 -1.21859 0
M  V30 266 C 22.8296 -4.23661 -0.607864 0
M  V30 267 C 22.1556 -5.05413 -1.74533 0
M  V30 268 C 23.4556 -5.20481 0.435582 0
M  V30 269 H 25.1496 -2.94749 0.525684 0
M  V30 270 H 22.6956 -1.41738 0.254251 0
M  V30 271 H 24.6486 -3.8365 -1.7433 0
M  V30 272 H 23.3726 -2.61279 -1.95961 0
M  V30 273 H 22.0316 -3.66451 -0.104489 0
M  V30 274 H 21.6796 -4.3788 -2.47529 0
M  V30 275 H 21.3796 -5.72059 -1.34249 0
M  V30 276 H 22.9036 -5.66701 -2.27338 0
M  V30 277 H 24.3176 -5.733 -0.00290157 0
M  V30 278 H 22.7146 -5.95305 0.757067 0
M  V30 279 H 23.7846 -4.66217 1.33303 0
M  V30 280 N 25.1277 -0.289203 -1.54924 0
M  V30 281 C 26.5387 0.205791 -1.85562 0
M  V30 282 C 26.8897 1.54351 -1.2112 0
M  V30 283 O 26.0147 2.10435 -0.504601 0
M  V30 284 C 26.6097 0.380177 -3.3666 0
M  V30 285 C 25.1687 0.819395 -3.67373 0
M  V30 286 C 24.3157 -0.079159 -2.77187 0
M  V30 287 H 27.2667 -0.510577 -1.50262 0
M  V30 288 H 27.2877 1.21659 -3.60526 0
M  V30 289 H 26.7997 -0.593589 -3.83534 0
M  V30 290 H 24.9007 1.80413 -3.26009 0
M  V30 291 H 25.0137 0.646957 -4.74712 0
M  V30 292 H 23.3777 0.439565 -2.50878 0
M  V30 293 H 24.1607 -1.04906 -3.26878 0
M  V30 294 N 26.6058 1.57591 -0.0167156 0
M  V30 295 C 27.8338 1.95575 0.675128 0
M  V30 296 C 28.2488 0.892542 1.6637 0
M  V30 297 O 27.6058 -0.126912 1.82058 0
M  V30 298 C 27.6568 3.33608 1.39239 0
M  V30 299 O 27.3778 4.3585 0.443444 0
M  V30 300 C 28.8788 3.86151 2.17721 0
M  V30 301 H 26.0988 0.644423 0.186978 0
M  V30 302 H 28.6428 2.0437 -0.0728 0
M  V30 303 H 26.7978 3.2607 2.09182 0
M  V30 304 H 27.2118 5.158 0.951358 0
M  V30 305 H 28.6858 4.85114 2.63379 0
M  V30 306 H 29.1628 3.19738 3.01105 0
M  V30 307 H 29.7688 3.96918 1.52761 0
M  V30 308 N 28.0839 -0.256276 1.55502 0
M  V30 309 C 29.3299 -0.987079 1.77157 0
M  V30 310 C 29.6629 -1.85327 0.580315 0
M  V30 311 O 28.9379 -1.89874 -0.421686 0
M  V30 312 C 29.2209 -1.85553 3.08613 0
M  V30 313 C 29.0739 -1.01816 4.38125 0
M  V30 314 C 30.3929 -2.8397 3.36228 0
M  V30 315 H 27.5119 -0.357428 0.644526 0
M  V30 316 H 30.1539 -0.258239 1.88237 0
M  V30 317 H 28.3039 -2.47695 2.99298 0
M  V30 318 H 29.9759 -0.416159 4.59419 0
M  V30 319 H 28.2189 -0.322178 4.32602 0
M  V30 320 H 28.8899 -1.65939 5.26468 0
M  V30 321 H 31.3659 -2.31964 3.45445 0
M  V30 322 H 30.2419 -3.41864 4.29442 0
M  V30 323 H 30.5029 -3.59955 2.56681 0
M  V30 324 N 29.562 -1.4872 -0.521534 0
M  V30 325 C 30.492 -1.66771 -1.63431 0
M  V30 326 C 31.473 -0.516499 -1.62069 0
M  V30 327 O 32.658 -0.750013 -1.79132 0
M  V30 328 C 29.788 -1.71515 -3.01993 0
M  V30 329 C 28.742 -2.86222 -3.18216 0
M  V30 330 C 28.068 -2.76061 -4.57924 0
M  V30 331 C 29.368 -4.27419 -3.00184 0
M  V30 332 H 31.062 -2.59932 -1.48579 0
M  V30 333 H 28.608 -1.25089 -0.713358 0
M  V30 334 H 30.561 -1.82731 -3.7972 0
M  V30 335 H 29.285 -0.749393 -3.17886 0
M  V30 336 H 27.944 -2.74575 -2.42908 0
M  V30 337 H 27.592 -1.77437 -4.70665 0
M  V30 338 H 27.292 -3.53037 -4.69722 0
M  V30 339 H 28.816 -2.89256 -5.37739 0
M  V30 340 H 30.23 -4.39855 -3.67697 0
M  V30 341 H 28.627 -5.05458 -3.2347 0
M  V30 342 H 29.697 -4.43293 -1.96518 0
M  V30 343 N 31.0401 0.771051 -1.3745 0
M  V30 344 C 32.2881 1.52661 -1.32435 0
M  V30 345 C 32.6091 1.9479 0.0905024 0
M  V30 346 O 31.8791 1.66348 1.03466 0
M  V30 347 H 30.4591 0.566218 -0.487244 0
M  V30 348 H 33.1211 0.917636 -1.71946 0
M  V30 349 H 32.2171 2.42568 -1.96385 0
M  V30 350 N 32.5182 1.22032 0.997298 0
M  V30 351 C 33.4682 0.953838 2.07089 0
M  V30 352 C 34.4522 -0.0938669 1.60626 0
M  V30 353 O 35.6442 0.116078 1.76619 0
M  V30 354 C 32.7732 0.528726 3.39204 0
M  V30 355 C 31.8592 1.61092 3.92314 0
M  V30 356 N 32.2502 2.83768 4.18699 0
M  V30 357 C 30.5482 1.48158 4.20672 0
M  V30 358 C 31.2492 3.53715 4.61802 0
M  V30 359 N 30.2252 2.81174 4.65233 0
M  V30 360 H 34.0272 1.88577 2.25424 0
M  V30 361 H 31.5412 1.11719 1.17867 0
M  V30 362 H 33.5382 0.31915 4.15677 0
M  V30 363 H 32.1982 -0.39635 3.22272 0
M  V30 364 H 33.2092 3.20238 4.07023 0
M  V30 365 H 29.8862 0.622369 4.12835 0
M  V30 366 H 31.2762 4.58793 4.90875 0
M  V30 367 N 33.9963 -1.19345 1.0293 0
M  V30 368 C 34.9293 -2.21347 0.555029 0
M  V30 369 C 35.9073 -1.57492 -0.404351 0
M  V30 370 O 37.0913 -1.85741 -0.321352 0
M  V30 371 C 34.2183 -3.38163 -0.19064 0
M  V30 372 C 33.2643 -4.20375 0.720236 0
M  V30 373 S 34.0973 -4.88371 2.19668 0
M  V30 374 C 35.2533 -6.08597 1.46153 0
M  V30 375 H 35.4863 -2.61235 1.41929 0
M  V30 376 H 33.0193 -1.29598 0.839272 0
M  V30 377 H 34.9773 -4.05871 -0.614724 0
M  V30 378 H 33.6383 -2.9671 -1.03063 0
M  V30 379 H 32.8313 -5.03793 0.14455 0
M  V30 380 H 32.4333 -3.57987 1.08266 0
M  V30 381 H 34.7253 -6.73354 0.748357 0
M  V30 382 H 35.6683 -6.7065 2.27233 0
M  V30 383 H 36.0763 -5.56297 0.958842 0
M  V30 384 N 35.4744 -0.807222 -1.35358 0
M  V30 385 C 36.4244 -0.190706 -2.27201 0
M  V30 386 C 37.4084 0.635838 -1.47804 0
M  V30 387 O 38.6004 0.492991 -1.69996 0
M  V30 388 C 35.7294 0.659337 -3.36909 0
M  V30 389 C 34.8154 -0.176971 -4.23731 0
M  V30 390 N 35.2064 -1.24029 -4.90357 0
M  V30 391 C 33.5044 0.0412953 -4.45981 0
M  V30 392 C 34.2054 -1.75092 -5.54723 0
M  V30 393 N 33.1814 -1.05727 -5.33219 0
M  V30 394 H 36.9834 -1.0043 -2.76208 0
M  V30 395 H 34.4974 -0.648445 -1.48892 0
M  V30 396 H 36.4944 1.11706 -4.01656 0
M  V30 397 H 35.1544 1.47127 -2.89454 0
M  V30 398 H 36.1654 -1.62295 -4.91814 0
M  V30 399 H 32.8424 0.82232 -4.09322 0
M  V30 400 H 34.2324 -2.63963 -6.17878 0
M  V30 401 N 36.9525 1.47285 -0.560781 0
M  V30 402 C 38.3635 1.86258 -0.128343 0
M  V30 403 C 38.7145 1.46699 1.30284 0
M  V30 404 O 37.8395 0.871698 1.98067 0
M  V30 405 C 38.4345 3.38044 -0.22614 0
M  V30 406 C 36.9935 3.76096 0.151283 0
M  V30 407 C 36.1405 2.71335 -0.572084 0
M  V30 408 H 39.0915 1.38752 -0.770297 0
M  V30 409 H 39.1125 3.76441 0.554322 0
M  V30 410 H 38.6245 3.66806 -1.26788 0
M  V30 411 H 36.7255 3.52951 1.19399 0
M  V30 412 H 36.8385 4.78641 -0.209765 0
M  V30 413 H 35.2025 2.54696 -0.0147653 0
M  V30 414 H 35.9855 3.02938 -1.61504 0
M  V30 415 N 38.4306 0.297415 1.54768 0
M  V30 416 C 39.3406 -0.58983 2.27064 0
M  V30 417 C 40.3566 -1.15144 1.30453 0
M  V30 418 O 41.5326 -1.17699 1.63428 0
M  V30 419 C 38.5976 -1.74714 2.9946 0
M  V30 420 C 37.6586 -1.21997 4.11601 0
M  V30 421 C 36.8916 -2.32212 4.80535 0
M  V30 422 O 37.1146 -3.52036 4.48806 0
M  V30 423 O 36.0486 -1.99106 5.68014 0
M  V30 424 H 39.8746 -0.00348199 3.037 0
M  V30 425 H 37.4596 0.0640035 1.49263 0
M  V30 426 H 39.3416 -2.42147 3.44881 0
M  V30 427 H 38.0166 -2.32016 2.25722 0
M  V30 428 H 36.9236 -0.511458 3.70587 0
M  V30 429 H 38.2566 -0.692419 4.87305 0
M  V30 430 N 39.9087 -1.5758 0.0250728 0
M  V30 431 C 41.1487 -1.93497 -0.65865 0
M  V30 432 C 41.5127 -0.901409 -1.69525 0
M  V30 433 O 42.7137 -1.14664 -2.43116 0
M  V30 434 C 40.9847 -3.34352 -1.26267 0
M  V30 435 S 42.5437 -3.92191 -1.96803 0
M  V30 436 H 39.3617 -0.67709 -0.216958 0
M  V30 437 H 41.9637 -1.95303 0.0877692 0
M  V30 438 H 40.6677 -4.07395 -0.495741 0
M  V30 439 H 40.1987 -3.3598 -2.04648 0
M  V30 440 H 42.2137 -3.75298 -3.24601 0
M  V30 441 N 41.3868 0.248026 -1.55636 0
M  V30 442 C 42.6638 0.998988 -1.68165 0
M  V30 443 C 43.0438 2.03409 -0.564621 0
M  V30 444 O 42.3918 2.24378 0.432076 0
M  V30 445 C 42.6018 1.63334 -3.0842 0
M  V30 446 C 43.9498 2.13562 -3.66983 0
M  V30 447 O 44.9738 1.73277 -3.11213 0
M  V30 448 O 43.8328 2.87526 -4.64749 0
M  V30 449 H 40.9268 0.464933 -0.683935 0
M  V30 450 H 43.4728 0.241902 -1.67967 0
M  V30 451 H 42.2448 0.884583 -3.8117 0
M  V30 452 H 41.8678 2.45666 -3.12624 0
M  V30 453 N 42.8649 1.48995 0.513639 0
M  V30 454 C 44.1119 1.57843 1.26854 0
M  V30 455 C 44.4399 0.259501 1.92761 0
M  V30 456 O 43.6949 -0.75159 1.80692 0
M  V30 457 C 43.9939 2.67756 2.36731 0
M  V30 458 C 43.6599 4.09669 1.88368 0
M  V30 459 C 42.3219 4.48291 1.74896 0
M  V30 460 C 44.6739 4.98537 1.52021 0
M  V30 461 C 42.0019 5.73568 1.23438 0
M  V30 462 C 44.3539 6.24319 1.0202 0
M  V30 463 C 43.0179 6.61783 0.871778 0
M  V30 464 H 42.2879 0.577587 0.464192 0
M  V30 465 H 44.9349 1.82778 0.571366 0
M  V30 466 H 43.2399 2.36743 3.12185 0
M  V30 467 H 44.9369 2.71813 2.9482 0
M  V30 468 H 41.5269 3.79176 1.99808 0
M  V30 469 H 45.7109 4.69363 1.61281 0
M  V30 470 H 40.9669 6.01304 1.10648 0
M  V30 471 H 45.1409 6.92566 0.729722 0
M  V30 472 H 42.7679 7.5874 0.470852 0
M  V30 473 N 44.343 -0.763751 1.37857 0
M  V30 474 C 45.592 -1.51789 1.32827 0
M  V30 475 C 45.905 -1.95426 -0.0823719 0
M  V30 476 O 47.111 -2.70298 -0.255172 0
M  V30 477 C 45.567 -2.74133 2.33193 0
M  V30 478 C 45.175 -2.37562 3.79827 0
M  V30 479 C 46.919 -3.52054 2.37188 0
M  V30 480 C 44.826 -3.56456 4.71904 0
M  V30 481 H 43.756 -0.569896 0.493695 0
M  V30 482 H 46.407 -0.835822 1.63359 0
M  V30 483 H 44.789 -3.4427 1.9569 0
M  V30 484 H 45.963 -1.75157 4.26212 0
M  V30 485 H 44.278 -1.72798 3.78853 0
M  V30 486 H 46.875 -4.40437 3.03182 0
M  V30 487 H 47.218 -3.92486 1.38782 0
M  V30 488 H 47.751 -2.88921 2.7344 0
M  V30 489 H 44.49 -3.21099 5.71468 0
M  V30 490 H 44.01 -4.17938 4.30218 0
M  V30 491 H 45.689 -4.23168 4.89426 0
M  V30 492 N 45.8211 -1.22559 -0.990812 0
M  V30 493 C 47.0491 -1.07779 -1.76611 0
M  V30 494 C 47.4641 0.371513 -1.85109 0
M  V30 495 O 46.8211 1.25737 -1.32274 0
M  V30 496 C 46.8721 -1.68512 -3.19822 0
M  V30 497 O 46.5931 -3.07774 -3.1178 0
M  V30 498 C 48.0941 -1.59035 -4.13791 0
M  V30 499 H 45.3141 -0.377729 -0.554583 0
M  V30 500 H 47.8581 -1.62195 -1.24551 0
M  V30 501 H 46.0131 -1.18154 -3.68942 0
M  V30 502 H 46.4271 -3.37062 -4.01858 0
M  V30 503 H 47.9011 -2.0625 -5.1202 0
M  V30 504 H 48.3781 -0.547273 -4.35777 0
M  V30 505 H 48.9841 -2.08709 -3.70568 0
M  V30 506 N 47.2992 1.18797 -1.03562 0
M  V30 507 C 48.2312 2.21731 -0.580337 0
M  V30 508 C 49.2442 1.59051 0.347349 0
M  V30 509 O 50.4332 1.77929 0.142669 0
M  V30 510 C 47.5332 3.38459 0.172805 0
M  V30 511 C 46.7062 4.3072 -0.761496 0
M  V30 512 C 45.7652 5.26174 -0.0525547 0
M  V30 513 O 44.7912 5.65108 -0.681333 0
M  V30 514 N 45.9932 5.67624 1.21586 0
M  V30 515 H 48.7582 2.61417 -1.46565 0
M  V30 516 H 46.3192 1.33531 -0.915476 0
M  V30 517 H 48.3112 3.99335 0.656793 0
M  V30 518 H 46.8812 2.97507 0.959602 0
M  V30 519 H 46.1012 3.67525 -1.42544 0
M  V30 520 H 47.3892 4.89267 -1.39626 0
M  V30 521 H 46.7872 5.38038 1.74732 0
M  V30 522 H 45.3442 6.30721 1.64421 0
M  V30 523 N 48.7773 0.814389 1.34928 0
M  V30 524 C 49.7073 0.244827 2.32213 0
M  V30 525 C 50.6883 -0.634024 1.57842 0
M  V30 526 O 51.8733 -0.562676 1.8587 0
M  V30 527 C 49.0033 -0.601106 3.42058 0
M  V30 528 C 47.9573 0.179896 4.27622 0
M  V30 529 C 47.2833 -0.788237 5.28858 0
M  V30 530 C 48.5833 1.38329 5.03649 0
M  V30 531 H 50.2773 1.05763 2.80097 0
M  V30 532 H 47.8233 0.510029 1.34665 0
M  V30 533 H 49.7763 -1.00968 4.09125 0
M  V30 534 H 48.5003 -1.44688 2.92802 0
M  V30 535 H 47.1593 0.569739 3.62146 0
M  V30 536 H 46.8073 -1.62973 4.75866 0
M  V30 537 H 46.5073 -0.269942 5.8698 0
M  V30 538 H 48.0313 -1.19485 5.98795 0
M  V30 539 H 49.4453 1.04918 5.63618 0
M  V30 540 H 47.8423 1.83662 5.71304 0
M  V30 541 H 48.9123 2.16592 4.33839 0
M  V30 542 N 50.2554 -1.46986 0.568584 0
M  V30 543 C 51.6714 -1.57946 0.229189 0
M  V30 544 C 51.8714 -1.56567 -1.26843 0
M  V30 545 O 50.9274 -1.47511 -2.04931 0
M  V30 546 C 52.2404 -2.87963 0.865909 0
M  V30 547 C 53.7884 -3.01568 0.838188 0
M  V30 548 C 54.2634 -4.34301 1.45419 0
M  V30 549 N 55.7544 -4.40965 1.41788 0
M  V30 550 C 56.4894 -5.42256 1.86403 0
M  V30 551 N 55.9854 -6.50297 2.38926 0
M  V30 552 N 57.7784 -5.3337 1.77405 0
M  V30 553 H 49.9294 -1.46126 1.54146 0
M  V30 554 H 52.1924 -0.696156 0.643484 0
M  V30 555 H 51.8984 -2.94742 1.91886 0
M  V30 556 H 51.7724 -3.75423 0.365687 0
M  V30 557 H 54.1594 -2.94379 -0.206106 0
M  V30 558 H 54.2404 -2.1562 1.37629 0
M  V30 559 H 53.8844 -4.42247 2.49761 0
M  V30 560 H 53.8144 -5.19 0.891435 0
M  V30 561 H 56.3054 -3.63484 1.03381 0
M  V30 562 H 56.6184 -7.23777 2.70863 0
M  V30 563 H 54.9634 -6.51155 2.42944 0
M  V30 564 H 58.1544 -4.47865 1.3614 0
M  V30 565 H 58.3274 -6.12169 2.12492 0
M  V30 566 N 51.7335 -0.305618 -1.54608 0
M  V30 567 C 52.6435 0.57778 -2.27374 0
M  V30 568 C 53.6595 1.14451 -1.31061 0
M  V30 569 O 54.8355 1.16831 -1.6405 0
M  V30 570 C 51.9005 1.73123 -3.00382 0
M  V30 571 C 50.9615 1.19812 -4.12242 0
M  V30 572 C 50.1945 2.2966 -4.81759 0
M  V30 573 O 50.4175 3.49651 -4.50666 0
M  V30 574 O 49.3515 1.96091 -5.69062 0
M  V30 575 H 53.1775 -0.012624 -3.03697 0
M  V30 576 H 50.7625 -0.0719184 -1.49227 0
M  V30 577 H 52.6445 2.40315 -3.4616 0
M  V30 578 H 51.3195 2.30815 -2.26949 0
M  V30 579 H 50.2265 0.491798 -3.70853 0
M  V30 580 H 51.5595 0.666566 -4.87666 0
M  V30 581 N 53.2116 1.57565 -0.0334293 0
M  V30 582 C 54.4886 1.83282 0.683163 0
M  V30 583 C 54.8686 0.91823 1.90084 0
M  V30 584 O 54.2166 -0.025113 2.28486 0
M  V30 585 C 54.4266 3.32599 1.0573 0
M  V30 586 C 55.7746 3.99179 1.44711 0
M  V30 587 O 56.7986 3.3712 1.15015 0
M  V30 588 O 55.6576 5.08565 2.0006 0
M  V30 589 H 52.7516 0.755869 0.335546 0
M  V30 590 H 55.2976 1.69589 -0.0614402 0
M  V30 591 H 54.0696 3.90834 0.190828 0
M  V30 592 H 53.6926 3.51415 1.85993 0
M  V30 593 N 54.6897 -0.239769 1.55765 0
M  V30 594 C 55.5997 -1.31831 1.94056 0
M  V30 595 C 56.6157 -1.52275 0.841925 0
M  V30 596 O 57.7917 -1.65759 1.14394 0
M  V30 597 C 54.8567 -2.65156 2.23368 0
M  V30 598 C 53.9177 -2.53173 3.46701 0
M  V30 599 C 53.1507 -3.8014 3.74606 0
M  V30 600 O 53.3737 -4.82343 3.04469 0
M  V30 601 O 52.3077 -3.78344 4.68123 0
M  V30 602 H 56.1337 -1.02347 2.85935 0
M  V30 603 H 53.7187 -0.441123 1.42739 0
M  V30 604 H 55.6007 -3.43929 2.43497 0
M  V30 605 H 54.2757 -2.94358 1.34666 0
M  V30 606 H 53.1827 -1.72662 3.31871 0
M  V30 607 H 54.5157 -2.28915 4.35728 0
M  V30 608 N 56.1678 -1.49265 -0.50573 0
M  V30 609 C 57.3928 -1.62478 -1.28902 0
M  V30 610 C 57.8178 -0.294332 -1.85783 0
M  V30 611 O 57.1758 0.737412 -1.65626 0
M  V30 612 C 57.2238 -2.69268 -2.39848 0
M  V30 613 O 56.3278 -2.28113 -3.43567 0
M  V30 614 H 55.6688 -0.54399 -0.380751 0
M  V30 615 H 58.1988 -1.95421 -0.605952 0
M  V30 616 H 58.2088 -2.91291 -2.85681 0
M  V30 617 H 56.8838 -3.65846 -1.97812 0
M  V30 618 H 55.4608 -2.16401 -3.03685 0
M  V30 619 N 57.6459 0.756429 -1.3826 0
M  V30 620 C 58.6089 1.85176 -1.35065 0
M  V30 621 C 59.6089 1.58818 -0.251703 0
M  V30 622 O 60.7989 1.66615 -0.508433 0
M  V30 623 C 57.9309 3.22596 -1.10201 0
M  V30 624 H 59.1239 1.89417 -2.3251 0
M  V30 625 H 56.6769 0.95783 -1.23512 0
M  V30 626 H 57.4119 3.24025 -0.133504 0
M  V30 627 H 57.1969 3.43122 -1.89762 0
M  V30 628 H 58.6869 4.02673 -1.10654 0
M  V30 629 N 59.124 1.23083 0.984299 0
M  V30 630 C 60.364 1.07226 1.74017 0
M  V30 631 C 60.728 -0.384766 1.88105 0
M  V30 632 O 61.929 -0.664411 2.60459 0
M  V30 633 C 60.2 1.77348 3.10294 0
M  V30 634 S 61.759 1.77014 4.01512 0
M  V30 635 H 58.577 0.383819 0.598502 0
M  V30 636 H 61.179 1.56158 1.17622 0
M  V30 637 H 59.883 2.82506 2.97689 0
M  V30 638 H 59.414 1.28682 3.71759 0
M  V30 639 H 61.429 0.825956 4.89277 0
M  V30 640 N 60.6021 -1.18246 1.0419 0
M  V30 641 C 61.5321 -2.24127 0.654914 0
M  V30 642 C 62.5131 -1.66617 -0.342451 0
M  V30 643 O 63.6981 -1.92924 -0.222277 0
M  V30 644 C 60.8281 -3.47295 0.0183757 0
M  V30 645 C 59.7821 -4.17563 0.939414 0
M  V30 646 C 59.1081 -5.34438 0.167286 0
M  V30 647 C 60.4081 -4.70917 2.25908 0
M  V30 648 H 62.1021 -2.56753 1.54007 0
M  V30 649 H 59.6481 -1.23414 0.74195 0
M  V30 650 H 61.6011 -4.20572 -0.264082 0
M  V30 651 H 60.3251 -3.13907 -0.901664 0
M  V30 652 H 58.9841 -3.46186 1.20628 0
M  V30 653 H 58.6321 -4.97298 -0.7552 0
M  V30 654 H 58.3321 -5.82388 0.780901 0
M  V30 655 H 59.8561 -6.10504 -0.108125 0
M  V30 656 H 61.2701 -5.35882 2.03724 0
M  V30 657 H 59.6671 -5.29406 2.82577 0
M  V30 658 H 60.7371 -3.88272 2.9047 0
M  V30 659 N 62.0802 -0.821533 -1.34494 0
M  V30 660 C 63.0122 -0.199946 -2.28326 0
M  V30 661 C 64.0252 0.609377 -1.50965 0
M  V30 662 O 65.2142 0.439285 -1.7301 0
M  V30 663 C 62.3142 0.738431 -3.30757 0
M  V30 664 C 61.4872 -0.0277632 -4.37391 0
M  V30 665 C 60.5462 0.831332 -5.19591 0
M  V30 666 O 59.5722 0.276822 -5.68526 0
M  V30 667 N 60.7742 2.15132 -5.39165 0
M  V30 668 H 63.5392 -1.00609 -2.82308 0
M  V30 669 H 61.1002 -0.678366 -1.47003 0
M  V30 670 H 63.0922 1.31773 -3.82646 0
M  V30 671 H 61.6622 1.44533 -2.7718 0
M  V30 672 H 60.8822 -0.788359 -3.86236 0
M  V30 673 H 62.1702 -0.555251 -5.05761 0
M  V30 674 H 61.5682 2.62559 -5.01078 0
M  V30 675 H 60.1252 2.6795 -5.94177 0
M  V30 676 N 63.5583 1.46682 -0.576371 0
M  V30 677 C 64.5213 2.28707 0.150239 0
M  V30 678 C 65.5213 1.38035 0.824794 0
M  V30 679 O 66.7113 1.60476 0.677719 0
M  V30 680 C 63.8433 3.18248 1.22192 0
M  V30 681 H 65.0363 2.94423 -0.570521 0
M  V30 682 H 62.5893 1.52688 -0.334078 0
M  V30 683 H 63.3243 2.57265 1.97447 0
M  V30 684 H 63.1093 3.85 0.742812 0
M  V30 685 H 64.5993 3.80001 1.73172 0
M  V30 686 N 65.0364 0.313813 1.54444 0
M  V30 687 C 65.9994 -0.54379 2.22656 0
M  V30 688 C 66.9994 -1.05124 1.21678 0
M  V30 689 O 68.1894 -0.945225 1.46325 0
M  V30 690 C 65.3214 -1.75427 2.92298 0
M  V30 691 H 66.5144 0.0523599 2.99854 0
M  V30 692 H 64.0674 0.0647834 1.56166 0
M  V30 693 H 64.8024 -2.38991 2.19211 0
M  V30 694 H 64.5874 -1.39791 3.66334 0
M  V30 695 H 66.0774 -2.36325 3.44297 0
M  V30 696 N 66.5145 -1.57545 0.0417849 0
M  V30 697 C 67.4245 -2.14451 -0.951213 0
M  V30 698 C 68.4405 -1.09992 -1.34825 0
M  V30 699 O 69.6165 -1.42114 -1.42708 0
M  V30 700 C 66.6815 -2.67063 -2.21084 0
M  V30 701 C 65.7425 -3.86284 -1.87304 0
M  V30 702 C 64.9755 -4.36378 -3.07261 0
M  V30 703 O 65.1985 -3.85587 -4.20332 0
M  V30 704 O 64.1325 -5.28077 -2.88822 0
M  V30 705 H 67.9585 -2.99601 -0.497287 0
M  V30 706 H 65.5435 -1.48317 -0.179567 0
M  V30 707 H 67.4255 -3.00914 -2.95006 0
M  V30 708 H 66.1005 -1.84989 -2.65633 0
M  V30 709 H 65.0075 -3.57338 -1.10727 0
M  V30 710 H 66.3405 -4.6956 -1.47562 0
M  V30 711 N 67.9926 0.231505 -1.5589 0
M  V30 712 C 68.9026 1.308 -1.94752 0
M  V30 713 C 69.9186 1.51826 -0.849989 0
M  V30 714 O 71.0946 1.6515 -1.15271 0
M  V30 715 C 68.1596 2.63968 -2.24771 0
M  V30 716 C 67.2206 2.51331 -3.48039 0
M  V30 717 C 66.4536 3.78148 -3.76616 0
M  V30 718 O 66.6766 4.80722 -3.07022 0
M  V30 719 O 65.6106 3.75857 -4.70123 0
M  V30 720 H 69.4366 1.0083 -2.86474 0
M  V30 721 H 67.0216 0.433547 -1.42971 0
M  V30 722 H 68.9036 3.42633 -2.45318 0
M  V30 723 H 67.5786 2.9364 -1.36225 0
M  V30 724 H 66.4856 1.709 -3.32782 0
M  V30 725 H 67.8186 2.26601 -4.36936 0
M  V30 726 N 69.4707 1.49531 0.497807 0
M  V30 727 C 70.4037 1.61043 1.6168 0
M  V30 728 C 71.3817 0.459386 1.55976 0
M  V30 729 O 72.5657 0.675358 1.75986 0
M  V30 730 C 69.6927 1.56833 3.00202 0
M  V30 731 C 68.7387 2.77173 3.24156 0
M  V30 732 S 69.5717 4.38808 3.06933 0
M  V30 733 C 70.7277 4.37248 4.47845 0
M  V30 734 H 70.9607 2.55702 1.51671 0
M  V30 735 H 68.4937 1.38462 0.683201 0
M  V30 736 H 70.4517 1.55089 3.80076 0
M  V30 737 H 69.1127 0.634561 3.07623 0
M  V30 738 H 68.3057 2.70456 4.25288 0
M  V30 739 H 67.9077 2.76346 2.5201 0
M  V30 740 H 70.1997 4.09164 5.39992 0
M  V30 741 H 71.1427 5.38668 4.59612 0
M  V30 742 H 71.5507 3.67286 4.28674 0
M  V30 743 N 70.9488 -0.749086 1.3866 0
M  V30 744 C 72.3598 -1.32664 1.31366 0
M  V30 745 C 72.7108 -1.96179 -0.028484 0
M  V30 746 O 71.8358 -1.9537 -0.93057 0
M  V30 747 C 72.4308 -2.41219 2.37905 0
M  V30 748 C 70.9898 -2.94684 2.34176 0
M  V30 749 C 70.1368 -1.68108 2.20533 0
M  V30 750 H 73.0878 -0.547628 1.48952 0
M  V30 751 H 73.1088 -3.21268 2.0388 0
M  V30 752 H 72.6208 -1.94962 3.35576 0
M  V30 753 H 70.7218 -3.45258 1.401 0
M  V30 754 H 70.8348 -3.48757 3.2849 0
M  V30 755 H 69.1988 -1.91907 1.67463 0
M  V30 756 H 69.9818 -1.23923 3.20153 0
M  V30 757 N 72.4269 -1.23603 -0.977757 0
M  V30 758 C 73.3749 -1.01704 -2.09187 0
M  V30 759 C 74.3689 0.0448214 -1.69341 0
M  V30 760 O 75.5749 -0.108902 -1.7967 0
M  V30 761 H 71.9499 -0.311803 -0.684312 0
M  V30 762 H 73.9209 -1.96207 -2.24823 0
M  V30 763 C 72.6699 -0.627746 -3.41986 0
M  V30 764 H 71.9929 -1.43656 -3.73099 0
M  V30 765 H 73.4329 -0.514053 -4.20872 0
M  V30 766 C 71.8919 0.664238 -3.30287 0
M  V30 767 O 72.4219 1.71268 -3.6336 0
M  V30 768 N 70.6279 0.641156 -2.83439 0
M  V30 769 H 70.1749 -0.212376 -2.56723 0
M  V30 770 H 70.1329 1.50583 -2.75993 0
M  V30 771 N 73.905 1.17692 -1.04816 0
M  V30 772 C 75.133 1.91786 -0.776254 0
M  V30 773 C 75.548 1.76604 0.667577 0
M  V30 774 O 74.905 1.10067 1.45573 0
M  V30 775 C 74.956 3.42967 -1.14263 0
M  V30 776 O 74.677 3.57678 -2.52978 0
M  V30 777 C 76.178 4.34144 -0.896311 0
M  V30 778 H 73.398 0.608624 -0.282519 0
M  V30 779 H 75.942 1.49268 -1.39783 0
M  V30 780 H 74.097 3.83245 -0.565874 0
M  V30 781 H 74.511 4.51319 -2.67229 0
M  V30 782 H 75.985 5.38744 -1.20244 0
M  V30 783 H 76.462 4.38876 0.168636 0
M  V30 784 H 77.068 3.99574 -1.45672 0
M  V30 785 N 75.3831 0.828654 1.34056 0
M  V30 786 C 76.6111 0.43262 2.02326 0
M  V30 787 C 77.0261 -0.963147 1.62385 0
M  V30 788 O 76.3831 -1.62425 0.832121 0
M  V30 789 C 76.4341 0.53182 3.57567 0
M  V30 790 O 76.1551 1.87258 3.96063 0
M  V30 791 C 77.6561 0.131422 4.43105 0
M  V30 792 H 74.8761 0.172923 0.648335 0
M  V30 793 H 77.4201 1.1184 1.71208 0
M  V30 794 H 75.5751 -0.105938 3.87255 0
M  V30 795 H 75.9891 1.85087 4.90758 0
M  V30 796 H 77.4631 0.251904 5.51425 0
M  V30 797 H 77.9401 -0.925645 4.29335 0
M  V30 798 H 78.5461 0.743207 4.18756 0
M  V30 799 N 76.8612 -1.46375 0.584142 0
M  V30 800 C 77.7912 -2.33103 -0.136037 0
M  V30 801 C 78.7722 -1.45431 -0.882255 0
M  V30 802 O 79.9572 -1.74246 -0.857434 0
M  V30 803 C 77.0872 -3.27731 -1.14933 0
M  V30 804 C 76.0412 -4.24855 -0.517862 0
M  V30 805 C 75.3672 -5.09001 -1.63773 0
M  V30 806 C 76.6672 -5.19439 0.545886 0
M  V30 807 H 78.3612 -2.93568 0.588086 0
M  V30 808 H 75.9072 -1.41166 0.284259 0
M  V30 809 H 77.8602 -3.87261 -1.66153 0
M  V30 810 H 76.5842 -2.65377 -1.90375 0
M  V30 811 H 75.2432 -3.6659 -0.0267361 0
M  V30 812 H 74.8912 -4.43031 -2.38185 0
M  V30 813 H 74.5912 -5.74777 -1.22085 0
M  V30 814 H 76.1152 -5.71396 -2.15266 0
M  V30 815 H 77.5292 -5.73177 0.118704 0
M  V30 816 H 75.9262 -5.93566 0.88317 0
M  V30 817 H 76.9962 -4.63285 1.43162 0
M  V30 818 N 78.3393 -0.321999 -1.54275 0
M  V30 819 C 79.5873 0.280489 -2.00144 0
M  V30 820 C 79.9083 1.52777 -1.21178 0
M  V30 821 O 79.1783 1.9338 -0.313187 0
M  V30 822 H 77.7583 0.106632 -0.73935 0
M  V30 823 H 80.4203 -0.438184 -1.8991 0
M  V30 824 H 79.5163 0.537972 -3.07428 0
M  V30 825 N 79.8174 1.5752 -0.0501392 0
M  V30 826 C 81.0574 1.94521 0.627783 0
M  V30 827 C 81.4214 0.928265 1.68069 0
M  V30 828 O 82.6224 1.18517 2.41261 0
M  V30 829 C 80.8934 3.36319 1.20932 0
M  V30 830 S 82.4524 3.95272 1.90539 0
M  V30 831 H 79.2704 0.680456 0.206158 0
M  V30 832 H 81.8724 1.95139 -0.118829 0
M  V30 833 H 80.5764 4.08132 0.430865 0
M  V30 834 H 80.1074 3.39193 1.99277 0
M  V30 835 H 82.1224 3.80415 3.18589 0
M  V30 836 N 81.2955 -0.223234 1.56011 0
M  V30 837 C 82.7065 -0.790368 1.69145 0
M  V30 838 C 83.0575 -1.85055 0.651845 0
M  V30 839 O 82.1825 -2.15498 -0.197359 0
M  V30 840 C 82.7775 -1.4404 3.06656 0
M  V30 841 C 81.3365 -1.95494 3.2165 0
M  V30 842 C 80.4835 -0.814506 2.65068 0
M  V30 843 H 83.4345 0.00139011 1.587 0
M  V30 844 H 83.4555 -2.30916 3.0242 0
M  V30 845 H 82.9675 -0.668543 3.82298 0
M  V30 846 H 81.0685 -2.75487 2.50874 0
M  V30 847 H 81.1815 -2.13607 4.28846 0
M  V30 848 H 79.5455 -1.22137 2.23505 0
M  V30 849 H 80.3285 -0.0553515 3.43255 0
M  V30 850 N 82.7736 -1.49793 -0.48987 0
M  V30 851 C 83.7366 -1.66752 -1.57246 0
M  V30 852 C 84.7366 -0.538867 -1.51502 0
M  V30 853 O 85.9266 -0.805545 -1.54456 0
M  V30 854 C 83.0586 -1.67528 -2.96896 0
M  V30 855 H 84.2516 -2.63321 -1.43534 0
M  V30 856 H 81.8046 -1.38992 -0.714914 0
M  V30 857 H 82.5396 -0.725837 -3.16073 0
M  V30 858 H 82.3246 -2.49504 -3.02473 0
M  V30 859 H 83.8146 -1.82667 -3.7553 0
M  V30 860 N 84.2517 0.741722 -1.39055 0
M  V30 861 C 85.4797 1.53098 -1.39171 0
M  V30 862 C 85.8947 1.88794 0.0155099 0
M  V30 863 O 85.2517 1.53626 0.985159 0
M  V30 864 C 85.3027 2.82274 -2.2584 0
M  V30 865 O 85.0237 2.48097 -3.61081 0
M  V30 866 C 86.5247 3.76343 -2.34266 0
M  V30 867 H 83.7447 0.473335 -0.4756 0
M  V30 868 H 86.2887 0.917045 -1.82785 0
M  V30 869 H 84.4437 3.40015 -1.85656 0
M  V30 870 H 84.8577 3.31029 -4.06842 0
M  V30 871 H 86.3317 4.63898 -2.9917 0
M  V30 872 H 86.8087 4.17619 -1.35982 0
M  V30 873 H 87.4147 3.24523 -2.74891 0
M  V30 874 N 85.7298 1.2412 0.971189 0
M  V30 875 C 86.9758 1.09048 1.71698 0
M  V30 876 C 87.3308 -0.367442 1.88859 0
M  V30 877 O 86.6238 -1.26792 1.43646 0
M  V30 878 C 86.8178 1.75983 3.11071 0
M  V30 879 C 86.6468 3.28133 3.07504 0
M  V30 880 C 85.4168 3.97331 3.1218 0
M  V30 881 C 87.6148 4.24773 2.89952 0
M  V30 882 N 85.5968 5.3639 2.98596 0
M  V30 883 C 86.9678 5.50806 2.84627 0
M  V30 884 C 89.0228 4.15392 2.74506 0
M  V30 885 C 87.7258 6.68533 2.65437 0
M  V30 886 C 89.7518 5.32793 2.56682 0
M  V30 887 C 89.1138 6.57756 2.52063 0
M  V30 888 H 85.2128 0.453632 0.636979 0
M  V30 889 H 87.7968 1.56983 1.15171 0
M  V30 890 H 85.9678 1.30566 3.65796 0
M  V30 891 H 87.6998 1.53803 3.74335 0
M  V30 892 H 84.4548 3.48473 3.20724 0
M  V30 893 H 84.8788 6.09321 2.95054 0
M  V30 894 H 89.5208 3.19543 2.76861 0
M  V30 895 H 87.2388 7.64509 2.61825 0
M  V30 896 H 90.8248 5.27383 2.4568 0
M  V30 897 H 89.7048 7.4707 2.38446 0
M  V30 898 N 87.2079 -1.17134 1.05439 0
M  V30 899 C 88.4849 -1.83411 0.679699 0
M  V30 900 C 88.8649 -1.9368 -0.839726 0
M  V30 901 O 88.2129 -1.47325 -1.74664 0
M  V30 902 C 88.4229 -3.20918 1.37159 0
M  V30 903 C 89.7709 -3.96796 1.51123 0
M  V30 904 O 90.7949 -3.30406 1.3308 0
M  V30 905 O 89.6539 -5.15778 1.80651 0
M  V30 906 H 86.7479 -0.79154 0.239569 0
M  V30 907 H 89.2939 -1.24411 1.15413 0
M  V30 908 H 88.0659 -3.08428 2.40807 0
M  V30 909 H 87.6889 -3.87587 0.886674 0
M  V30 910 N 88.686 -0.835752 -1.33615 0
M  V30 911 C 89.934 -0.429109 -1.97492 0
M  V30 912 C 90.255 1.01433 -1.66543 0
M  V30 913 O 89.525 1.70611 -0.962744 0
M  V30 914 H 88.105 -0.155686 -0.730596 0
M  V30 915 H 90.767 -1.06802 -1.63031 0
M  V30 916 H 89.863 -0.55861 -3.0706 0
M  V30 917 N 90.1641 1.46063 -0.591896 0
M  V30 918 C 91.0941 2.33172 0.123673 0
M  V30 919 C 92.0751 1.45897 0.87453 0
M  V30 920 O 93.2601 1.74698 0.848181 0
M  V30 921 C 90.3901 3.28336 1.13194 0
M  V30 922 C 89.3441 4.25124 0.495324 0
M  V30 923 C 88.6701 5.09863 1.61071 0
M  V30 924 C 89.9701 5.19143 -0.573425 0
M  V30 925 H 91.6641 2.93252 -0.603646 0
M  V30 926 H 89.2101 1.41014 -0.291741 0
M  V30 927 H 91.1631 3.88137 1.64097 0
M  V30 928 H 89.8871 2.66383 1.88965 0
M  V30 929 H 88.5461 3.66599 0.00729452 0
M  V30 930 H 88.1941 4.44288 2.35832 0
M  V30 931 H 87.8941 5.75417 1.19035 0
M  V30 932 H 89.4181 5.72529 2.12233 0
M  V30 933 H 90.8321 5.73106 -0.1491 0
M  V30 934 H 89.2291 5.93089 -0.914636 0
M  V30 935 H 90.2991 4.62519 -1.45617 0
M  V30 936 N 91.6422 0.330177 1.54103 0
M  V30 937 C 92.5722 -0.525353 2.27513 0
M  V30 938 C 93.5532 -1.11383 1.2856 0
M  V30 939 O 94.7382 -1.13773 1.57383 0
M  V30 940 C 91.8682 -1.6831 3.03791 0
M  V30 941 C 90.8222 -1.2236 4.10137 0
M  V30 942 C 90.1482 -2.46882 4.74293 0
M  V30 943 C 91.4482 -0.333697 5.21233 0
M  V30 944 H 93.1422 0.087013 2.99274 0
M  V30 945 H 90.6882 0.0432893 1.43935 0
M  V30 946 H 92.6412 -2.28795 3.5388 0
M  V30 947 H 91.3652 -2.32216 2.29659 0
M  V30 948 H 90.0242 -0.64165 3.60941 0
M  V30 949 H 89.6722 -3.09165 3.96769 0
M  V30 950 H 89.3722 -2.16825 5.46133 0
M  V30 951 H 90.8962 -3.08117 5.27159 0
M  V30 952 H 92.3102 -0.845013 5.67038 0
M  V30 953 H 90.7072 -0.125612 5.99969 0
M  V30 954 H 91.7772 0.633724 4.80741 0
M  V30 955 N 93.1203 -1.57491 0.0584922 0
M  V30 956 C 94.3603 -1.94851 -0.617458 0
M  V30 957 C 94.7243 -0.937165 -1.67575 0
M  V30 958 O 95.9253 -1.19795 -2.40629 0
M  V30 959 C 94.1963 -3.36955 -1.19147 0
M  V30 960 S 95.7553 -3.96277 -1.8844 0
M  V30 961 H 92.5733 -0.681539 -0.202547 0
M  V30 962 H 95.1753 -1.95073 0.129176 0
M  V30 963 H 93.8793 -4.08355 -0.409215 0
M  V30 964 H 93.4103 -3.40245 -1.97476 0
M  V30 965 H 95.4253 -3.82099 -3.16568 0
M  V30 966 N 94.5984 0.214957 -1.56127 0
M  V30 967 C 95.8444 0.935325 -1.80619 0
M  V30 968 C 96.1994 1.81706 -0.632507 0
M  V30 969 O 95.4924 1.87931 0.373182 0
M  V30 970 C 95.6864 1.80314 -3.0858 0
M  V30 971 C 95.5154 1.00691 -4.38282 0
M  V30 972 C 94.2854 0.699211 -5.00439 0
M  V30 973 C 96.4834 0.369057 -5.12974 0
M  V30 974 N 94.4654 -0.117734 -6.13787 0
M  V30 975 C 95.8364 -0.310981 -6.1922 0
M  V30 976 C 97.8914 0.282759 -4.97096 0
M  V30 977 C 96.5944 -1.06907 -7.11311 0
M  V30 978 C 98.6204 -0.461881 -5.89594 0
M  V30 979 C 97.9824 -1.13044 -6.9527 0
M  V30 980 H 94.0814 0.322307 -0.71249 0
M  V30 981 H 96.6654 0.205649 -1.93611 0
M  V30 982 H 94.8364 2.50458 -2.96859 0
M  V30 983 H 96.5684 2.46148 -3.21237 0
M  V30 984 H 93.3234 1.01884 -4.62511 0
M  V30 985 H 93.7474 -0.515235 -6.75037 0
M  V30 986 H 98.3894 0.785292 -4.15443 0
M  V30 987 H 96.1074 -1.5831 -7.92442 0
M  V30 988 H 99.6934 -0.529746 -5.79383 0
M  V30 989 H 98.5734 -1.69742 -7.65609 0
M  V30 990 N 96.0765 1.50051 0.48192 0
M  V30 991 C 97.4875 1.5348 1.06305 0
M  V30 992 C 97.8385 0.331997 1.93371 0
M  V30 993 O 96.9635 -0.556256 2.09129 0
M  V30 994 C 97.5585 2.7813 1.93466 0
M  V30 995 C 96.1175 2.84275 2.46707 0
M  V30 996 C 95.2645 2.47637 1.24785 0
M  V30 997 H 98.2155 1.56472 0.264995 0
M  V30 998 H 98.2365 2.59372 2.78399 0
M  V30 999 H 97.7485 3.65654 1.30072 0
M  V30 1000 H 95.8495 2.01077 3.13686 0
M  V30 1001 H 95.9625 3.8691 2.82555 0
M  V30 1002 H 94.3265 1.99835 1.57918 0
M  V30 1003 H 95.1095 3.37457 0.630694 0
M  V30 1004 N 97.5546 -0.734337 1.39446 0
M  V30 1005 C 98.7826 -1.52358 1.39981 0
M  V30 1006 C 99.1976 -1.88799 -0.0054975 0
M  V30 1007 O 98.5546 -1.54146 -0.976998 0
M  V30 1008 C 98.6056 -2.81072 2.27333 0
M  V30 1009 O 98.3266 -2.46178 3.62392 0
M  V30 1010 C 99.8276 -3.75096 2.36259 0
M  V30 1011 H 97.0476 -0.470806 0.478103 0
M  V30 1012 H 99.5916 -0.907339 1.83269 0
M  V30 1013 H 97.7466 -3.39026 1.87457 0
M  V30 1014 H 98.1606 -3.28866 4.08592 0
M  V30 1015 H 99.6346 -4.62305 3.01626 0
M  V30 1016 H 100.112 -4.16892 1.38194 0
M  V30 1017 H 100.718 -3.23061 2.76608 0
M  V30 1018 N 99.0327 -1.24633 -0.964593 0
M  V30 1019 C 99.9957 -1.0424 -2.04124 0
M  V30 1020 C 100.996 0.00137563 -1.608 0
M  V30 1021 O 102.186 -0.239883 -1.7254 0
M  V30 1022 C 99.3177 -0.580588 -3.3592 0
M  V30 1023 H 100.511 -1.99803 -2.23649 0
M  V30 1024 H 98.0637 -1.06899 -1.14027 0
M  V30 1025 H 98.7987 0.3781 -3.22088 0
M  V30 1026 H 98.5837 -1.33398 -3.6871 0
M  V30 1027 H 100.074 -0.459034 -4.15069 0
M  V30 1028 N 100.511 1.16574 -1.06058 0
M  V30 1029 C 101.759 1.86677 -0.77434 0
M  V30 1030 C 102.08 1.81959 0.701147 0
M  V30 1031 O 101.35 1.2515 1.50713 0
M  V30 1032 H 99.9298 0.691134 -0.283449 0
M  V30 1033 H 102.592 1.41378 -1.34158 0
M  V30 1034 H 101.688 2.92181 -1.09711 0
M  V30 1035 N 101.989 0.842826 1.3317 0
M  V30 1036 C 103.214 0.453129 2.02389 0
M  V30 1037 C 103.639 -0.939105 1.6298 0
M  V30 1038 O 102.997 -1.61472 0.8244 0
M  V30 1039 C 103.045 0.586094 3.55805 0
M  V30 1040 O 102.149 -0.386029 4.10589 0
M  V30 1041 H 101.49 0.183664 0.638094 0
M  V30 1042 H 104.02 1.13875 1.69981 0
M  V30 1043 H 104.03 0.469209 4.05293 0
M  V30 1044 H 102.705 1.6014 3.83833 0
M  V30 1045 H 101.282 -0.226371 3.72212 0
M  V30 1046 N 103.467 -1.45747 0.599634 0
M  V30 1047 C 104.715 -2.01893 0.0915472 0
M  V30 1048 C 105.036 -1.47155 -1.27946 0
M  V30 1049 O 104.306 -0.66273 -1.84349 0
M  V30 1050 H 102.886 -0.746363 0.0308524 0
M  V30 1051 H 105.548 -1.78645 0.779237 0
M  V30 1052 H 104.644 -3.1208 0.0353086 0
M  V30 1053 N 104.945 -0.338344 -1.53925 0
M  V30 1054 C 105.855 0.529421 -2.28548 0
M  V30 1055 C 106.871 1.11645 -1.3346 0
M  V30 1056 O 108.047 1.13325 -1.66492 0
M  V30 1057 C 105.112 1.66713 -3.03987 0
M  V30 1058 C 104.173 1.11041 -4.14691 0
M  V30 1059 C 103.406 2.19389 -4.86522 0
M  V30 1060 O 103.629 3.40013 -4.57982 0
M  V30 1061 O 102.563 1.83976 -5.73094 0
M  V30 1062 H 106.389 -0.0770399 -3.03602 0
M  V30 1063 H 103.974 -0.103555 -1.49041 0
M  V30 1064 H 105.856 2.32918 -3.5118 0
M  V30 1065 H 104.531 2.25949 -2.31794 0
M  V30 1066 H 103.438 0.413024 -3.71813 0
M  V30 1067 H 104.771 0.562975 -4.8897 0
M  V30 1068 N 106.423 1.57458 -0.0668435 0
M  V30 1069 C 107.669 1.94401 0.598316 0
M  V30 1070 C 108.024 0.946335 1.67518 0
M  V30 1071 O 107.317 -0.0321442 1.91573 0
M  V30 1072 C 107.511 3.35784 1.22409 0
M  V30 1073 C 107.34 4.49212 0.209367 0
M  V30 1074 C 106.11 5.04887 -0.204218 0
M  V30 1075 C 108.308 5.11335 -0.551431 0
M  V30 1076 N 106.29 6.01854 -1.21016 0
M  V30 1077 C 107.661 6.03754 -1.41 0
M  V30 1078 C 109.716 4.94173 -0.608038 0
M  V30 1079 C 108.419 6.80854 -2.32013 0
M  V30 1080 C 110.445 5.71912 -1.50566 0
M  V30 1081 C 109.807 6.63976 -2.35191 0
M  V30 1082 H 105.906 0.758538 0.190114 0
M  V30 1083 H 108.49 1.94175 -0.142832 0
M  V30 1084 H 106.661 3.36757 1.93518 0
M  V30 1085 H 108.393 3.59976 1.84931 0
M  V30 1086 H 105.148 4.73266 0.177908 0
M  V30 1087 H 105.572 6.55035 -1.71049 0
M  V30 1088 H 110.214 4.22788 0.032022 0
M  V30 1089 H 107.932 7.5152 -2.97057 0
M  V30 1090 H 111.518 5.60656 -1.55423 0
M  V30 1091 H 110.398 7.2308 -3.03522 0
M  V30 1092 N 107.901 -0.206675 1.56239 0
M  V30 1093 C 109.147 -0.930218 1.80208 0
M  V30 1094 C 109.48 -1.83387 0.638981 0
M  V30 1095 O 108.755 -1.91119 -0.361066 0
M  V30 1096 C 109.038 -1.75641 3.1436 0
M  V30 1097 C 108.891 -0.878257 4.41142 0
M  V30 1098 C 110.21 -2.73129 3.45092 0
M  V30 1099 H 107.329 -0.336742 0.655571 0
M  V30 1100 H 109.971 -0.198222 1.88963 0
M  V30 1101 H 108.121 -2.38048 3.07027 0
M  V30 1102 H 109.793 -0.269787 4.6051 0
M  V30 1103 H 108.036 -0.184385 4.33408 0
M  V30 1104 H 108.707 -1.49106 5.3148 0
M  V30 1105 H 111.183 -2.20856 3.52649 0
M  V30 1106 H 110.059 -3.28028 4.40101 0
M  V30 1107 H 110.32 -3.51606 2.68003 0
M  V30 1108 N 109.379 -1.50304 -0.473955 0
M  V30 1109 C 110.607 -1.64902 -1.24959 0
M  V30 1110 C 111.022 -0.331198 -1.85872 0
M  V30 1111 O 110.379 0.68652 -1.69095 0
M  V30 1112 C 110.43 -2.73803 -2.36038 0
M  V30 1113 O 110.151 -4.00477 -1.77624 0
M  V30 1114 C 111.652 -2.99349 -3.26964 0
M  V30 1115 H 108.872 -0.554383 -0.378022 0
M  V30 1116 H 111.416 -1.9651 -0.566054 0
M  V30 1117 H 109.571 -2.44898 -3.00173 0
M  V30 1118 H 109.985 -4.60678 -2.5075 0
M  V30 1119 H 111.459 -3.79217 -4.01121 0
M  V30 1120 H 111.936 -2.10307 -3.85574 0
M  V30 1121 H 112.542 -3.29774 -2.68569 0
M  V30 1122 N 110.857 0.726932 -1.39834 0
M  V30 1123 C 111.787 1.85405 -1.41941 0
M  V30 1124 C 112.768 1.67751 -0.281728 0
M  V30 1125 O 113.953 1.8795 -0.488717 0
M  V30 1126 C 111.083 3.23243 -1.2701 0
M  V30 1127 C 110.037 3.55549 -2.38262 0
M  V30 1128 C 109.363 4.9241 -2.08415 0
M  V30 1129 C 110.663 3.577 -3.80589 0
M  V30 1130 H 112.357 1.83899 -2.36266 0
M  V30 1131 H 109.903 0.883349 -1.13723 0
M  V30 1132 H 111.856 4.01775 -1.27103 0
M  V30 1133 H 110.58 3.25296 -0.291564 0
M  V30 1134 H 109.239 2.79351 -2.37399 0
M  V30 1135 H 108.887 4.91052 -1.0898 0
M  V30 1136 H 108.587 5.14992 -2.82943 0
M  V30 1137 H 110.111 5.73289 -2.10171 0
M  V30 1138 H 111.525 4.26293 -3.83337 0
M  V30 1139 H 109.922 3.91804 -4.54543 0
M  V30 1140 H 110.992 2.57328 -4.10987 0
M  V30 1141 N 112.336 1.25143 0.95797 0
M  V30 1142 C 113.747 1.08851 1.51685 0
M  V30 1143 C 114.098 -0.33687 1.93286 0
M  V30 1144 O 113.223 -1.22644 1.7829 0
M  V30 1145 C 113.818 1.96978 2.75654 0
M  V30 1146 C 112.377 1.84881 3.27866 0
M  V30 1147 C 111.524 1.91329 2.0072 0
M  V30 1148 H 114.475 1.38478 0.77522 0
M  V30 1149 H 114.496 1.5078 3.4935 0
M  V30 1150 H 114.008 3.00712 2.45345 0
M  V30 1151 H 112.109 0.840182 3.63004 0
M  V30 1152 H 112.222 2.6951 3.96107 0
M  V30 1153 H 110.586 1.35174 2.15871 0
M  V30 1154 H 111.369 2.96661 1.72764 0
M  V30 1155 N 113.814 -1.1601 1.06675 0
M  V30 1156 C 115.054 -1.88304 0.795037 0
M  V30 1157 C 115.418 -1.80062 -0.666466 0
M  V30 1158 O 116.619 -2.47319 -1.05293 0
M  V30 1159 C 114.89 -3.33664 1.28076 0
M  V30 1160 S 116.449 -4.23768 1.13868 0
M  V30 1161 H 113.267 -0.649928 0.288296 0
M  V30 1162 H 115.869 -1.4001 1.36445 0
M  V30 1163 H 114.573 -3.37203 2.33927 0
M  V30 1164 H 114.104 -3.87009 0.706253 0
M  V30 1165 H 116.119 -4.96148 0.0719668 0
M  V30 1166 N 115.292 -0.849877 -1.32721 0
M  V30 1167 C 116.703 -0.506188 -1.79707 0
M  V30 1168 C 117.054 0.975627 -1.70223 0
M  V30 1169 O 116.179 1.76078 -1.25799 0
M  V30 1170 C 116.774 -0.912044 -3.26293 0
M  V30 1171 C 115.333 -0.620326 -3.71253 0
M  V30 1172 C 114.48 -1.11439 -2.53922 0
M  V30 1173 H 117.431 -1.03754 -1.20087 0
M  V30 1174 H 117.452 -0.226493 -3.79825 0
M  V30 1175 H 116.964 -1.99057 -3.33164 0
M  V30 1176 H 115.065 0.447674 -3.69901 0
M  V30 1177 H 115.178 -1.18327 -4.64258 0
M  V30 1178 H 113.542 -0.534834 -2.49021 0
M  V30 1179 H 114.325 -2.19992 -2.6355 0
M  V30 1180 N 116.77 1.45427 -0.607355 0
M  V30 1181 C 118.047 1.9557 -0.0344566 0
M  V30 1182 C 118.427 1.54979 1.43334 0
M  V30 1183 O 117.775 0.812241 2.13576 0
M  V30 1184 C 117.985 3.48226 -0.232321 0
M  V30 1185 C 119.333 4.2445 -0.113001 0
M  V30 1186 O 120.357 3.55829 -0.162431 0
M  V30 1187 O 119.216 5.465 0.00209442 0
M  V30 1188 H 116.31 0.826222 0.0358667 0
M  V30 1189 H 118.856 1.55594 -0.6774 0
M  V30 1190 H 117.628 3.70739 -1.25174 0
M  V30 1191 H 117.251 3.95092 0.445896 0
M  V30 1192 N 118.248 0.346503 1.53744 0
M  V30 1193 C 119.495 -0.249104 2.00962 0
M  V30 1194 C 119.823 -1.5032 1.23426 0
M  V30 1195 O 119.078 -1.93217 0.310761 0
M  V30 1196 C 119.377 -0.605809 3.52228 0
M  V30 1197 C 119.043 0.551747 4.47512 0
M  V30 1198 C 117.705 0.86941 4.73281 0
M  V30 1199 C 120.057 1.32818 5.03993 0
M  V30 1200 C 117.385 1.96582 5.52786 0
M  V30 1201 C 119.737 2.41486 5.84694 0
M  V30 1202 C 118.401 2.73808 6.08757 0
M  V30 1203 H 117.671 -0.0911538 0.735372 0
M  V30 1204 H 120.318 0.475027 1.85515 0
M  V30 1205 H 118.623 -1.4107 3.65522 0
M  V30 1206 H 120.32 -1.07858 3.86222 0
M  V30 1207 H 116.91 0.294102 4.2759 0
M  V30 1208 H 121.094 1.09602 4.84047 0
M  V30 1209 H 116.35 2.22045 5.69654 0
M  V30 1210 H 120.524 3.02078 6.27473 0
M  V30 1211 H 118.151 3.58892 6.7015 0
M  V30 1212 N 119.726 -1.57421 0.075193 0
M  V30 1213 C 120.973 -1.93618 -0.593146 0
M  V30 1214 C 121.301 -0.955484 -1.69413 0
M  V30 1215 O 120.556 0.0283251 -1.9568 0
M  V30 1216 C 120.855 -3.36428 -1.20626 0
M  V30 1217 C 120.521 -4.50307 -0.231078 0
M  V30 1218 C 119.183 -4.81186 0.0371936 0
M  V30 1219 C 121.535 -5.19374 0.435888 0
M  V30 1220 C 118.863 -5.78466 0.979461 0
M  V30 1221 C 121.215 -6.17665 1.3665 0
M  V30 1222 C 119.879 -6.46958 1.6432 0
M  V30 1223 H 119.149 -0.708499 -0.217047 0
M  V30 1224 H 121.796 -1.90937 0.146793 0
M  V30 1225 H 120.101 -3.35592 -2.02201 0
M  V30 1226 H 121.798 -3.61727 -1.73073 0
M  V30 1227 H 118.388 -4.26227 -0.450357 0
M  V30 1228 H 122.572 -4.95711 0.241748 0
M  V30 1229 H 117.828 -5.99487 1.20106 0
M  V30 1230 H 122.002 -6.70284 1.88924 0
M  V30 1231 H 119.629 -7.2215 2.37494 0
M  V30 1232 N 121.204 0.198386 -1.56346 0
M  V30 1233 C 122.429 0.939682 -1.84891 0
M  V30 1234 C 122.854 1.76202 -0.658369 0
M  V30 1235 O 122.212 1.76993 0.392851 0
M  V30 1236 C 122.26 1.81428 -3.11635 0
M  V30 1237 O 121.364 2.91265 -2.91956 0
M  V30 1238 H 120.705 0.264807 -0.608912 0
M  V30 1239 H 123.235 0.204695 -2.03573 0
M  V30 1240 H 123.245 2.21958 -3.42343 0
M  V30 1241 H 121.92 1.21004 -3.97908 0
M  V30 1242 H 120.497 2.54514 -2.72538 0
M  V30 1243 N 122.682 1.50554 0.465978 0
M  V30 1244 C 123.632 1.66177 1.56106 0
M  V30 1245 C 124.616 0.516265 1.52393 0
M  V30 1246 O 125.808 0.770906 1.5933 0
M  V30 1247 C 122.937 1.76396 2.94515 0
M  V30 1248 C 122.023 2.9664 3.03093 0
M  V30 1249 N 122.414 4.20245 2.81474 0
M  V30 1250 C 120.712 2.95304 3.34233 0
M  V30 1251 C 121.413 5.01259 2.95151 0
M  V30 1252 N 120.389 4.35318 3.25576 0
M  V30 1253 H 124.191 2.59434 1.38099 0
M  V30 1254 H 121.705 1.47808 0.6728 0
M  V30 1255 H 123.702 1.85694 3.73261 0
M  V30 1256 H 122.362 0.843017 3.13565 0
M  V30 1257 H 123.373 4.4966 2.56956 0
M  V30 1258 H 120.05 2.12729 3.59239 0
M  V30 1259 H 121.44 6.09564 2.82632 0
M  V30 1260 N 124.16 -0.719506 1.40217 0
M  V30 1261 C 125.407 -1.47933 1.38283 0
M  V30 1262 C 125.735 -1.94493 -0.0161536 0
M  V30 1263 O 124.99 -1.68224 -0.999956 0
M  V30 1264 C 125.289 -2.72271 2.31524 0
M  V30 1265 C 124.955 -2.44496 3.78857 0
M  V30 1266 C 123.617 -2.36631 4.18998 0
M  V30 1267 C 125.969 -2.21104 4.71977 0
M  V30 1268 C 123.297 -2.03437 5.503 0
M  V30 1269 C 125.649 -1.89423 6.03574 0
M  V30 1270 C 124.313 -1.80038 6.42762 0
M  V30 1271 H 123.583 -0.541325 0.506012 0
M  V30 1272 H 126.23 -0.824502 1.72842 0
M  V30 1273 H 124.535 -3.42572 1.90137 0
M  V30 1274 H 126.232 -3.30348 2.27313 0
M  V30 1275 H 122.822 -2.51503 3.47051 0
M  V30 1276 H 127.006 -2.26139 4.41786 0
M  V30 1277 H 122.262 -1.94705 5.79569 0
M  V30 1278 H 126.436 -1.70336 6.75247 0
M  V30 1279 H 124.063 -1.54083 7.44421 0
M  V30 1280 N 125.638 -1.25649 -0.95132 0
M  V30 1281 C 126.863 -1.13443 -1.73624 0
M  V30 1282 C 127.288 0.307565 -1.85568 0
M  V30 1283 O 126.646 1.22282 -1.33854 0
M  V30 1284 C 126.694 -1.79723 -3.12621 0
M  V30 1285 O 125.798 -1.07912 -3.98031 0
M  V30 1286 H 125.139 -0.395872 -0.533086 0
M  V30 1287 H 127.669 -1.66276 -1.1922 0
M  V30 1288 H 127.679 -1.86141 -3.63064 0
M  V30 1289 H 126.354 -2.84633 -3.03244 0
M  V30 1290 H 124.931 -1.09398 -3.56492 0
M  V30 1291 N 127.117 1.15442 -1.07289 0
M  V30 1292 C 128.342 1.90638 -0.816828 0
M  V30 1293 C 128.767 1.77445 0.624083 0
M  V30 1294 O 128.125 1.10671 1.43602 0
M  V30 1295 C 128.173 3.39008 -1.22906 0
M  V30 1296 O 127.277 4.10701 -0.373975 0
M  V30 1297 H 126.618 0.593555 -0.297638 0
M  V30 1298 H 129.148 1.46198 -1.43134 0
M  V30 1299 H 129.158 3.89801 -1.20497 0
M  V30 1300 H 127.833 3.47929 -2.27856 0
M  V30 1301 H 126.41 3.70046 -0.460499 0
M  V30 1302 N 128.595 0.856903 1.32268 0
M  V30 1303 C 129.505 0.306131 2.32594 0
M  V30 1304 C 130.521 -0.577209 1.64147 0
M  V30 1305 O 131.697 -0.477043 1.95669 0
M  V30 1306 C 128.762 -0.494561 3.43154 0
M  V30 1307 C 127.823 0.415186 4.27288 0
M  V30 1308 C 127.056 -0.347387 5.32568 0
M  V30 1309 O 127.279 -1.57708 5.48165 0
M  V30 1310 O 126.213 0.287982 6.01211 0
M  V30 1311 H 130.039 1.13737 2.81598 0
M  V30 1312 H 127.624 0.619902 1.35932 0
M  V30 1313 H 129.506 -0.948944 4.10576 0
M  V30 1314 H 128.181 -1.30257 2.96336 0
M  V30 1315 H 127.088 0.917793 3.62667 0
M  V30 1316 H 128.421 1.18844 4.77637 0
M  V30 1317 N 130.073 -1.45103 0.615059 0
M  V30 1318 C 131.298 -2.07064 0.117988 0
M  V30 1319 C 131.723 -1.4554 -1.19163 0
M  V30 1320 O 131.081 -0.550855 -1.72729 0
M  V30 1321 C 131.129 -3.606 -0.000288387 0
M  V30 1322 O 130.233 -3.98847 -1.04856 0
M  V30 1323 H 129.574 -0.659467 0.0774581 0
M  V30 1324 H 132.104 -1.86236 0.847186 0
M  V30 1325 H 132.114 -4.07529 -0.196091 0
M  V30 1326 H 130.789 -4.04765 0.955932 0
M  V30 1327 H 129.366 -3.63577 -0.828619 0
M  V30 1328 N 131.551 -0.354651 -1.53558 0
M  V30 1329 C 132.799 0.237972 -2.00694 0
M  V30 1330 C 133.12 1.50173 -1.24391 0
M  V30 1331 O 132.39 1.92673 -0.354135 0
M  V30 1332 H 130.97 0.0909256 -0.741446 0
M  V30 1333 H 133.632 -0.478368 -1.88938 0
M  V30 1334 H 132.728 0.47264 -3.085 0
M  V30 1335 N 133.029 1.57378 -0.0835403 0
M  V30 1336 C 133.992 2.12252 0.864959 0
M  V30 1337 C 134.992 1.04916 1.21858 0
M  V30 1338 O 136.182 1.30853 1.14991 0
M  V30 1339 C 133.314 2.63358 2.16461 0
M  V30 1340 H 134.507 2.97371 0.388676 0
M  V30 1341 H 132.06 1.55423 0.165317 0
M  V30 1342 H 132.795 1.81727 2.686 0
M  V30 1343 H 132.58 3.41826 1.92087 0
M  V30 1344 H 134.07 3.05847 2.84337 0
M  V30 1345 N 134.507 -0.190092 1.56449 0
M  V30 1346 C 135.753 -0.911052 1.81184 0
M  V30 1347 C 136.086 -1.82699 0.658396 0
M  V30 1348 O 135.361 -1.91491 -0.340775 0
M  V30 1349 C 135.644 -1.72297 3.16205 0
M  V30 1350 C 135.497 -0.831419 4.42049 0
M  V30 1351 C 136.816 -2.69454 3.47969 0
M  V30 1352 H 133.935 -0.32977 0.659106 0
M  V30 1353 H 136.577 -0.178169 1.89163 0
M  V30 1354 H 134.727 -2.34778 3.09534 0
M  V30 1355 H 136.399 -0.220929 4.60771 0
M  V30 1356 H 134.642 -0.138406 4.33579 0
M  V30 1357 H 135.313 -1.43461 5.33032 0
M  V30 1358 H 137.789 -2.17104 3.54972 0
M  V30 1359 H 136.665 -3.23342 4.43555 0
M  V30 1360 H 136.926 -3.48744 2.71717 0
M  V30 1361 N 135.985 -1.50799 -0.457987 0
M  V30 1362 C 136.932 -1.70617 -1.5543 0
M  V30 1363 C 137.902 -0.547562 -1.56815 0
M  V30 1364 O 139.087 -0.779647 -1.74144 0
M  V30 1365 C 136.227 -1.81831 -2.93311 0
M  V30 1366 C 135.34 -3.09278 -3.01615 0
M  V30 1367 C 134.475 -3.11209 -4.30491 0
M  V30 1368 C 133.514 -4.33055 -4.32585 0
M  V30 1369 N 132.651 -4.32652 -5.52952 0
M  V30 1370 H 137.491 -2.64207 -1.37836 0
M  V30 1371 H 135.028 -1.30959 -0.669937 0
M  V30 1372 H 136.986 -1.86314 -3.73287 0
M  V30 1373 H 135.616 -0.916685 -3.0951 0
M  V30 1374 H 134.668 -3.14203 -2.1443 0
M  V30 1375 H 135.98 -3.99233 -2.99022 0
M  V30 1376 H 135.134 -3.14494 -5.18824 0
M  V30 1377 H 133.873 -2.19106 -4.35711 0
M  V30 1378 H 132.878 -4.29969 -3.42647 0
M  V30 1379 H 134.103 -5.264 -4.29046 0
M  V30 1380 H 132.049 -3.43409 -5.58933 0
M  V30 1381 H 131.966 -5.16392 -5.52155 0
M  V30 1382 H 133.234 -4.40101 -6.43375 0
M  V30 1383 N 137.463 0.71206 -1.40597 0
M  V30 1384 C 138.879 1.02058 -1.22704 0
M  V30 1385 C 139.079 2.01228 -0.104729 0
M  V30 1386 O 138.135 2.4674 0.53624 0
M  V30 1387 C 139.448 1.56094 -2.57012 0
M  V30 1388 C 140.996 1.6806 -2.64054 0
M  V30 1389 C 141.471 2.25501 -3.9864 0
M  V30 1390 N 142.962 2.32882 -4.004 0
M  V30 1391 C 143.697 2.78317 -5.01325 0
M  V30 1392 N 143.193 3.23478 -6.12645 0
M  V30 1393 N 144.986 2.77733 -4.88693 0
M  V30 1394 H 137.137 0.0547896 -2.12329 0
M  V30 1395 H 139.4 0.0869027 -0.944008 0
M  V30 1396 H 139.106 0.906865 -3.39807 0
M  V30 1397 H 138.98 2.54564 -2.78347 0
M  V30 1398 H 141.367 2.32583 -1.81629 0
M  V30 1399 H 141.448 0.681802 -2.46546 0
M  V30 1400 H 141.092 1.61598 -4.81506 0
M  V30 1401 H 141.022 3.26102 -4.13479 0
M  V30 1402 H 143.513 2.00991 -3.20017 0
M  V30 1403 H 143.826 3.56725 -6.85542 0
M  V30 1404 H 142.171 3.21429 -6.16205 0
M  V30 1405 H 145.362 2.4179 -4.00818 0
M  V30 1406 H 145.535 3.12826 -5.67489 0
M  V30 1407 N 138.941 1.26152 0.944643 0
M  V30 1408 C 140.218 1.02247 1.66748 0
M  V30 1409 C 140.598 -0.448202 2.06287 0
M  V30 1410 O 139.946 -1.42779 1.78399 0
M  V30 1411 C 140.156 1.96788 2.88228 0
M  V30 1412 C 141.504 2.25201 3.59958 0
M  V30 1413 O 142.528 1.94626 2.98327 0
M  V30 1414 O 141.387 2.77242 4.70956 0
M  V30 1415 H 138.481 0.388517 0.730057 0
M  V30 1416 H 141.027 1.37348 0.99668 0
M  V30 1417 H 139.799 2.96047 2.55875 0
M  V30 1418 H 139.422 1.62145 3.63035 0
M  V30 1419 N 140.419 -1.14872 1.07899 0
M  V30 1420 C 141.659 -1.8745 0.814965 0
M  V30 1421 C 142.023 -1.80758 -0.64733 0
M  V30 1422 O 143.224 -2.48422 -1.02664 0
M  V30 1423 C 141.495 -3.32286 1.31607 0
M  V30 1424 S 143.054 -4.22537 1.18357 0
M  V30 1425 H 139.872 -0.646833 0.295174 0
M  V30 1426 H 142.474 -1.38555 1.37923 0
M  V30 1427 H 141.178 -3.34703 2.37491 0
M  V30 1428 H 140.709 -3.86238 0.747261 0
M  V30 1429 H 142.724 -4.96044 0.124586 0
M  V30 1430 N 141.898 -0.863906 -1.31812 0
M  V30 1431 C 143.126 -0.486111 -2.01108 0
M  V30 1432 C 143.541 0.919755 -1.64882 0
M  V30 1433 O 142.898 1.60162 -0.874893 0
M  V30 1434 C 142.949 -0.626435 -3.56031 0
M  V30 1435 O 142.67 -1.97693 -3.90959 0
M  V30 1436 C 144.171 -0.248857 -4.42601 0
M  V30 1437 H 141.391 -0.190052 -0.643523 0
M  V30 1438 H 143.935 -1.1634 -1.68182 0
M  V30 1439 H 142.09 0.00322717 -3.874 0
M  V30 1440 H 142.504 -1.98034 -4.85678 0
M  V30 1441 H 143.978 -0.398016 -5.50563 0
M  V30 1442 H 144.455 0.811489 -4.31638 0
M  V30 1443 H 145.061 -0.853971 -4.16638 0
M  V30 1444 N 143.376 1.44774 -0.622745 0
M  V30 1445 C 144.625 2.01334 -0.121397 0
M  V30 1446 C 144.938 1.49505 1.26125 0
M  V30 1447 O 146.144 1.98139 1.85616 0
M  V30 1448 C 144.6 3.59516 -0.166298 0
M  V30 1449 C 144.208 4.20342 -1.54974 0
M  V30 1450 C 145.952 4.23582 0.279021 0
M  V30 1451 C 143.859 5.70721 -1.55021 0
M  V30 1452 H 142.789 0.752851 -0.0416172 0
M  V30 1453 H 145.44 1.66083 -0.780309 0
M  V30 1454 H 143.822 3.92027 0.559557 0
M  V30 1455 H 144.996 3.99381 -2.29851 0
M  V30 1456 H 143.311 3.68529 -1.93843 0
M  V30 1457 H 145.908 5.33868 0.298083 0
M  V30 1458 H 146.251 3.95327 1.30471 0
M  V30 1459 H 146.784 3.95843 -0.394063 0
M  V30 1460 H 143.523 6.03698 -2.55399 0
M  V30 1461 H 143.043 5.93829 -0.844245 0
M  V30 1462 H 144.722 6.34203 -1.28047 0
M  V30 1463 N 144.854 0.36279 1.53368 0
M  V30 1464 C 146.082 -0.228613 2.05633 0
M  V30 1465 C 146.497 -1.42676 1.23649 0
M  V30 1466 O 145.854 -1.80394 0.27647 0
M  V30 1467 C 145.905 -0.624845 3.56059 0
M  V30 1468 O 145.626 0.525675 4.34935 0
M  V30 1469 C 147.127 -1.27493 4.24571 0
M  V30 1470 H 144.347 -0.0407183 0.669763 0
M  V30 1471 H 146.891 0.520352 1.97769 0
M  V30 1472 H 145.046 -1.32373 3.64083 0
M  V30 1473 H 145.46 0.205969 5.24095 0
M  V30 1474 H 146.934 -1.50277 5.31151 0
M  V30 1475 H 147.411 -2.23439 3.78116 0
M  V30 1476 H 148.017 -0.617558 4.20792 0
M  V30 1477 N 146.332 -1.57332 0.0918853 0
M  V30 1478 C 147.58 -1.93853 -0.571446 0
M  V30 1479 C 147.901 -0.974212 -1.6892 0
M  V30 1480 O 147.171 -0.0257254 -1.95883 0
M  V30 1481 H 145.751 -0.715666 -0.214082 0
M  V30 1482 H 148.413 -1.94287 0.154464 0
M  V30 1483 H 147.509 -2.96191 -0.983729 0
M  V30 1484 N 147.81 0.181792 -1.56548 0
M  V30 1485 C 149.056 0.896803 -1.82562 0
M  V30 1486 C 149.411 1.80324 -0.670908 0
M  V30 1487 O 148.704 1.8868 0.333235 0
M  V30 1488 C 148.898 1.73728 -3.12335 0
M  V30 1489 C 148.727 0.913714 -4.4032 0
M  V30 1490 C 147.497 0.592903 -5.01809 0
M  V30 1491 C 149.695 0.260164 -5.13642 0
M  V30 1492 N 147.677 -0.247901 -6.13399 0
M  V30 1493 C 149.048 -0.442256 -6.18421 0
M  V30 1494 C 151.103 0.177253 -4.97584 0
M  V30 1495 C 149.806 -1.21971 -7.08883 0
M  V30 1496 C 151.832 -0.586839 -5.88481 0
M  V30 1497 C 151.194 -1.27766 -6.92716 0
M  V30 1498 H 147.293 0.307122 -0.719166 0
M  V30 1499 H 149.877 0.164535 -1.94004 0
M  V30 1500 H 148.048 2.44105 -3.02105 0
M  V30 1501 H 149.78 2.39279 -3.26386 0
M  V30 1502 H 146.535 0.920502 -4.64568 0
M  V30 1503 H 146.959 -0.658304 -6.73792 0
M  V30 1504 H 151.601 0.696993 -4.17015 0
M  V30 1505 H 149.319 -1.75083 -7.88905 0
M  V30 1506 H 152.905 -0.652522 -5.78129 0
M  V30 1507 H 151.785 -1.85943 -7.61836 0
M  V30 1508 N 149.288 1.51039 0.449983 0
M  V30 1509 C 150.513 1.6715 1.22783 0
M  V30 1510 C 150.938 0.363081 1.84563 0
M  V30 1511 O 150.296 -0.675433 1.68249 0
M  V30 1512 C 150.344 2.77985 2.29689 0
M  V30 1513 O 149.448 2.40707 3.34864 0
M  V30 1514 H 148.789 0.557746 0.360299 0
M  V30 1515 H 151.319 1.97535 0.533005 0
M  V30 1516 H 151.329 3.01693 2.74673 0
M  V30 1517 H 150.004 3.72935 1.84098 0
M  V30 1518 H 148.581 2.27523 2.95445 0
M  V30 1519 N 150.766 -0.704594 1.40972 0
M  V30 1520 C 151.676 -1.84856 1.44448 0
M  V30 1521 C 152.692 -1.70726 0.335961 0
M  V30 1522 O 153.868 -1.92799 0.582276 0
M  V30 1523 C 150.933 -3.20758 1.31587 0
M  V30 1524 C 149.994 -3.47063 2.52677 0
M  V30 1525 C 149.227 -4.76481 2.4042 0
M  V30 1526 O 149.45 -5.52341 1.42391 0
M  V30 1527 O 148.384 -5.03367 3.30007 0
M  V30 1528 H 152.21 -1.8488 2.40942 0
M  V30 1529 H 149.795 -0.85647 1.22413 0
M  V30 1530 H 151.677 -4.01913 1.26665 0
M  V30 1531 H 150.352 -3.21438 0.382049 0
M  V30 1532 H 149.259 -2.65873 2.63177 0
M  V30 1533 H 150.592 -3.5119 3.44858 0
M  V30 1534 N 152.244 -1.26651 -0.937939 0
M  V30 1535 C 153.655 -1.1125 -1.49934 0
M  V30 1536 C 154.006 0.306077 -1.93798 0
M  V30 1537 O 153.131 1.19792 -1.80219 0
M  V30 1538 C 153.726 -2.01339 -2.72485 0
M  V30 1539 C 152.285 -1.90074 -3.24883 0
M  V30 1540 C 151.432 -1.94498 -1.97651 0
M  V30 1541 H 154.383 -1.39693 -0.753091 0
M  V30 1542 H 154.404 -1.56319 -3.46907 0
M  V30 1543 H 153.916 -3.04577 -2.40529 0
M  V30 1544 H 152.017 -0.897827 -3.61621 0
M  V30 1545 H 152.13 -2.75778 -3.9177 0
M  V30 1546 H 150.494 -1.38591 -2.13693 0
M  V30 1547 H 151.277 -2.99372 -1.68022 0
M  V30 1548 N 153.722 1.14298 -1.08507 0
M  V30 1549 C 154.969 1.85359 -0.815373 0
M  V30 1550 C 155.297 1.83001 0.658865 0
M  V30 1551 O 154.552 1.25655 1.50031 0
M  V30 1552 C 154.851 3.33547 -1.28379 0
M  V30 1553 C 154.517 3.56093 -2.76602 0
M  V30 1554 C 153.179 3.61955 -3.17084 0
M  V30 1555 C 155.531 3.64834 -3.72217 0
M  V30 1556 C 152.859 3.74082 -4.51973 0
M  V30 1557 C 155.211 3.78487 -5.06883 0
M  V30 1558 C 153.875 3.82598 -5.46969 0
M  V30 1559 H 153.145 0.678276 -0.298366 0
M  V30 1560 H 155.792 1.35002 -1.35819 0
M  V30 1561 H 154.097 3.86191 -0.660593 0
M  V30 1562 H 155.794 3.86959 -1.05186 0
M  V30 1563 H 152.384 3.52179 -2.4427 0
M  V30 1564 H 156.568 3.59595 -3.42061 0
M  V30 1565 H 151.824 3.75527 -4.82483 0
M  V30 1566 H 155.998 3.84193 -5.80834 0
M  V30 1567 H 153.625 3.91747 -6.51489 0
M  V30 1568 N 155.201 0.870884 1.31352 0
M  V30 1569 C 156.612 0.534714 1.78879 0
M  V30 1570 C 156.963 -0.948423 1.71754 0
M  V30 1571 O 156.088 -1.74055 1.28584 0
M  V30 1572 C 156.683 0.963839 3.24801 0
M  V30 1573 C 155.242 0.679311 3.70219 0
M  V30 1574 C 154.389 1.15465 2.52117 0
M  V30 1575 H 157.34 1.05651 1.18421 0
M  V30 1576 H 157.361 0.286892 3.79417 0
M  V30 1577 H 156.873 2.04332 3.29955 0
M  V30 1578 H 154.974 -0.388769 3.70566 0
M  V30 1579 H 155.087 1.25698 4.62317 0
M  V30 1580 H 153.451 0.574383 2.48139 0
M  V30 1581 H 154.234 2.24157 2.60016 0
M  V30 1582 N 156.679 -1.44442 0.630414 0
M  V30 1583 C 158.09 -1.85434 0.217063 0
M  V30 1584 C 158.441 -1.52748 -1.23136 0
M  V30 1585 O 157.566 -0.965205 -1.93682 0
M  V30 1586 C 158.161 -3.36581 0.387168 0
M  V30 1587 C 156.72 -3.76389 0.0283297 0
M  V30 1588 C 155.867 -2.68296 0.700889 0
M  V30 1589 H 158.818 -1.34919 0.83562 0
M  V30 1590 H 158.839 -3.78657 -0.374086 0
M  V30 1591 H 158.351 -3.60339 1.44144 0
M  V30 1592 H 156.452 -3.58246 -1.02423 0
M  V30 1593 H 156.565 -4.77095 0.437892 0
M  V30 1594 H 154.929 -2.54335 0.136267 0
M  V30 1595 H 155.712 -2.94887 1.75774 0
M  V30 1596 N 158.157 -0.370918 -1.53173 0
M  V30 1597 C 159.387 0.217389 -2.05453 0
M  V30 1598 C 159.795 1.42568 -1.24382 0
M  V30 1599 O 159.138 1.81571 -0.278839 0
M  V30 1600 C 159.2 0.669827 -3.53205 0
M  V30 1601 C 158.864 -0.4225 -4.55043 0
M  V30 1602 C 159.861 -1.27407 -5.04047 0
M  V30 1603 C 157.546 -0.58427 -4.9889 0
M  V30 1604 C 159.54 -2.27271 -5.95505 0
M  V30 1605 C 157.227 -1.58627 -5.90153 0
M  V30 1606 C 158.225 -2.42892 -6.38351 0
M  V30 1607 O 157.913 -3.41382 -7.27814 0
M  V30 1608 H 157.645 0.0408171 -0.674767 0
M  V30 1609 H 160.199 -0.5292 -1.98466 0
M  V30 1610 H 158.429 1.4681 -3.57748 0
M  V30 1611 H 160.118 1.18173 -3.88317 0
M  V30 1612 H 160.884 -1.16031 -4.70916 0
M  V30 1613 H 156.763 0.061851 -4.60959 0
M  V30 1614 H 160.307 -2.93079 -6.33049 0
M  V30 1615 H 156.204 -1.70048 -6.22699 0
M  V30 1616 H 156.972 -3.37173 -7.45826 0
M  V30 1617 N 159.635 1.57281 -0.100228 0
M  V30 1618 C 161.046 1.81725 0.428107 0
M  V30 1619 C 161.397 1.01619 1.67833 0
M  V30 1620 O 160.522 0.247098 2.14985 0
M  V30 1621 C 161.117 3.29617 0.78347 0
M  V30 1622 C 159.676 3.54808 1.25653 0
M  V30 1623 C 158.823 2.76118 0.255752 0
M  V30 1624 H 161.774 1.55324 -0.325608 0
M  V30 1625 H 161.795 3.4322 1.64256 0
M  V30 1626 H 161.307 3.87893 -0.12665 0
M  V30 1627 H 159.408 3.01868 2.18418 0
M  V30 1628 H 159.521 4.63443 1.21482 0
M  V30 1629 H 157.885 2.43745 0.738956 0
M  V30 1630 H 158.668 3.37145 -0.647136 0
M  V30 1631 N 161.113 -0.173488 1.56642 0
M  V30 1632 C 162.359 -0.891784 1.8214 0
M  V30 1633 C 162.692 -1.8199 0.677736 0
M  V30 1634 O 161.967 -1.91842 -0.320446 0
M  V30 1635 C 162.25 -1.68933 3.18015 0
M  V30 1636 C 162.103 -0.784487 4.42906 0
M  V30 1637 C 163.422 -2.65748 3.50808 0
M  V30 1638 H 160.541 -0.322761 0.662567 0
M  V30 1639 H 163.183 -0.158095 1.89341 0
M  V30 1640 H 161.333 -2.31482 3.12007 0
M  V30 1641 H 163.005 -0.172046 4.60979 0
M  V30 1642 H 161.248 -0.0924117 4.33702 0
M  V30 1643 H 161.919 -1.37799 5.34524 0
M  V30 1644 H 164.395 -2.13327 3.57255 0
M  V30 1645 H 163.271 -3.18619 4.4696 0
M  V30 1646 H 163.532 -3.45842 2.75401 0
M  V30 1647 N 162.591 -1.51276 -0.441967 0
M  V30 1648 C 163.554 -1.7167 -1.51862 0
M  V30 1649 C 164.554 -0.586793 -1.49711 0
M  V30 1650 O 165.744 -0.854276 -1.51815 0
M  V30 1651 C 162.876 -1.76889 -2.91416 0
M  V30 1652 H 164.069 -2.67754 -1.35084 0
M  V30 1653 H 161.622 -1.41196 -0.670333 0
M  V30 1654 H 162.357 -0.826026 -3.13604 0
M  V30 1655 H 162.142 -2.59001 -2.94382 0
M  V30 1656 H 163.632 -1.94522 -3.69528 0
M  V30 1657 N 164.069 0.697108 -1.41344 0
M  V30 1658 C 165.309 1.46939 -1.42085 0
M  V30 1659 C 165.673 1.9198 -0.0280397 0
M  V30 1660 O 166.874 2.6865 0.0897504 0
M  V30 1661 C 165.145 2.64985 -2.39828 0
M  V30 1662 S 166.704 3.54147 -2.59085 0
M  V30 1663 H 163.522 0.502146 -0.503359 0
M  V30 1664 H 166.124 0.813546 -1.77769 0
M  V30 1665 H 164.828 2.30098 -3.39828 0
M  V30 1666 H 164.359 3.35464 -2.05493 0
M  V30 1667 H 166.374 4.60137 -1.85711 0
M  V30 1668 N 165.547 1.27147 0.931209 0
M  V30 1669 C 166.958 1.12044 1.49342 0
M  V30 1670 C 167.309 -0.295795 1.93957 0
M  V30 1671 O 166.434 -1.18835 1.80852 0
M  V30 1672 C 167.029 2.02781 2.71414 0
M  V30 1673 C 165.588 1.91794 3.2387 0
M  V30 1674 C 164.735 1.95543 1.96617 0
M  V30 1675 H 167.686 1.40091 0.745672 0
M  V30 1676 H 167.707 1.58156 3.46074 0
M  V30 1677 H 167.219 3.05848 2.38911 0
M  V30 1678 H 165.32 0.916992 3.6114 0
M  V30 1679 H 165.433 2.77852 3.90302 0
M  V30 1680 H 163.797 1.39722 2.12955 0
M  V30 1681 H 164.58 3.00259 1.66432 0
M  V30 1682 N 167.025 -1.13721 1.09112 0
M  V30 1683 C 168.271 -1.85198 0.826414 0
M  V30 1684 C 168.604 -1.83129 -0.646319 0
M  V30 1685 O 167.879 -1.2671 -1.47563 0
M  V30 1686 C 168.162 -3.33507 1.35812 0
M  V30 1687 C 168.015 -3.44108 2.89672 0
M  V30 1688 C 169.334 -4.28838 0.989256 0
M  V30 1689 H 166.453 -0.67243 0.301675 0
M  V30 1690 H 169.095 -1.33499 1.35197 0
M  V30 1691 H 167.245 -3.77666 0.911082 0
M  V30 1692 H 168.917 -3.08684 3.428 0
M  V30 1693 H 167.16 -2.85087 3.26967 0
M  V30 1694 H 167.831 -4.48388 3.21951 0
M  V30 1695 H 170.307 -3.92734 1.37475 0
M  V30 1696 H 169.183 -5.31051 1.38838 0
M  V30 1697 H 169.444 -4.4198 -0.102924 0
M  V30 1698 N 168.503 -0.877838 -1.30888 0
M  V30 1699 C 169.914 -0.544193 -1.78593 0
M  V30 1700 C 170.265 0.939301 -1.72254 0
M  V30 1701 O 169.39 1.7337 -1.29505 0
M  V30 1702 C 169.985 -0.98105 -3.24285 0
M  V30 1703 C 168.544 -0.698935 -3.69854 0
M  V30 1704 C 167.691 -1.168 -2.51502 0
M  V30 1705 H 170.642 -1.06278 -1.17859 0
M  V30 1706 H 170.663 -0.307009 -3.79259 0
M  V30 1707 H 170.175 -2.06079 -3.28866 0
M  V30 1708 H 168.276 0.369112 -3.70767 0
M  V30 1709 H 168.389 -1.28148 -4.61644 0
M  V30 1710 H 166.753 -0.587535 -2.47831 0
M  V30 1711 H 167.536 -2.25533 -2.58824 0
M  V30 1712 N 169.982 1.44106 -0.638065 0
M  V30 1713 C 170.912 2.33448 0.0494287 0
M  V30 1714 C 171.893 1.48606 0.827672 0
M  V30 1715 O 173.078 1.77308 0.792173 0
M  V30 1716 C 170.208 3.31771 1.02691 0
M  V30 1717 C 169.162 4.26485 0.359823 0
M  V30 1718 C 168.488 5.14729 1.44769 0
M  V30 1719 C 169.788 5.17056 -0.738296 0
M  V30 1720 H 171.482 2.91183 -0.696636 0
M  V30 1721 H 169.028 1.40014 -0.336456 0
M  V30 1722 H 170.981 3.93161 1.51666 0
M  V30 1723 H 169.705 2.7226 1.80395 0
M  V30 1724 H 168.364 3.66437 -0.10934 0
M  V30 1725 H 168.012 4.51566 2.21578 0
M  V30 1726 H 167.712 5.78913 1.00668 0
M  V30 1727 H 169.236 5.78991 1.93911 0
M  V30 1728 H 170.65 5.72342 -0.331354 0
M  V30 1729 H 169.047 5.89879 -1.10286 0
M  V30 1730 H 170.117 4.57652 -1.60258 0
M  V30 1731 N 171.46 0.379036 1.52974 0
M  V30 1732 C 172.37 -0.468639 2.29872 0
M  V30 1733 C 173.386 -1.08067 1.36373 0
M  V30 1734 O 174.562 -1.08871 1.69438 0
M  V30 1735 C 171.627 -1.58594 3.083 0
M  V30 1736 C 170.688 -1.00007 4.17489 0
M  V30 1737 C 169.921 -2.06413 4.92168 0
M  V30 1738 O 170.144 -3.27751 4.66835 0
M  V30 1739 O 169.078 -1.68717 5.7777 0
M  V30 1740 H 172.904 0.157508 3.03291 0
M  V30 1741 H 170.489 0.143035 1.48714 0
M  V30 1742 H 172.371 -2.23525 3.57232 0
M  V30 1743 H 171.046 -2.19724 2.37703 0
M  V30 1744 H 169.953 -0.314299 3.72777 0
M  V30 1745 H 171.286 -0.433135 4.90291 0
M  V30 1746 N 172.938 -1.57226 0.108567 0
M  V30 1747 C 173.868 -2.17778 -0.84232 0
M  V30 1748 C 174.849 -1.11487 -1.2847 0
M  V30 1749 O 176.034 -1.39681 -1.34918 0
M  V30 1750 C 173.164 -2.76888 -2.09644 0
M  V30 1751 C 172.118 -3.88669 -1.79221 0
M  V30 1752 C 171.444 -4.34541 -3.11574 0
M  V30 1753 C 172.744 -5.11251 -1.06864 0
M  V30 1754 H 174.438 -2.97489 -0.337774 0
M  V30 1755 H 171.984 -1.43097 -0.161025 0
M  V30 1756 H 173.937 -3.17904 -2.76614 0
M  V30 1757 H 172.661 -1.94451 -2.62405 0
M  V30 1758 H 171.32 -3.48213 -1.14644 0
M  V30 1759 H 170.968 -3.48977 -3.62249 0
M  V30 1760 H 170.668 -5.09914 -2.91996 0
M  V30 1761 H 172.192 -4.782 -3.7968 0
M  V30 1762 H 173.606 -5.49352 -1.63968 0
M  V30 1763 H 172.003 -5.9214 -0.974178 0
M  V30 1764 H 173.073 -4.8487 -0.0536168 0
M  V30 1765 N 174.416 0.165178 -1.56732 0
M  V30 1766 C 175.346 1.20651 -1.99914 0
M  V30 1767 C 176.327 1.45827 -0.875705 0
M  V30 1768 O 177.512 1.57057 -1.14223 0
M  V30 1769 C 174.642 2.54401 -2.36427 0
M  V30 1770 C 173.596 2.43782 -3.51787 0
M  V30 1771 C 172.922 3.82078 -3.7406 0
M  V30 1772 C 174.222 1.93732 -4.85041 0
M  V30 1773 H 175.916 0.847534 -2.87154 0
M  V30 1774 H 173.462 0.40625 -1.38151 0
M  V30 1775 H 175.415 3.27458 -2.65234 0
M  V30 1776 H 174.139 2.92098 -1.46103 0
M  V30 1777 H 172.798 1.73178 -3.23117 0
M  V30 1778 H 172.446 4.17179 -2.81017 0
M  V30 1779 H 172.146 3.7584 -4.51684 0
M  V30 1780 H 173.67 4.56712 -4.05274 0
M  V30 1781 H 175.084 2.56569 -5.12684 0
M  V30 1782 H 173.481 1.98428 -5.66345 0
M  V30 1783 H 174.551 0.891962 -4.76626 0
M  V30 1784 N 175.894 1.51508 0.433938 0
M  V30 1785 C 176.857 1.72473 1.50949 0
M  V30 1786 C 177.857 0.594725 1.49398 0
M  V30 1787 O 179.047 0.862315 1.5136 0
M  V30 1788 C 176.179 1.78431 2.90474 0
M  V30 1789 H 177.372 2.68467 1.33662 0
M  V30 1790 H 174.925 1.41549 0.662836 0
M  V30 1791 H 175.66 0.842645 3.13161 0
M  V30 1792 H 175.445 2.60558 2.93005 0
M  V30 1793 H 176.935 1.96479 3.68491 0
M  V30 1794 N 177.372 -0.689602 1.41712 0
M  V30 1795 C 178.282 -1.83314 1.46401 0
M  V30 1796 C 179.298 -1.7036 0.35405 0
M  V30 1797 O 180.474 -1.92171 0.602692 0
M  V30 1798 C 177.539 -3.19344 1.34982 0
M  V30 1799 C 176.6 -3.44363 2.56344 0
M  V30 1800 C 175.833 -4.73904 2.45461 0
M  V30 1801 O 176.056 -5.508 1.48241 0
M  V30 1802 O 174.99 -4.99839 3.35328 0
M  V30 1803 H 178.816 -1.82314 2.42889 0
M  V30 1804 H 176.401 -0.843438 1.23315 0
M  V30 1805 H 178.283 -4.00547 1.3092 0
M  V30 1806 H 176.958 -3.21014 0.41612 0
M  V30 1807 H 175.865 -2.63067 2.65982 0
M  V30 1808 H 177.198 -3.47512 3.48563 0
M  V30 1809 N 178.85 -1.27639 -0.924453 0
M  V30 1810 C 179.76 -1.12466 -2.05885 0
M  V30 1811 C 180.776 -0.053869 -1.73917 0
M  V30 1812 O 181.952 -0.261012 -1.99702 0
M  V30 1813 C 179.017 -0.776768 -3.37886 0
M  V30 1814 C 178.078 -1.92878 -3.83532 0
M  V30 1815 C 177.311 -1.59739 -5.09234 0
M  V30 1816 O 177.534 -0.506782 -5.68144 0
M  V30 1817 O 176.468 -2.43761 -5.50331 0
M  V30 1818 H 180.294 -2.07671 -2.21599 0
M  V30 1819 H 177.879 -1.06857 -1.04413 0
M  V30 1820 H 179.761 -0.596229 -4.17161 0
M  V30 1821 H 178.436 0.145732 -3.23372 0
M  V30 1822 H 177.343 -2.1644 -3.0513 0
M  V30 1823 H 178.676 -2.8316 -4.02593 0
M  V30 1824 N 180.328 1.1314 -1.09713 0
M  V30 1825 C 181.238 2.22242 -0.751367 0
M  V30 1826 C 182.254 1.72224 0.247938 0
M  V30 1827 O 183.43 2.01205 0.0885463 0
M  V30 1828 C 180.495 3.46231 -0.180274 0
M  V30 1829 C 179.556 4.11125 -1.2359 0
M  V30 1830 C 178.789 5.29195 -0.691966 0
M  V30 1831 O 179.012 5.68342 0.48414 0
M  V30 1832 O 177.946 5.84214 -1.44838 0
M  V30 1833 H 181.772 2.54197 -1.66186 0
M  V30 1834 H 179.357 1.21331 -0.871735 0
M  V30 1835 H 181.239 4.21185 0.134739 0
M  V30 1836 H 179.914 3.1597 0.703185 0
M  V30 1837 H 178.821 3.37985 -1.60366 0
M  V30 1838 H 180.154 4.45524 -2.09211 0
M  V30 1839 N 181.806 0.884767 1.30421 0
M  V30 1840 C 183.031 0.517288 2.00845 0
M  V30 1841 C 183.456 -0.886779 1.65885 0
M  V30 1842 O 182.814 -1.58768 0.875354 0
M  V30 1843 C 182.862 0.698994 3.5376 0
M  V30 1844 O 181.966 -0.255208 4.1161 0
M  V30 1845 H 181.307 0.203872 0.631927 0
M  V30 1846 H 183.837 1.19225 1.66272 0
M  V30 1847 H 183.847 0.597912 4.03595 0
M  V30 1848 H 182.522 1.72271 3.78544 0
M  V30 1849 H 181.099 -0.10784 3.72744 0
M  V30 1850 N 183.284 -1.43765 0.645699 0
M  V30 1851 C 184.514 -2.05953 0.163318 0
M  V30 1852 C 184.922 -1.48432 -1.17322 0
M  V30 1853 O 184.265 -0.607295 -1.73371 0
M  V30 1854 C 184.327 -3.59499 -0.0103065 0
M  V30 1855 C 183.991 -4.39563 1.25035 0
M  V30 1856 C 184.988 -4.72108 2.17739 0
M  V30 1857 C 182.673 -4.79697 1.48983 0
M  V30 1858 C 184.667 -5.43688 3.3269 0
M  V30 1859 C 182.354 -5.51023 2.64229 0
M  V30 1860 C 183.352 -5.8294 3.55908 0
M  V30 1861 O 183.04 -6.5281 4.69142 0
M  V30 1862 H 182.772 -0.670798 0.0836986 0
M  V30 1863 H 185.326 -1.85384 0.884407 0
M  V30 1864 H 183.556 -3.78613 -0.78669 0
M  V30 1865 H 185.245 -4.03408 -0.449087 0
M  V30 1866 H 186.011 -4.41627 2.00476 0
M  V30 1867 H 181.89 -4.54266 0.785078 0
M  V30 1868 H 185.434 -5.68517 4.04269 0
M  V30 1869 H 181.331 -5.8092 2.81429 0
M  V30 1870 H 182.099 -6.71288 4.6831 0
M  V30 1871 N 184.763 -0.387143 -1.52771 0
M  V30 1872 C 186.01 0.195735 -2.01552 0
M  V30 1873 C 186.338 1.46995 -1.27369 0
M  V30 1874 O 185.593 1.92325 -0.361879 0
M  V30 1875 C 185.892 0.512209 -3.53711 0
M  V30 1876 C 185.558 -0.670202 -4.45891 0
M  V30 1877 C 184.22 -0.994586 -4.70809 0
M  V30 1878 C 186.572 -1.46134 -5.00294 0
M  V30 1879 C 183.9 -2.11169 -5.4738 0
M  V30 1880 C 186.252 -2.56903 -5.78086 0
M  V30 1881 C 184.916 -2.89852 -6.01284 0
M  V30 1882 H 184.186 0.0716246 -0.73753 0
M  V30 1883 H 186.833 -0.524046 -1.8419 0
M  V30 1884 H 185.138 1.31329 -3.69134 0
M  V30 1885 H 186.835 0.975804 -3.88946 0
M  V30 1886 H 183.425 -0.407366 -4.2666 0
M  V30 1887 H 187.609 -1.22397 -4.80971 0
M  V30 1888 H 182.865 -2.3707 -5.63567 0
M  V30 1889 H 187.039 -3.18608 -6.19243 0
M  V30 1890 H 184.666 -3.76533 -6.60399 0
M  V30 1891 N 186.241 1.57166 -0.116904 0
M  V30 1892 C 187.466 1.999 0.55271 0
M  V30 1893 C 187.891 0.996039 1.59564 0
M  V30 1894 O 187.249 -0.032556 1.81271 0
M  V30 1895 C 187.297 3.4152 1.15742 0
M  V30 1896 O 186.401 3.44106 2.27299 0
M  V30 1897 H 185.742 0.649447 0.138258 0
M  V30 1898 H 188.272 2.03573 -0.204759 0
M  V30 1899 H 188.282 3.79684 1.49346 0
M  V30 1900 H 186.957 4.14034 0.393493 0
M  V30 1901 H 185.534 3.17759 1.9515 0
M  V30 1902 N 187.719 -0.156864 1.56817 0
M  V30 1903 C 188.947 -0.886316 1.86955 0
M  V30 1904 C 189.362 -1.75185 0.703975 0
M  V30 1905 O 188.719 -1.79555 -0.326552 0
M  V30 1906 C 188.77 -1.75117 3.16253 0
M  V30 1907 O 188.491 -0.920537 4.2832 0
M  V30 1908 C 189.992 -2.58905 3.59837 0
M  V30 1909 H 187.212 -0.25678 0.619923 0
M  V30 1910 H 189.756 -0.152615 2.0393 0
M  V30 1911 H 187.911 -2.43805 3.01062 0
M  V30 1912 H 188.325 -1.51337 5.02192 0
M  V30 1913 H 189.799 -3.1518 4.53172 0
M  V30 1914 H 190.276 -3.34472 2.84649 0
M  V30 1915 H 190.882 -1.95526 3.7769 0
M  V30 1916 N 189.197 -1.51736 -0.425897 0
M  V30 1917 C 190.443 -1.65214 -1.1761 0
M  V30 1918 C 190.776 -0.372778 -1.90589 0
M  V30 1919 O 190.051 0.628139 -1.84078 0
M  V30 1920 C 190.334 -2.86312 -2.18398 0
M  V30 1921 C 190.187 -4.24254 -1.49426 0
M  V30 1922 C 191.506 -3.02925 -3.19256 0
M  V30 1923 H 188.625 -0.601263 -0.426206 0
M  V30 1924 H 191.267 -1.8425 -0.463882 0
M  V30 1925 H 189.417 -2.70213 -2.79137 0
M  V30 1926 H 191.089 -4.52046 -0.919362 0
M  V30 1927 H 189.332 -4.26426 -0.796432 0
M  V30 1928 H 190.003 -5.05001 -2.22885 0
M  V30 1929 H 192.479 -3.1781 -2.68581 0
M  V30 1930 H 191.355 -3.89199 -3.8706 0
M  V30 1931 H 191.616 -2.15497 -3.86023 0
M  V30 1932 N 190.675 0.682077 -1.42076 0
M  V30 1933 C 191.622 1.79578 -1.44984 0
M  V30 1934 C 192.592 1.6332 -0.302614 0
M  V30 1935 O 193.777 1.83978 -0.505633 0
M  V30 1936 C 190.917 3.1756 -1.35091 0
M  V30 1937 C 190.03 3.45156 -2.59791 0
M  V30 1938 C 189.165 4.72826 -2.42093 0
M  V30 1939 C 188.204 4.93433 -3.62202 0
M  V30 1940 N 187.341 6.12338 -3.43491 0
M  V30 1941 H 192.181 1.76427 -2.40161 0
M  V30 1942 H 189.718 0.861376 -1.19242 0
M  V30 1943 H 191.676 3.97287 -1.27354 0
M  V30 1944 H 190.306 3.19854 -0.435133 0
M  V30 1945 H 189.358 2.59736 -2.77923 0
M  V30 1946 H 190.67 3.5628 -3.49094 0
M  V30 1947 H 189.824 5.60631 -2.319 0
M  V30 1948 H 188.563 4.63973 -1.50268 0
M  V30 1949 H 187.568 4.04073 -3.72834 0
M  V30 1950 H 188.793 5.04136 -4.54998 0
M  V30 1951 H 186.739 6.04672 -2.54377 0
M  V30 1952 H 186.656 6.2429 -4.26377 0
M  V30 1953 H 187.924 7.02841 -3.37097 0
M  V30 1954 N 192.153 1.28127 0.917671 0
M  V30 1955 C 193.402 1.14432 1.66097 0
M  V30 1956 C 193.715 -0.307247 1.93172 0
M  V30 1957 O 194.921 -0.565259 2.65551 0
M  V30 1958 C 193.377 2.00015 2.99202 0
M  V30 1959 C 192.985 3.49889 2.79789 0
M  V30 1960 C 194.729 1.94996 3.77064 0
M  V30 1961 C 192.636 4.27636 4.08511 0
M  V30 1962 H 191.566 0.424662 0.62304 0
M  V30 1963 H 194.217 1.52628 1.01868 0
M  V30 1964 H 192.599 1.54672 3.64544 0
M  V30 1965 H 193.773 4.03162 2.23152 0
M  V30 1966 H 192.088 3.56392 2.15345 0
M  V30 1967 H 194.685 2.50354 4.72469 0
M  V30 1968 H 195.028 0.925819 4.05875 0
M  V30 1969 H 195.561 2.38287 3.18534 0
M  V30 1970 H 192.3 5.30615 3.84874 0
M  V30 1971 H 191.82 3.79137 4.64774 0
M  V30 1972 H 193.499 4.37346 4.76799 0
M  V30 1973 N 193.631 -1.12557 1.10312 0
M  V30 1974 C 194.88 -1.83395 0.839588 0
M  V30 1975 C 195.193 -1.84939 -0.636929 0
M  V30 1976 O 196.399 -2.51761 -1.01631 0
M  V30 1977 C 194.855 -3.29303 1.45215 0
M  V30 1978 C 194.463 -3.36122 2.96186 0
M  V30 1979 C 196.207 -4.05121 1.26796 0
M  V30 1980 C 194.114 -4.76357 3.50483 0
M  V30 1981 H 193.044 -0.687133 0.310425 0
M  V30 1982 H 195.695 -1.26746 1.32694 0
M  V30 1983 H 194.077 -3.85812 0.892469 0
M  V30 1984 H 195.251 -2.89559 3.58458 0
M  V30 1985 H 193.566 -2.73776 3.13745 0
M  V30 1986 H 196.163 -5.08668 1.64806 0
M  V30 1987 H 196.506 -4.15773 0.209409 0
M  V30 1988 H 197.039 -3.54967 1.79563 0
M  V30 1989 H 193.778 -4.70899 4.55998 0
M  V30 1990 H 193.298 -5.23377 2.92978 0
M  V30 1991 H 194.977 -5.45294 3.48228 0
M  V30 1992 N 195.109 -0.891671 -1.2995 0
M  V30 1993 C 196.339 -0.527893 -1.99742 0
M  V30 1994 C 196.747 0.88979 -1.66971 0
M  V30 1995 O 196.09 1.59766 -0.906667 0
M  V30 1996 C 196.152 -0.630804 -3.53922 0
M  V30 1997 C 195.816 -2.01401 -4.10228 0
M  V30 1998 C 196.813 -2.98422 -4.25724 0
M  V30 1999 C 194.498 -2.32121 -4.45449 0
M  V30 2000 C 196.492 -4.24293 -4.75662 0
M  V30 2001 C 194.179 -3.58237 -4.95086 0
M  V30 2002 C 195.177 -4.54137 -5.10146 0
M  V30 2003 O 194.865 -5.78014 -5.58708 0
M  V30 2004 H 194.597 -0.201953 -0.645129 0
M  V30 2005 H 197.151 -1.20076 -1.66646 0
M  V30 2006 H 195.381 0.0990616 -3.86573 0
M  V30 2007 H 197.07 -0.277338 -4.04951 0
M  V30 2008 H 197.836 -2.76001 -3.98809 0
M  V30 2009 H 193.715 -1.5824 -4.32991 0
M  V30 2010 H 197.259 -4.99153 -4.87332 0
M  V30 2011 H 193.156 -3.80491 -5.21437 0
M  V30 2012 H 193.924 -5.8049 -5.77039 0
M  V30 2013 N 196.587 1.43421 -0.653314 0
M  V30 2014 C 197.815 2.06163 -0.174491 0
M  V30 2015 C 198.23 1.48969 1.1599 0
M  V30 2016 O 197.587 0.621042 1.71608 0
M  V30 2017 C 197.638 3.61417 -0.0774865 0
M  V30 2018 O 197.359 4.16485 -1.35912 0
M  V30 2019 C 198.86 4.41235 0.427402 0
M  V30 2020 H 196.08 0.664946 -0.0899353 0
M  V30 2021 H 198.624 1.83924 -0.893988 0
M  V30 2022 H 196.779 3.82841 0.59257 0
M  V30 2023 H 197.193 5.10153 -1.21839 0
M  V30 2024 H 198.667 5.5021 0.44423 0
M  V30 2025 H 199.144 4.14268 1.45873 0
M  V30 2026 H 199.75 4.2478 -0.210167 0
M  V30 2027 N 198.065 0.39524 1.52563 0
M  V30 2028 C 199.311 -0.185318 2.01952 0
M  V30 2029 C 199.644 -1.45964 1.28095 0
M  V30 2030 O 198.919 -1.90689 0.38315 0
M  V30 2031 C 199.202 -0.447193 3.57312 0
M  V30 2032 C 199.055 0.842828 4.41833 0
M  V30 2033 C 200.374 -1.23529 4.22408 0
M  V30 2034 H 197.493 -0.0658788 0.73405 0
M  V30 2035 H 200.135 0.525975 1.82575 0
M  V30 2036 H 198.285 -1.05312 3.73954 0
M  V30 2037 H 199.957 1.4795 4.36931 0
M  V30 2038 H 198.2 1.45686 4.08605 0
M  V30 2039 H 198.871 0.614165 5.48573 0
M  V30 2040 H 201.347 -0.722445 4.0978 0
M  V30 2041 H 200.223 -1.38727 5.3108 0
M  V30 2042 H 200.484 -2.25213 3.80436 0
M  V30 2043 N 199.544 -1.57102 0.125237 0
M  V30 2044 C 200.792 -1.95021 -0.530198 0
M  V30 2045 C 201.113 -1.00982 -1.66816 0
M  V30 2046 O 200.383 -0.0672693 -1.95784 0
M  V30 2047 H 198.963 -0.720046 -0.198853 0
M  V30 2048 H 201.625 -1.93916 0.19564 0
M  V30 2049 H 200.721 -2.98211 -0.920681 0
M  V30 2050 N 201.022 0.148545 -1.56898 0
M  V30 2051 C 201.972 1.1886 -1.94567 0
M  V30 2052 C 202.956 1.3863 -0.816735 0
M  V30 2053 O 204.148 1.40218 -1.08018 0
M  V30 2054 C 201.277 2.52262 -2.32849 0
M  V30 2055 C 200.363 2.36092 -3.52309 0
M  V30 2056 N 200.754 1.89674 -4.6889 0
M  V30 2057 C 199.052 2.66848 -3.57363 0
M  V30 2058 C 199.753 1.86511 -5.50989 0
M  V30 2059 N 198.729 2.29766 -4.92655 0
M  V30 2060 H 202.531 0.821793 -2.82177 0
M  V30 2061 H 200.045 0.356615 -1.58436 0
M  V30 2062 H 202.042 3.27447 -2.58039 0
M  V30 2063 H 200.702 2.89727 -1.46589 0
M  V30 2064 H 201.713 1.59663 -4.92674 0
M  V30 2065 H 198.39 3.08198 -2.81639 0
M  V30 2066 H 199.78 1.52128 -6.54452 0
M  V30 2067 N 202.5 1.5196 0.417844 0
M  V30 2068 C 203.725 1.69717 1.1921 0
M  V30 2069 C 204.15 0.402148 1.83751 0
M  V30 2070 O 203.508 -0.639593 1.69643 0
M  V30 2071 C 203.556 2.82794 2.2374 0
M  V30 2072 O 202.66 2.47756 3.29683 0
M  V30 2073 H 202.001 0.565263 0.348387 0
M  V30 2074 H 204.531 1.98621 0.490985 0
M  V30 2075 H 204.541 3.07452 2.68212 0
M  V30 2076 H 203.216 3.76756 1.76146 0
M  V30 2077 H 201.793 2.33739 2.90552 0
M  V30 2078 N 203.978 -0.674533 1.42435 0
M  V30 2079 C 205.227 -1.43034 1.42212 0
M  V30 2080 C 205.54 -1.95555 0.0420788 0
M  V30 2081 O 206.746 -2.71374 -0.0827558 0
M  V30 2082 C 205.202 -2.58748 2.50155 0
M  V30 2083 C 204.81 -2.12925 3.94166 0
M  V30 2084 C 206.554 -3.36257 2.59098 0
M  V30 2085 C 204.461 -3.25723 4.93618 0
M  V30 2086 H 203.391 -0.537345 0.528939 0
M  V30 2087 H 206.042 -0.73024 1.68344 0
M  V30 2088 H 204.424 -3.31128 2.17188 0
M  V30 2089 H 205.598 -1.47697 4.36488 0
M  V30 2090 H 203.913 -1.48354 3.89076 0
M  V30 2091 H 206.51 -4.20264 3.30578 0
M  V30 2092 H 206.853 -3.82866 1.63461 0
M  V30 2093 H 207.386 -2.70947 2.9126 0
M  V30 2094 H 204.125 -2.84105 5.90732 0
M  V30 2095 H 203.645 -3.89732 4.55926 0
M  V30 2096 H 205.324 -3.91186 5.15347 0
M  V30 2097 N 205.456 -1.28612 -0.910864 0
M  V30 2098 C 206.681 -1.1891 -1.69927 0
M  V30 2099 C 207.106 0.248372 -1.86453 0
M  V30 2100 O 206.464 1.17961 -1.37676 0
M  V30 2101 C 206.512 -1.89578 -3.06745 0
M  V30 2102 O 205.616 -1.20521 -3.94396 0
M  V30 2103 H 204.957 -0.412632 -0.520222 0
M  V30 2104 H 207.487 -1.69985 -1.1387 0
M  V30 2105 H 207.497 -1.97597 -3.56958 0
M  V30 2106 H 206.172 -2.94136 -2.94035 0
M  V30 2107 H 204.749 -1.20684 -3.52831 0
M  V30 2108 N 206.934 1.1197 -1.10907 0
M  V30 2109 C 208.183 1.82947 -0.849302 0
M  V30 2110 C 208.496 1.85275 0.627112 0
M  V30 2111 O 209.702 2.52296 1.00295 0
M  V30 2112 C 208.158 3.28529 -1.46959 0
M  V30 2113 C 207.766 3.34546 -2.97965 0
M  V30 2114 C 209.51 4.04443 -1.28942 0
M  V30 2115 C 207.417 4.74491 -3.53004 0
M  V30 2116 H 206.347 0.685477 -0.314065 0
M  V30 2117 H 208.998 1.2604 -1.33365 0
M  V30 2118 H 207.38 3.85333 -0.912917 0
M  V30 2119 H 208.554 2.87654 -3.59989 0
M  V30 2120 H 206.869 2.72108 -3.15192 0
M  V30 2121 H 209.466 5.07787 -1.67502 0
M  V30 2122 H 209.809 4.15656 -0.231456 0
M  V30 2123 H 210.342 3.5401 -1.81443 0
M  V30 2124 H 207.081 4.68474 -4.58489 0
M  V30 2125 H 206.601 5.21816 -2.9575 0
M  V30 2126 H 208.28 5.4344 -3.51115 0
M  V30 2127 N 208.412 0.89855 1.29475 0
M  V30 2128 C 209.658 0.524658 1.95896 0
M  V30 2129 C 209.991 -0.926468 1.70676 0
M  V30 2130 O 209.266 -1.65665 1.01908 0
M  V30 2131 C 209.549 0.81633 3.50725 0
M  V30 2132 C 209.402 2.31907 3.85408 0
M  V30 2133 C 210.721 0.302038 4.39062 0
M  V30 2134 H 207.84 0.19209 0.711527 0
M  V30 2135 H 210.482 1.12502 1.53112 0
M  V30 2136 H 208.632 0.305369 3.87298 0
M  V30 2137 H 210.304 2.89949 3.58786 0
M  V30 2138 H 208.547 2.78027 3.32992 0
M  V30 2139 H 209.218 2.47373 4.93468 0
M  V30 2140 H 211.694 0.739551 4.09475 0
M  V30 2141 H 210.57 0.535331 5.46283 0
M  V30 2142 H 210.831 -0.797216 4.34853 0
M  V30 2143 N 209.89 -1.43072 0.660911 0
M  V30 2144 C 210.853 -2.29194 -0.0166406 0
M  V30 2145 C 211.853 -1.42609 -0.742912 0
M  V30 2146 O 213.043 -1.64155 -0.583004 0
M  V30 2147 C 210.175 -3.24831 -1.0343 0
M  V30 2148 H 211.368 -2.90596 0.741208 0
M  V30 2149 H 208.921 -1.5048 0.422532 0
M  V30 2150 H 209.656 -2.68339 -1.82111 0
M  V30 2151 H 209.441 -3.88676 -0.517082 0
M  V30 2152 H 210.931 -3.89451 -1.50723 0
M  V30 2153 N 211.368 -0.403325 -1.52352 0
M  V30 2154 C 212.298 0.416205 -2.29761 0
M  V30 2155 C 213.279 1.05123 -1.33728 0
M  V30 2156 O 214.464 1.06134 -1.62632 0
M  V30 2157 C 211.594 1.53624 -3.11475 0
M  V30 2158 C 210.548 1.02653 -4.15507 0
M  V30 2159 C 209.874 2.23971 -4.85532 0
M  V30 2160 C 211.174 0.08463 -5.22231 0
M  V30 2161 H 212.868 -0.229701 -2.98518 0
M  V30 2162 H 210.414 -0.111913 -1.43564 0
M  V30 2163 H 212.367 2.1165 -3.64393 0
M  V30 2164 H 211.091 2.20994 -2.40477 0
M  V30 2165 H 209.75 0.46871 -3.63591 0
M  V30 2166 H 209.398 2.89883 -4.11068 0
M  V30 2167 H 209.098 1.90521 -5.55856 0
M  V30 2168 H 210.622 2.82614 -5.41259 0
M  V30 2169 H 212.036 0.573509 -5.70424 0
M  V30 2170 H 210.433 -0.160783 -5.99885 0
M  V30 2171 H 211.503 -0.86237 -4.7717 0
M  V30 2172 N 212.846 1.57033 -0.133567 0
M  V30 2173 C 214.093 1.95686 0.520877 0
M  V30 2174 C 214.421 1.0177 1.6575 0
M  V30 2175 O 213.676 0.0443195 1.9565 0
M  V30 2176 C 213.975 3.40674 1.08057 0
M  V30 2177 C 213.641 4.50855 0.0637899 0
M  V30 2178 C 212.303 4.80716 -0.215757 0
M  V30 2179 C 214.655 5.17398 -0.62835 0
M  V30 2180 C 211.983 5.74433 -1.19348 0
M  V30 2181 C 214.335 6.12167 -1.5948 0
M  V30 2182 C 212.999 6.40414 -1.88218 0
M  V30 2183 H 212.269 0.716067 0.190602 0
M  V30 2184 H 214.916 1.9026 -0.217556 0
M  V30 2185 H 213.221 3.42865 1.89606 0
M  V30 2186 H 214.918 3.67902 1.59529 0
M  V30 2187 H 211.508 4.27605 0.291855 0
M  V30 2188 H 215.692 4.94472 -0.425562 0
M  V30 2189 H 210.948 5.94616 -1.42272 0
M  V30 2190 H 215.122 6.6281 -2.13671 0
M  V30 2191 H 212.749 7.12838 -2.64133 0
M  V30 2192 N 214.325 -0.140222 1.56975 0
M  V30 2193 C 215.571 -0.852949 1.83991 0
M  V30 2194 C 215.904 -1.80512 0.716187 0
M  V30 2195 O 215.179 -1.92479 -0.279681 0
M  V30 2196 C 215.462 -1.6215 3.21527 0
M  V30 2197 C 215.315 -0.690363 4.4447 0
M  V30 2198 C 216.634 -2.58247 3.56366 0
M  V30 2199 H 213.753 -0.308634 0.669264 0
M  V30 2200 H 216.395 -0.117898 1.89634 0
M  V30 2201 H 214.545 -2.24812 3.16847 0
M  V30 2202 H 216.217 -0.0742264 4.6124 0
M  V30 2203 H 214.46 -0.000396433 4.338 0
M  V30 2204 H 215.131 -1.2643 5.37326 0
M  V30 2205 H 217.607 -2.05701 3.61699 0
M  V30 2206 H 216.483 -3.09067 4.53617 0
M  V30 2207 H 216.744 -3.39923 2.82674 0
M  V30 2208 N 215.803 -1.52179 -0.40978 0
M  V30 2209 C 216.766 -1.74853 -1.48186 0
M  V30 2210 C 217.766 -0.618417 -1.48433 0
M  V30 2211 O 218.956 -0.886286 -1.49969 0
M  V30 2212 C 216.088 -1.8303 -2.87598 0
M  V30 2213 H 217.281 -2.70559 -1.29374 0
M  V30 2214 H 214.834 -1.42586 -0.640233 0
M  V30 2215 H 215.569 -0.89236 -3.11781 0
M  V30 2216 H 215.354 -2.65187 -2.88822 0
M  V30 2217 H 216.844 -2.02316 -3.65319 0
M  V30 2218 N 217.281 0.66697 -1.42791 0
M  V30 2219 C 218.53 1.42278 -1.42968 0
M  V30 2220 C 218.843 1.9553 -0.0524489 0
M  V30 2221 O 220.049 2.71414 0.068363 0
M  V30 2222 C 218.505 2.57418 -2.51524 0
M  V30 2223 C 218.113 2.10832 -3.9529 0
M  V30 2224 C 219.857 3.34878 -2.60877 0
M  V30 2225 C 217.764 3.23101 -4.95338 0
M  V30 2226 H 216.694 0.534533 -0.531781 0
M  V30 2227 H 219.345 0.721302 -1.68729 0
M  V30 2228 H 217.727 3.29971 -2.18941 0
M  V30 2229 H 218.901 1.4538 -4.37266 0
M  V30 2230 H 217.216 1.46289 -3.89857 0
M  V30 2231 H 219.813 4.18505 -3.32802 0
M  V30 2232 H 220.156 3.81993 -1.6549 0
M  V30 2233 H 220.689 2.69398 -2.92693 0
M  V30 2234 H 217.428 2.80969 -5.9223 0
M  V30 2235 H 216.948 3.87309 -4.57987 0
M  V30 2236 H 218.627 3.88447 -5.17415 0
M  V30 2237 N 218.759 1.29093 0.90403 0
M  V30 2238 C 219.987 1.19689 1.68766 0
M  V30 2239 C 220.402 -0.243113 1.87228 0
M  V30 2240 O 219.759 -1.16326 1.40621 0
M  V30 2241 C 219.81 1.90144 3.07453 0
M  V30 2242 O 219.531 3.2852 2.89838 0
M  V30 2243 C 221.032 1.87162 4.01852 0
M  V30 2244 H 218.252 0.415035 0.527244 0
M  V30 2245 H 220.796 1.7039 1.13082 0
M  V30 2246 H 218.951 1.43289 3.59926 0
M  V30 2247 H 219.365 3.63944 3.77684 0
M  V30 2248 H 220.839 2.41032 4.96596 0
M  V30 2249 H 221.316 0.84617 4.30972 0
M  V30 2250 H 221.922 2.33741 3.5531 0
M  V30 2251 N 220.237 -1.11381 1.11499 0
M  V30 2252 C 221.486 -1.82494 0.858993 0
M  V30 2253 C 221.799 -1.85605 -0.617278 0
M  V30 2254 O 223.005 -2.52824 -0.989552 0
M  V30 2255 C 221.461 -3.27745 1.48699 0
M  V30 2256 C 221.069 -3.32961 2.99735 0
M  V30 2257 C 222.813 -4.03754 1.31085 0
M  V30 2258 C 220.72 -4.72612 3.55516 0
M  V30 2259 H 219.65 -0.683802 0.317696 0
M  V30 2260 H 222.301 -1.25331 1.34031 0
M  V30 2261 H 220.683 -3.84844 0.933339 0
M  V30 2262 H 221.857 -2.85741 3.61509 0
M  V30 2263 H 220.172 -2.70433 3.16631 0
M  V30 2264 H 222.769 -5.06891 1.70192 0
M  V30 2265 H 223.112 -4.15527 0.253496 0
M  V30 2266 H 223.645 -3.53043 1.83318 0
M  V30 2267 H 220.384 -4.66036 4.60967 0
M  V30 2268 H 219.904 -5.2024 2.98513 0
M  V30 2269 H 221.583 -5.4157 3.53992 0
M  V30 2270 N 221.715 -0.905404 -1.28997 0
M  V30 2271 C 222.645 -0.404212 -2.29975 0
M  V30 2272 C 223.626 0.523784 -1.61835 0
M  V30 2273 O 224.811 0.433298 -1.89304 0
M  V30 2274 C 221.941 0.364042 -3.45387 0
M  V30 2275 C 220.895 -0.474048 -4.25367 0
M  V30 2276 C 220.221 0.422045 -5.33032 0
M  V30 2277 C 221.521 -1.72696 -4.92923 0
M  V30 2278 H 223.215 -1.24807 -2.72146 0
M  V30 2279 H 220.761 -0.601585 -1.30832 0
M  V30 2280 H 222.714 0.725447 -4.15109 0
M  V30 2281 H 221.438 1.24174 -3.02074 0
M  V30 2282 H 220.097 -0.81786 -3.57361 0
M  V30 2283 H 219.745 1.29804 -4.85963 0
M  V30 2284 H 219.445 -0.135057 -5.87445 0
M  V30 2285 H 220.969 0.779517 -6.05604 0
M  V30 2286 H 222.383 -1.43495 -5.55051 0
M  V30 2287 H 220.78 -2.22582 -5.57295 0
M  V30 2288 H 221.85 -2.45964 -4.17887 0
M  V30 2289 N 223.193 1.4272 -0.668489 0
M  V30 2290 C 224.439 2.01923 -0.188419 0
M  V30 2291 C 224.772 1.52704 1.19979 0
M  V30 2292 O 224.047 0.726566 1.8042 0
M  V30 2293 C 224.33 3.59451 -0.216085 0
M  V30 2294 C 224.183 4.18864 -1.6393 0
M  V30 2295 C 225.502 4.37903 0.439179 0
M  V30 2296 H 222.621 0.733674 -0.0699412 0
M  V30 2297 H 225.263 1.69822 -0.852076 0
M  V30 2298 H 223.413 3.86929 0.349012 0
M  V30 2299 H 225.085 4.02362 -2.25616 0
M  V30 2300 H 223.328 3.74933 -2.18193 0
M  V30 2301 H 223.999 5.27987 -1.61039 0
M  V30 2302 H 226.475 4.16079 -0.0417878 0
M  V30 2303 H 225.351 5.47519 0.389157 0
M  V30 2304 H 225.612 4.15303 1.51577 0
M  V30 2305 N 224.671 0.411399 1.52136 0
M  V30 2306 C 225.634 -0.401089 2.25663 0
M  V30 2307 C 226.634 -0.971732 1.28117 0
M  V30 2308 O 227.824 -0.850254 1.52041 0
M  V30 2309 C 224.956 -1.56483 3.02863 0
M  V30 2310 H 226.149 0.24295 2.98914 0
M  V30 2311 H 223.702 0.163968 1.55438 0
M  V30 2312 H 224.437 -2.24567 2.33967 0
M  V30 2313 H 224.222 -1.16211 3.74483 0
M  V30 2314 H 225.712 -2.13951 3.58629 0
M  V30 2315 N 226.149 -1.5696 0.141893 0
M  V30 2316 C 227.079 -2.19516 -0.795936 0
M  V30 2317 C 228.06 -1.14187 -1.26077 0
M  V30 2318 O 229.245 -1.42511 -1.31925 0
M  V30 2319 C 226.375 -2.81272 -2.03723 0
M  V30 2320 C 225.329 -3.92384 -1.70936 0
M  V30 2321 C 224.655 -4.41052 -3.02287 0
M  V30 2322 C 225.955 -5.13403 -0.959954 0
M  V30 2323 H 227.649 -2.98138 -0.274596 0
M  V30 2324 H 225.195 -1.43406 -0.130636 0
M  V30 2325 H 227.148 -3.237 -2.69808 0
M  V30 2326 H 225.872 -1.99973 -2.58221 0
M  V30 2327 H 224.531 -3.50566 -1.07232 0
M  V30 2328 H 224.179 -3.56582 -3.54765 0
M  V30 2329 H 223.879 -5.15993 -2.81114 0
M  V30 2330 H 225.403 -4.86146 -3.69451 0
M  V30 2331 H 226.817 -5.52706 -1.52279 0
M  V30 2332 H 225.214 -5.94073 -0.848357 0
M  V30 2333 H 226.284 -4.84875 0.0492434 0
M  V30 2334 N 227.627 0.131896 -1.57047 0
M  V30 2335 C 229.043 0.485031 -1.52051 0
M  V30 2336 C 229.243 1.82563 -0.85281 0
M  V30 2337 O 228.299 2.48817 -0.429694 0
M  V30 2338 C 229.612 0.481409 -2.96821 0
M  V30 2339 C 231.16 0.565868 -3.07842 0
M  V30 2340 C 231.635 0.592762 -4.54148 0
M  V30 2341 N 233.126 0.654564 -4.58552 0
M  V30 2342 C 233.861 0.696608 -5.69153 0
M  V30 2343 N 233.357 0.697078 -6.89284 0
M  V30 2344 N 235.15 0.738639 -5.57226 0
M  V30 2345 H 227.301 -0.746664 -1.98843 0
M  V30 2346 H 229.564 -0.273999 -0.90754 0
M  V30 2347 H 229.27 -0.435731 -3.4899 0
M  V30 2348 H 229.144 1.3139 -3.53577 0
M  V30 2349 H 231.531 1.47343 -2.55684 0
M  V30 2350 H 231.612 -0.29406 -2.54104 0
M  V30 2351 H 231.256 -0.310701 -5.06949 0
M  V30 2352 H 231.186 1.46939 -5.05684 0
M  V30 2353 H 233.677 0.660887 -3.72076 0
M  V30 2354 H 233.99 0.731426 -7.69331 0
M  V30 2355 H 232.335 0.66471 -6.91814 0
M  V30 2356 H 235.526 0.735545 -4.62285 0
M  V30 2357 H 235.699 0.767938 -6.43434 0
M  V30 2358 N 229.106 1.52395 0.401703 0
M  V30 2359 C 230.522 1.41363 0.740864 0
M  V30 2360 C 230.722 0.523982 1.94568 0
M  V30 2361 O 229.778 -0.00741204 2.52499 0
M  V30 2362 C 231.091 2.84011 0.987847 0
M  V30 2363 C 232.639 2.93404 1.09011 0
M  V30 2364 C 233.114 4.37036 1.3698 0
M  V30 2365 N 234.605 4.40304 1.43829 0
M  V30 2366 C 235.34 5.48508 1.67112 0
M  V30 2367 N 234.836 6.66819 1.87949 0
M  V30 2368 N 236.629 5.36034 1.69187 0
M  V30 2369 H 228.78 2.08765 -0.391262 0
M  V30 2370 H 231.043 0.941265 -0.112798 0
M  V30 2371 H 230.749 3.51265 0.174835 0
M  V30 2372 H 230.623 3.25502 1.906 0
M  V30 2373 H 233.01 2.26325 1.8937 0
M  V30 2374 H 233.091 2.55359 0.15015 0
M  V30 2375 H 232.735 5.04676 0.571353 0
M  V30 2376 H 232.665 4.72623 2.3224 0
M  V30 2377 H 235.156 3.55024 1.29486 0
M  V30 2378 H 235.469 7.45063 2.05185 0
M  V30 2379 H 233.814 6.6987 1.85199 0
M  V30 2380 H 237.005 4.42579 1.52451 0
M  V30 2381 H 237.178 6.20434 1.86993 0
M  V30 2382 N 230.584 -0.659388 1.43143 0
M  V30 2383 C 231.514 -1.78422 1.50625 0
M  V30 2384 C 232.495 -1.66216 0.361443 0
M  V30 2385 O 233.68 -1.85404 0.577834 0
M  V30 2386 C 230.81 -3.16815 1.42287 0
M  V30 2387 C 229.764 -3.43777 2.54954 0
M  V30 2388 C 229.09 -4.81905 2.31671 0
M  V30 2389 C 230.39 -3.39134 3.97222 0
M  V30 2390 H 232.084 -1.72417 2.44771 0
M  V30 2391 H 229.63 -0.828084 1.17808 0
M  V30 2392 H 231.583 -3.95253 1.46127 0
M  V30 2393 H 230.307 -3.23534 0.446435 0
M  V30 2394 H 228.966 -2.67707 2.50457 0
M  V30 2395 H 228.614 -4.85294 1.32284 0
M  V30 2396 H 228.314 -5.00906 3.07192 0
M  V30 2397 H 229.838 -5.62609 2.37284 0
M  V30 2398 H 231.252 -4.07518 4.03239 0
M  V30 2399 H 229.649 -3.69671 4.72719 0
M  V30 2400 H 230.719 -2.37426 4.22797 0
M  V30 2401 N 232.062 -1.29571 -0.897171 0
M  V30 2402 C 233.012 -1.11539 -1.98855 0
M  V30 2403 C 233.996 -0.0340716 -1.60864 0
M  V30 2404 O 235.188 -0.256062 -1.75138 0
M  V30 2405 C 232.317 -0.796603 -3.3393 0
M  V30 2406 C 231.403 -1.91758 -3.78272 0
M  V30 2407 N 231.794 -3.16143 -3.94826 0
M  V30 2408 C 230.092 -1.81119 -4.07568 0
M  V30 2409 C 230.793 -3.89293 -4.32233 0
M  V30 2410 N 229.769 -3.17255 -4.41419 0
M  V30 2411 H 233.571 -2.05894 -2.09726 0
M  V30 2412 H 231.085 -1.20732 -1.08616 0
M  V30 2413 H 233.082 -0.648459 -4.11826 0
M  V30 2414 H 231.742 0.139003 -3.24402 0
M  V30 2415 H 232.753 -3.5157 -3.80288 0
M  V30 2416 H 229.43 -0.948461 -4.06584 0
M  V30 2417 H 230.82 -4.9635 -4.52865 0
M  V30 2418 N 233.54 1.10788 -1.12088 0
M  V30 2419 C 234.78 1.84297 -0.883974 0
M  V30 2420 C 235.144 1.83036 0.579797 0
M  V30 2421 O 236.345 2.52061 0.933734 0
M  V30 2422 C 234.616 3.27173 -1.43849 0
M  V30 2423 S 236.175 4.17853 -1.33957 0
M  V30 2424 H 232.993 0.635433 -0.318977 0
M  V30 2425 H 235.595 1.33341 -1.4297 0
M  V30 2426 H 234.299 3.25658 -2.49749 0
M  V30 2427 H 233.83 3.83198 -0.890096 0
M  V30 2428 H 235.845 4.95239 -0.308603 0
M  V30 2429 N 235.018 0.912232 1.28515 0
M  V30 2430 C 236.429 0.591352 1.77087 0
M  V30 2431 C 236.78 -0.8933 1.74684 0
M  V30 2432 O 235.905 -1.69876 1.34056 0
M  V30 2433 C 236.5 1.06668 3.2157 0
M  V30 2434 C 235.059 0.79675 3.67871 0
M  V30 2435 C 234.206 1.23427 2.48316 0
M  V30 2436 H 237.157 1.09365 1.15 0
M  V30 2437 H 237.178 0.407455 3.78312 0
M  V30 2438 H 236.69 2.14726 3.23287 0
M  V30 2439 H 234.791 -0.270679 3.71616 0
M  V30 2440 H 234.904 1.40343 4.58084 0
M  V30 2441 H 233.268 0.653036 2.46186 0
M  V30 2442 H 234.051 2.32316 2.52753 0
M  V30 2443 N 236.496 -1.42363 0.676048 0
M  V30 2444 C 237.912 -1.55811 0.345718 0
M  V30 2445 C 238.112 -1.65544 -1.14879 0
M  V30 2446 O 237.168 -1.62306 -1.93424 0
M  V30 2447 C 238.481 -2.80746 1.07713 0
M  V30 2448 C 240.029 -2.9452 1.05958 0
M  V30 2449 C 240.504 -4.22318 1.77233 0
M  V30 2450 N 241.995 -4.29233 1.74108 0
M  V30 2451 C 242.73 -5.26935 2.26113 0
M  V30 2452 N 242.226 -6.30783 2.86505 0
M  V30 2453 N 244.019 -5.18741 2.1648 0
M  V30 2454 H 236.17 -1.34289 1.6456 0
M  V30 2455 H 238.433 -0.646506 0.69335 0
M  V30 2456 H 238.139 -2.79696 2.13221 0
M  V30 2457 H 238.013 -3.71676 0.64316 0
M  V30 2458 H 240.4 -2.95097 0.0128255 0
M  V30 2459 H 240.481 -2.04817 1.53244 0
M  V30 2460 H 240.125 -4.22502 2.81877 0
M  V30 2461 H 240.055 -5.10958 1.27396 0
M  V30 2462 H 242.546 -3.54814 1.30059 0
M  V30 2463 H 242.859 -7.01691 3.23805 0
M  V30 2464 H 241.204 -6.31341 2.90575 0
M  V30 2465 H 244.395 -4.36533 1.68987 0
M  V30 2466 H 244.568 -5.94721 2.57316 0
M  V30 2467 N 237.974 -0.419461 -1.51915 0
M  V30 2468 C 238.922 0.415502 -2.28859 0
M  V30 2469 C 239.916 1.03674 -1.3397 0
M  V30 2470 O 241.122 0.973757 -1.51387 0
M  V30 2471 H 237.497 0.152786 -0.736315 0
M  V30 2472 H 239.468 -0.254531 -2.97312 0
M  V30 2473 C 238.217 1.51425 -3.12995 0
M  V30 2474 H 237.54 1.04556 -3.85886 0
M  V30 2475 H 238.98 2.07208 -3.6992 0
M  V30 2476 C 237.439 2.48745 -2.27217 0
M  V30 2477 O 237.969 3.52871 -1.9195 0
M  V30 2478 N 236.175 2.19202 -1.90785 0
M  V30 2479 H 235.722 1.34556 -2.19664 0
M  V30 2480 H 235.68 2.84561 -1.33687 0
M  V30 2481 N 239.452 1.56882 -0.150215 0
M  V30 2482 C 240.682 2.00302 0.506213 0
M  V30 2483 C 241.09 1.02934 1.58749 0
M  V30 2484 O 240.433 0.0188384 1.8369 0
M  V30 2485 C 240.495 3.40156 1.16337 0
M  V30 2486 C 240.159 4.56439 0.226311 0
M  V30 2487 C 241.156 5.17012 -0.547265 0
M  V30 2488 C 238.841 5.02136 0.128279 0
M  V30 2489 C 240.835 6.21693 -1.40629 0
M  V30 2490 C 238.522 6.06672 -0.734345 0
M  V30 2491 C 239.52 6.6632 -1.50023 0
M  V30 2492 O 239.208 7.68831 -2.34848 0
M  V30 2493 H 238.94 0.662182 0.135984 0
M  V30 2494 H 241.494 2.03961 -0.242746 0
M  V30 2495 H 239.724 3.33346 1.96004 0
M  V30 2496 H 241.413 3.67663 1.71985 0
M  V30 2497 H 242.179 4.82603 -0.48158 0
M  V30 2498 H 238.058 4.55435 0.714157 0
M  V30 2499 H 241.602 6.68179 -2.00455 0
M  V30 2500 H 237.499 6.40507 -0.801309 0
M  V30 2501 H 238.267 7.86065 -2.28131 0
M  V30 2502 N 240.93 -0.123565 1.57115 0
M  V30 2503 C 242.176 -0.833386 1.84885 0
M  V30 2504 C 242.509 -1.79742 0.735292 0
M  V30 2505 O 241.784 -1.92764 -0.25925 0
M  V30 2506 C 242.067 -1.5873 3.23228 0
M  V30 2507 C 241.92 -0.643183 4.45178 0
M  V30 2508 C 243.239 -2.54453 3.59085 0
M  V30 2509 H 240.358 -0.301518 0.6725 0
M  V30 2510 H 243 -0.097778 1.89748 0
M  V30 2511 H 241.15 -2.21438 3.19214 0
M  V30 2512 H 242.822 -0.0253015 4.61293 0
M  V30 2513 H 241.065 0.0456139 4.33776 0
M  V30 2514 H 241.736 -1.20724 5.38637 0
M  V30 2515 H 244.212 -2.01853 3.63861 0
M  V30 2516 H 243.088 -3.04238 4.5687 0
M  V30 2517 H 243.349 -3.36906 2.86264 0
M  V30 2518 N 242.408 -1.52605 -0.393616 0
M  V30 2519 C 243.358 -1.73436 -1.48 0
M  V30 2520 C 244.342 -0.588386 -1.49756 0
M  V30 2521 O 245.534 -0.846047 -1.5547 0
M  V30 2522 C 242.663 -1.90247 -2.85764 0
M  V30 2523 C 241.749 -3.10763 -2.88595 0
M  V30 2524 N 242.14 -4.33196 -2.61103 0
M  V30 2525 C 240.438 -3.10914 -3.19763 0
M  V30 2526 C 241.139 -5.1477 -2.70899 0
M  V30 2527 N 240.115 -4.50356 -3.04435 0
M  V30 2528 H 243.917 -2.65727 -1.25563 0
M  V30 2529 H 241.431 -1.5085 -0.601513 0
M  V30 2530 H 243.428 -2.03291 -3.63976 0
M  V30 2531 H 242.088 -0.991663 -3.09186 0
M  V30 2532 H 243.099 -4.61408 -2.35209 0
M  V30 2533 H 239.776 -2.29626 -3.4868 0
M  V30 2534 H 241.166 -6.22355 -2.53227 0
M  V30 2535 N 243.887 0.651787 -1.4349 0
M  V30 2536 C 245.115 1.43937 -1.48626 0
M  V30 2537 C 245.53 1.8851 -0.104587 0
M  V30 2538 O 244.887 1.5958 0.885464 0
M  V30 2539 C 244.938 2.6734 -2.43334 0
M  V30 2540 O 244.659 2.24631 -3.76128 0
M  V30 2541 C 246.16 3.60683 -2.57726 0
M  V30 2542 H 243.38 0.44213 -0.504739 0
M  V30 2543 H 245.924 0.798944 -1.88248 0
M  V30 2544 H 244.079 3.2752 -2.06904 0
M  V30 2545 H 244.493 3.04485 -4.2707 0
M  V30 2546 H 245.967 4.43933 -3.28067 0
M  V30 2547 H 246.444 4.08126 -1.62265 0
M  V30 2548 H 247.05 3.06384 -2.94973 0
M  V30 2549 N 245.365 1.30045 0.890287 0
M  V30 2550 C 246.297 1.11786 2.00091 0
M  V30 2551 C 247.31 0.0626307 1.62679 0
M  V30 2552 O 248.499 0.308112 1.75821 0
M  V30 2553 C 245.599 0.681527 3.31977 0
M  V30 2554 C 244.772 1.81735 3.97858 0
M  V30 2555 C 243.831 1.37045 5.08041 0
M  V30 2556 O 242.857 2.07677 5.29961 0
M  V30 2557 N 244.059 0.246525 5.79976 0
M  V30 2558 H 246.824 2.07441 2.16306 0
M  V30 2559 H 244.385 1.2211 1.06305 0
M  V30 2560 H 246.377 0.365675 4.03045 0
M  V30 2561 H 244.947 -0.182828 3.12065 0
M  V30 2562 H 244.167 2.30159 3.20032 0
M  V30 2563 H 245.455 2.57865 4.38615 0
M  V30 2564 H 244.853 -0.34215 5.64664 0
M  V30 2565 H 243.41 -0.00990438 6.51799 0
M  V30 2566 N 246.843 -1.10192 1.12674 0
M  V30 2567 C 247.773 -2.18652 0.819362 0
M  V30 2568 C 248.754 -1.68698 -0.217915 0
M  V30 2569 O 249.939 -1.94041 -0.0785581 0
M  V30 2570 C 247.069 -3.46202 0.27594 0
M  V30 2571 C 246.023 -4.09444 1.24656 0
M  V30 2572 C 245.349 -5.31725 0.563258 0
M  V30 2573 C 246.649 -4.52863 2.60217 0
M  V30 2574 H 248.343 -2.44622 1.72628 0
M  V30 2575 H 245.889 -1.17571 0.831451 0
M  V30 2576 H 247.842 -4.21372 0.0486149 0
M  V30 2577 H 246.566 -3.1973 -0.666331 0
M  V30 2578 H 245.225 -3.36284 1.45974 0
M  V30 2579 H 244.873 -5.0153 -0.384235 0
M  V30 2580 H 244.573 -5.74991 1.21075 0
M  V30 2581 H 246.097 -6.09624 0.34503 0
M  V30 2582 H 247.511 -5.19294 2.42913 0
M  V30 2583 H 245.908 -5.06986 3.21068 0
M  V30 2584 H 246.978 -3.65656 3.18471 0
M  V30 2585 N 248.321 -0.919034 -1.28029 0
M  V30 2586 C 249.568 -0.554934 -1.94748 0
M  V30 2587 C 249.896 0.90231 -1.72304 0
M  V30 2588 O 249.151 1.65767 -1.04018 0
M  V30 2589 C 249.45 -0.816855 -3.4794 0
M  V30 2590 C 249.116 -2.25448 -3.90492 0
M  V30 2591 C 247.778 -2.64752 -4.01821 0
M  V30 2592 C 250.13 -3.18977 -4.12193 0
M  V30 2593 C 247.458 -3.96727 -4.32232 0
M  V30 2594 C 249.81 -4.50523 -4.44086 0
M  V30 2595 C 248.474 -4.89673 -4.53626 0
M  V30 2596 H 247.744 -0.203065 -0.712633 0
M  V30 2597 H 250.391 -1.16136 -1.52265 0
M  V30 2598 H 248.696 -0.127677 -3.91592 0
M  V30 2599 H 250.393 -0.514238 -3.97689 0
M  V30 2600 H 246.983 -1.93952 -3.82205 0
M  V30 2601 H 251.167 -2.89817 -4.02889 0
M  V30 2602 H 246.423 -4.26754 -4.37825 0
M  V30 2603 H 250.597 -5.23005 -4.59825 0
M  V30 2604 H 248.224 -5.91969 -4.76946 0
M  V30 2605 N 249.799 1.42003 -0.683588 0
M  V30 2606 C 251.027 2.05746 -0.218182 0
M  V30 2607 C 251.442 1.51396 1.12804 0
M  V30 2608 O 250.799 0.657303 1.70252 0
M  V30 2609 C 250.85 3.61171 -0.154131 0
M  V30 2610 O 250.571 4.13508 -1.44716 0
M  V30 2611 C 252.072 4.42042 0.333713 0
M  V30 2612 H 249.292 0.662888 -0.10402 0
M  V30 2613 H 251.836 1.81987 -0.9328 0
M  V30 2614 H 249.991 3.84012 0.511231 0
M  V30 2615 H 250.405 5.07453 -1.32632 0
M  V30 2616 H 251.879 5.51028 0.327423 0
M  V30 2617 H 252.356 4.17269 1.37053 0
M  V30 2618 H 252.962 4.24239 -0.300222 0
M  V30 2619 N 251.277 0.427512 1.51691 0
M  V30 2620 C 252.505 -0.141191 2.06418 0
M  V30 2621 C 252.92 -1.37303 1.29589 0
M  V30 2622 O 252.277 -1.79059 0.352732 0
M  V30 2623 C 252.328 -0.473266 3.58389 0
M  V30 2624 O 252.049 0.709673 4.32314 0
M  V30 2625 C 253.55 -1.09371 4.29596 0
M  V30 2626 H 250.77 -0.0122747 0.670888 0
M  V30 2627 H 253.314 0.603764 1.95384 0
M  V30 2628 H 251.469 -1.16812 3.69369 0
M  V30 2629 H 251.883 0.42807 5.2275 0
M  V30 2630 H 253.357 -1.27613 5.37046 0
M  V30 2631 H 253.834 -2.072 3.87253 0
M  V30 2632 H 254.44 -0.43853 4.23033 0
M  V30 2633 N 252.755 -1.56801 0.158532 0
M  V30 2634 C 254.002 -1.9649 -0.489679 0
M  V30 2635 C 254.33 -1.04394 -1.6411 0
M  V30 2636 O 253.585 -0.0754401 -1.95555 0
M  V30 2637 C 253.884 -3.4235 -1.02623 0
M  V30 2638 C 253.55 -4.50899 0.00794526 0
M  V30 2639 C 252.212 -4.80312 0.292207 0
M  V30 2640 C 254.564 -5.16333 0.710584 0
M  V30 2641 C 251.892 -5.72461 1.28472 0
M  V30 2642 C 254.244 -6.09553 1.69199 0
M  V30 2643 C 252.908 -6.37339 1.98383 0
M  V30 2644 H 252.178 -0.719009 -0.179186 0
M  V30 2645 H 254.825 -1.8989 0.247798 0
M  V30 2646 H 253.13 -3.45838 -1.84128 0
M  V30 2647 H 254.827 -3.70393 -1.53656 0
M  V30 2648 H 251.417 -4.28015 -0.22379 0
M  V30 2649 H 255.601 -4.93732 0.504174 0
M  V30 2650 H 250.857 -5.92278 1.51714 0
M  V30 2651 H 255.031 -6.59327 2.24189 0
M  V30 2652 H 252.658 -7.08546 2.7544 0
M  V30 2653 N 254.233 0.115231 -1.57178 0
M  V30 2654 C 255.482 0.820945 -1.84237 0
M  V30 2655 C 255.795 1.80866 -0.744761 0
M  V30 2656 O 257.001 2.56083 -0.901871 0
M  V30 2657 C 255.457 1.51072 -3.26658 0
M  V30 2658 C 255.065 0.563795 -4.44438 0
M  V30 2659 C 256.809 2.20134 -3.62962 0
M  V30 2660 C 254.716 1.25701 -5.77887 0
M  V30 2661 H 253.646 0.310328 -0.687177 0
M  V30 2662 H 256.297 0.0737134 -1.83352 0
M  V30 2663 H 254.679 2.30471 -3.22024 0
M  V30 2664 H 255.853 -0.197247 -4.60378 0
M  V30 2665 H 254.168 -0.0200638 -4.16395 0
M  V30 2666 H 256.765 2.72696 -4.59936 0
M  V30 2667 H 257.108 2.98107 -2.90582 0
M  V30 2668 H 257.641 1.47619 -3.69396 0
M  V30 2669 H 254.38 0.518493 -6.53446 0
M  V30 2670 H 253.9 1.98997 -5.65827 0
M  V30 2671 H 255.579 1.78915 -6.2177 0
M  V30 2672 N 255.711 1.52812 0.385517 0
M  V30 2673 C 256.641 1.80808 1.47752 0
M  V30 2674 C 257.622 0.660318 1.5676 0
M  V30 2675 O 258.807 0.908246 1.71652 0
M  V30 2676 C 255.937 1.98008 2.85324 0
M  V30 2677 C 254.891 3.13709 2.91154 0
M  V30 2678 C 254.217 3.16169 4.31209 0
M  V30 2679 C 255.517 4.52709 2.60483 0
M  V30 2680 H 257.211 2.72253 1.24573 0
M  V30 2681 H 254.757 1.31003 0.597839 0
M  V30 2682 H 256.71 2.16176 3.61726 0
M  V30 2683 H 255.434 1.03255 3.09848 0
M  V30 2684 H 254.093 2.95329 2.17201 0
M  V30 2685 H 253.741 2.19092 4.52778 0
M  V30 2686 H 253.441 3.93894 4.36029 0
M  V30 2687 H 254.965 3.36496 5.09512 0
M  V30 2688 H 256.379 4.71173 3.26602 0
M  V30 2689 H 254.776 5.32528 2.76648 0
M  V30 2690 H 255.846 4.59186 1.55809 0
M  V30 2691 N 257.189 -0.644168 1.43834 0
M  V30 2692 C 258.136 -1.75671 1.49694 0
M  V30 2693 C 259.106 -1.6246 0.345809 0
M  V30 2694 O 260.291 -1.82573 0.554234 0
M  V30 2695 C 257.431 -3.13867 1.43463 0
M  V30 2696 C 256.544 -3.38147 2.6885 0
M  V30 2697 C 255.679 -4.66241 2.54544 0
M  V30 2698 C 254.718 -4.83657 3.75157 0
M  V30 2699 N 253.855 -6.03016 3.59605 0
M  V30 2700 H 258.695 -1.69998 2.44754 0
M  V30 2701 H 256.232 -0.829458 1.21484 0
M  V30 2702 H 258.19 -3.9377 1.37843 0
M  V30 2703 H 256.82 -3.18588 0.519783 0
M  V30 2704 H 255.872 -2.52276 2.84712 0
M  V30 2705 H 257.184 -3.46899 3.58417 0
M  V30 2706 H 256.338 -5.54285 2.46683 0
M  V30 2707 H 255.077 -4.59826 1.62516 0
M  V30 2708 H 254.082 -3.94046 3.83416 0
M  V30 2709 H 255.307 -4.91896 4.68204 0
M  V30 2710 H 253.253 -5.97715 2.7032 0
M  V30 2711 H 253.17 -6.12766 4.42779 0
M  V30 2712 H 254.438 -6.93657 3.55613 0
M  V30 2713 N 258.668 -1.30515 -0.883378 0
M  V30 2714 C 259.631 -1.1701 -1.97082 0
M  V30 2715 C 260.631 -0.10089 -1.60483 0
M  V30 2716 O 261.821 -0.349127 -1.70666 0
M  V30 2717 C 258.953 -0.793045 -3.31547 0
M  V30 2718 H 260.146 -2.13622 -2.10489 0
M  V30 2719 H 257.699 -1.13935 -1.06998 0
M  V30 2720 H 258.434 0.172499 -3.23841 0
M  V30 2721 H 258.219 -1.56576 -3.5948 0
M  V30 2722 H 259.709 -0.722073 -4.1131 0
M  V30 2723 N 260.146 1.09593 -1.13257 0
M  V30 2724 C 261.394 1.81375 -0.891492 0
M  V30 2725 C 261.715 1.86049 0.584009 0
M  V30 2726 O 260.985 1.34481 1.42449 0
M  V30 2727 H 259.565 0.671708 -0.326828 0
M  V30 2728 H 262.227 1.3256 -1.42877 0
M  V30 2729 H 261.323 2.84612 -1.28071 0
M  V30 2730 N 261.624 0.925811 1.2754 0
M  V30 2731 C 262.587 0.428129 2.25166 0
M  V30 2732 C 263.587 -0.452261 1.54309 0
M  V30 2733 O 264.777 -0.253608 1.72344 0
M  V30 2734 C 261.909 -0.384749 3.38722 0
M  V30 2735 H 263.102 1.29066 2.70706 0
M  V30 2736 H 260.655 0.706323 1.3943 0
M  V30 2737 H 261.39 -1.26618 2.98561 0
M  V30 2738 H 261.175 0.246454 3.91325 0
M  V30 2739 H 262.665 -0.723389 4.11287 0
M  V30 2740 N 263.102 -1.41638 0.69111 0
M  V30 2741 C 264.348 -2.01598 0.220519 0
M  V30 2742 C 264.681 -1.54594 -1.17535 0
M  V30 2743 O 263.956 -0.755177 -1.79241 0
M  V30 2744 C 264.239 -3.59062 0.273243 0
M  V30 2745 C 264.092 -4.16203 1.70573 0
M  V30 2746 C 265.411 -4.38546 -0.369457 0
M  V30 2747 H 262.53 -0.732468 0.0816045 0
M  V30 2748 H 265.172 -1.68445 0.878986 0
M  V30 2749 H 263.322 -3.87435 -0.287411 0
M  V30 2750 H 264.994 -3.98722 2.31989 0
M  V30 2751 H 263.237 -3.71414 2.2413 0
M  V30 2752 H 263.908 -5.25358 1.69419 0
M  V30 2753 H 266.384 -4.1596 0.107977 0
M  V30 2754 H 265.26 -5.48069 -0.302002 0
M  V30 2755 H 265.521 -4.17662 -1.44951 0
M  V30 2756 N 264.58 -0.43555 -1.51462 0
M  V30 2757 C 265.827 0.131514 -2.02072 0
M  V30 2758 C 266.155 1.42868 -1.31981 0
M  V30 2759 O 265.41 1.91076 -0.422883 0
M  V30 2760 C 265.709 0.39942 -3.55161 0
M  V30 2761 C 265.375 -0.81172 -4.43533 0
M  V30 2762 C 264.037 -1.14387 -4.67407 0
M  V30 2763 C 266.389 -1.61976 -4.95392 0
M  V30 2764 C 263.717 -2.28477 -5.40384 0
M  V30 2765 C 266.069 -2.75164 -5.6962 0
M  V30 2766 C 264.733 -3.08835 -5.91758 0
M  V30 2767 H 264.003 0.0481244 -0.739436 0
M  V30 2768 H 266.65 -0.58238 -1.8243 0
M  V30 2769 H 264.955 1.19519 -3.73125 0
M  V30 2770 H 266.652 0.85157 -3.91854 0
M  V30 2771 H 263.242 -0.542898 -4.25148 0
M  V30 2772 H 267.426 -1.37637 -4.76833 0
M  V30 2773 H 262.682 -2.5488 -5.55739 0
M  V30 2774 H 266.856 -3.38147 -6.08793 0
M  V30 2775 H 264.483 -3.97353 -6.48086 0
M  V30 2776 N 266.058 1.56714 -0.166846 0
M  V30 2777 C 266.988 2.20754 0.760913 0
M  V30 2778 C 267.969 1.16178 1.24244 0
M  V30 2779 O 269.154 1.44592 1.29641 0
M  V30 2780 C 266.284 2.84478 1.99223 0
M  V30 2781 C 265.238 3.95053 1.64672 0
M  V30 2782 C 264.564 4.45805 2.95232 0
M  V30 2783 C 265.864 5.14865 0.878155 0
M  V30 2784 H 267.558 2.98537 0.22713 0
M  V30 2785 H 265.104 1.43596 0.107805 0
M  V30 2786 H 267.057 3.27951 2.64624 0
M  V30 2787 H 265.781 2.04056 2.55007 0
M  V30 2788 H 264.44 3.52228 1.01641 0
M  V30 2789 H 264.088 3.62181 3.49047 0
M  V30 2790 H 263.788 5.204 2.7287 0
M  V30 2791 H 265.312 4.91962 3.6167 0
M  V30 2792 H 266.726 5.55059 1.43466 0
M  V30 2793 H 265.123 5.95348 0.753738 0
M  V30 2794 H 266.193 4.84735 -0.126377 0
M  V30 2795 N 267.536 -0.106894 1.57237 0
M  V30 2796 C 268.483 -1.13049 2.01217 0
M  V30 2797 C 269.453 -1.40471 0.886403 0
M  V30 2798 O 270.638 -1.52133 1.15153 0
M  V30 2799 C 267.778 -2.4487 2.43172 0
M  V30 2800 C 266.891 -2.24281 3.69218 0
M  V30 2801 C 266.026 -3.49417 4.00101 0
M  V30 2802 C 265.065 -3.24038 5.19294 0
M  V30 2803 N 264.202 -4.41409 5.45988 0
M  V30 2804 H 269.042 -0.748456 2.88448 0
M  V30 2805 H 266.579 -0.358054 1.42676 0
M  V30 2806 H 268.537 -3.21786 2.65537 0
M  V30 2807 H 267.167 -2.80944 1.58967 0
M  V30 2808 H 266.219 -1.38224 3.54398 0
M  V30 2809 H 267.531 -2.01512 4.56283 0
M  V30 2810 H 266.685 -4.34746 4.2318 0
M  V30 2811 H 265.424 -3.75229 3.11535 0
M  V30 2812 H 264.429 -2.37102 4.96047 0
M  V30 2813 H 265.654 -2.99584 6.09447 0
M  V30 2814 H 263.6 -4.67319 4.60379 0
M  V30 2815 H 263.517 -4.21788 6.274 0
M  V30 2816 H 264.785 -5.27836 5.73593 0
M  V30 2817 N 269.014 -1.53014 -0.377408 0
M  V30 2818 C 270.291 -1.59215 -1.13622 0
M  V30 2819 C 270.671 -0.392407 -2.07421 0
M  V30 2820 O 270.019 0.618342 -2.19975 0
M  V30 2821 C 270.229 -2.93669 -1.88573 0
M  V30 2822 C 271.577 -3.47822 -2.43526 0
M  V30 2823 O 272.601 -2.9562 -1.98715 0
M  V30 2824 O 271.46 -4.39055 -3.25412 0
M  V30 2825 H 268.554 -0.642625 -0.52054 0
M  V30 2826 H 271.1 -1.65353 -0.381625 0
M  V30 2827 H 269.872 -3.7243 -1.20048 0
M  V30 2828 H 269.495 -2.90968 -2.70968 0
M  V30 2829 N 270.492 0.636531 -1.44174 0
M  V30 2830 C 271.455 1.73063 -1.50273 0
M  V30 2831 C 272.455 1.56113 -0.385397 0
M  V30 2832 O 273.645 1.61707 -0.64781 0
M  V30 2833 C 270.777 3.12096 -1.37145 0
M  V30 2834 H 271.97 1.69031 -2.47727 0
M  V30 2835 H 269.523 0.849706 -1.31186 0
M  V30 2836 H 270.258 3.21728 -0.407636 0
M  V30 2837 H 270.043 3.25805 -2.18159 0
M  V30 2838 H 271.533 3.91846 -1.44382 0
M  V30 2839 N 271.97 1.30982 0.876444 0
M  V30 2840 C 272.933 1.18054 1.96459 0
M  V30 2841 C 273.933 0.109399 1.60427 0
M  V30 2842 O 275.123 0.358173 1.70478 0
M  V30 2843 C 272.255 0.810616 3.31122 0
M  V30 2844 H 273.448 2.14735 2.09354 0
M  V30 2845 H 271.001 1.145 1.06392 0
M  V30 2846 H 271.736 -0.155322 3.23928 0
M  V30 2847 H 271.521 1.58481 3.58645 0
M  V30 2848 H 273.011 0.743876 4.10921 0
M  V30 2849 N 273.449 -1.08991 1.13837 0
M  V30 2850 C 274.379 -2.17771 0.842507 0
M  V30 2851 C 275.36 -1.6892 -0.20001 0
M  V30 2852 O 276.545 -1.94113 -0.0579731 0
M  V30 2853 C 273.675 -3.4589 0.312644 0
M  V30 2854 C 272.629 -4.08099 1.28992 0
M  V30 2855 C 271.955 -5.31098 0.619623 0
M  V30 2856 C 273.255 -4.50077 2.65005 0
M  V30 2857 H 274.949 -2.42777 1.75213 0
M  V30 2858 H 272.495 -1.16682 0.843875 0
M  V30 2859 H 274.448 -4.21297 0.0933043 0
M  V30 2860 H 273.172 -3.20419 -0.632382 0
M  V30 2861 H 271.831 -3.34717 1.49533 0
M  V30 2862 H 271.479 -5.0191 -0.33102 0
M  V30 2863 H 271.179 -5.73674 1.27167 0
M  V30 2864 H 272.703 -6.09224 0.409669 0
M  V30 2865 H 274.117 -5.16688 2.48407 0
M  V30 2866 H 272.514 -5.03553 3.26427 0
M  V30 2867 H 273.584 -3.62257 3.22332 0
M  V30 2868 N 274.927 -0.932562 -1.27047 0
M  V30 2869 C 276.174 -0.575559 -1.94148 0
M  V30 2870 C 276.502 0.883984 -1.73251 0
M  V30 2871 O 275.757 1.64655 -1.0577 0
M  V30 2872 C 276.056 -0.853713 -3.47054 0
M  V30 2873 C 275.722 -2.29577 -3.88079 0
M  V30 2874 C 274.384 -2.68999 -3.9899 0
M  V30 2875 C 276.736 -3.23331 -4.08787 0
M  V30 2876 C 274.064 -4.01289 -4.28 0
M  V30 2877 C 276.416 -4.55207 -4.39282 0
M  V30 2878 C 275.08 -4.94457 -4.48407 0
M  V30 2879 H 274.35 -0.210612 -0.710439 0
M  V30 2880 H 276.997 -1.17744 -1.51025 0
M  V30 2881 H 275.302 -0.169204 -3.91434 0
M  V30 2882 H 276.999 -0.55639 -3.97121 0
M  V30 2883 H 273.589 -1.97994 -3.80127 0
M  V30 2884 H 277.773 -2.94074 -3.99793 0
M  V30 2885 H 273.029 -4.31374 -4.33275 0
M  V30 2886 H 277.203 -5.27852 -4.54252 0
M  V30 2887 H 274.83 -5.96994 -4.7064 0
M  V30 2888 N 276.405 1.4127 -0.698611 0
M  V30 2889 C 277.355 2.27997 -0.0119836 0
M  V30 2890 C 278.339 1.42363 0.749765 0
M  V30 2891 O 279.531 1.65607 0.624758 0
M  V30 2892 C 276.66 3.30702 0.921458 0
M  V30 2893 C 275.746 4.23814 0.155796 0
M  V30 2894 N 276.137 4.98572 -0.852015 0
M  V30 2895 C 274.435 4.44284 0.390836 0
M  V30 2896 C 275.136 5.66744 -1.3106 0
M  V30 2897 N 274.112 5.39867 -0.635944 0
M  V30 2898 H 277.914 2.83232 -0.784649 0
M  V30 2899 H 275.428 1.53518 -0.529711 0
M  V30 2900 H 277.425 3.91661 1.42854 0
M  V30 2901 H 276.085 2.77028 1.69369 0
M  V30 2902 H 277.096 5.03024 -1.23235 0
M  V30 2903 H 273.773 4.01614 1.14071 0
M  V30 2904 H 275.163 6.36672 -2.14707 0
M  V30 2905 N 277.883 0.443576 1.51229 0
M  V30 2906 C 279.108 -0.121648 2.07043 0
M  V30 2907 C 279.533 -1.35156 1.30823 0
M  V30 2908 O 278.891 -1.7793 0.347934 0
M  V30 2909 C 278.939 -0.41624 3.5819 0
M  V30 2910 O 278.043 -1.50163 3.8409 0
M  V30 2911 H 277.384 0.000871367 0.663999 0
M  V30 2912 H 279.914 0.626706 1.94765 0
M  V30 2913 H 279.924 -0.664867 4.02546 0
M  V30 2914 H 278.599 0.482653 4.1309 0
M  V30 2915 H 277.176 -1.24248 3.51592 0
M  V30 2916 N 279.361 -1.56624 0.175154 0
M  V30 2917 C 280.638 -1.88688 -0.515373 0
M  V30 2918 C 281.018 -1.08564 -1.81044 0
M  V30 2919 O 280.366 -0.180703 -2.27784 0
M  V30 2920 C 280.576 -3.40768 -0.753552 0
M  V30 2921 C 281.924 -4.10587 -1.08184 0
M  V30 2922 O 282.948 -3.46106 -0.841961 0
M  V30 2923 O 281.807 -5.24512 -1.53459 0
M  V30 2924 H 278.901 -0.78301 -0.26613 0
M  V30 2925 H 281.447 -1.68347 0.213877 0
M  V30 2926 H 280.219 -3.90965 0.161829 0
M  V30 2927 H 279.842 -3.66733 -1.53598 0
M  V30 2928 N 280.839 0.0985539 -1.57292 0
M  V30 2929 C 282.116 0.834155 -1.76921 0
M  V30 2930 C 282.496 1.97101 -0.755928 0
M  V30 2931 O 281.844 2.27474 0.216245 0
M  V30 2932 C 282.054 1.33194 -3.22584 0
M  V30 2933 C 283.402 1.77611 -3.85668 0
M  V30 2934 O 284.426 1.42825 -3.26312 0
M  V30 2935 O 283.285 2.4192 -4.90038 0
M  V30 2936 H 280.379 0.397628 -0.725135 0
M  V30 2937 H 282.925 0.0807044 -1.69508 0
M  V30 2938 H 281.697 0.517248 -3.87866 0
M  V30 2939 H 281.32 2.1475 -3.34616 0
M  V30 2940 N 282.317 1.53212 0.369288 0
M  V30 2941 C 283.545 1.73119 1.13303 0
M  V30 2942 C 283.96 0.458455 1.83149 0
M  V30 2943 O 283.317 -0.568403 1.73423 0
M  V30 2944 C 283.368 2.89413 2.16616 0
M  V30 2945 O 283.089 4.11761 1.49614 0
M  V30 2946 C 284.59 3.21161 3.05566 0
M  V30 2947 H 281.81 0.579107 0.338934 0
M  V30 2948 H 284.354 1.99942 0.429338 0
M  V30 2949 H 282.509 2.64994 2.82589 0
M  V30 2950 H 282.923 4.76858 2.18419 0
M  V30 2951 H 284.397 4.05949 3.74045 0
M  V30 2952 H 284.874 2.36369 3.70171 0
M  V30 2953 H 285.48 3.47492 2.45213 0
M  V30 2954 N 283.795 -0.628877 1.44509 0
M  V30 2955 C 285.072 -1.38733 1.37886 0
M  V30 2956 C 285.452 -2.11065 0.0387008 0
M  V30 2957 O 284.8 -2.06476 -0.97878 0
M  V30 2958 C 285.01 -2.35188 2.57852 0
M  V30 2959 C 286.358 -2.9845 3.02014 0
M  V30 2960 O 287.382 -2.45513 2.58073 0
M  V30 2961 O 286.241 -3.94487 3.78209 0
M  V30 2962 H 283.335 -0.621015 0.54614 0
M  V30 2963 H 285.881 -0.653744 1.56602 0
M  V30 2964 H 284.653 -1.80855 3.46998 0
M  V30 2965 H 284.276 -3.1596 2.4136 0
M  V30 2966 N 285.273 -1.31445 -0.869486 0
M  V30 2967 C 286.223 -1.15731 -1.96444 0
M  V30 2968 C 287.207 -0.0681855 -1.60755 0
M  V30 2969 O 288.399 -0.293154 -1.74555 0
M  V30 2970 C 285.528 -0.867255 -3.32165 0
M  V30 2971 C 284.614 -1.99738 -3.74119 0
M  V30 2972 N 285.005 -3.24447 -3.88031 0
M  V30 2973 C 283.303 -1.89723 -4.03635 0
M  V30 2974 C 284.004 -3.98374 -4.23879 0
M  V30 2975 N 282.98 -3.26547 -4.3459 0
M  V30 2976 H 286.782 -2.10296 -2.05312 0
M  V30 2977 H 284.296 -1.23009 -1.06031 0
M  V30 2978 H 286.293 -0.735668 -4.10358 0
M  V30 2979 H 284.953 0.0701614 -3.24624 0
M  V30 2980 H 285.964 -3.59557 -3.72746 0
M  V30 2981 H 282.641 -1.03449 -4.04481 0
M  V30 2982 H 284.031 -5.05844 -4.42235 0
M  V30 2983 N 286.751 1.08385 -1.14413 0
M  V30 2984 C 287.991 1.8238 -0.922868 0
M  V30 2985 C 288.355 1.84225 0.540842 0
M  V30 2986 O 289.556 2.53985 0.880058 0
M  V30 2987 C 287.827 3.24048 -1.50757 0
M  V30 2988 S 289.386 4.14917 -1.4279 0
M  V30 2989 H 286.204 0.628524 -0.332384 0
M  V30 2990 H 288.806 1.30278 -1.45766 0
M  V30 2991 H 287.51 3.20288 -2.56601 0
M  V30 2992 H 287.041 3.81224 -0.971178 0
M  V30 2993 H 289.056 4.94473 -0.413582 0
M  V30 2994 N 288.23 0.939286 1.26551 0
M  V30 2995 C 289.455 0.602008 1.98471 0
M  V30 2996 C 289.88 -0.815624 1.69497 0
M  V30 2997 O 289.238 -1.54912 0.941905 0
M  V30 2998 C 289.286 0.848407 3.50477 0
M  V30 2999 O 288.39 -0.0804009 4.12322 0
M  V30 3000 H 287.731 0.23049 0.622712 0
M  V30 3001 H 290.261 1.2617 1.61066 0
M  V30 3002 H 290.271 0.768553 4.00696 0
M  V30 3003 H 288.946 1.88171 3.70897 0
M  V30 3004 H 287.523 0.0503508 3.72866 0
M  V30 3005 N 289.708 -1.40897 0.706093 0
M  V30 3006 C 290.955 -2.01054 0.241531 0
M  V30 3007 C 291.283 -1.55956 -1.16223 0
M  V30 3008 O 290.538 -0.766336 -1.80072 0
M  V30 3009 C 290.837 -3.5646 0.259099 0
M  V30 3010 C 290.503 -4.21106 1.61184 0
M  V30 3011 C 289.165 -4.38479 1.98216 0
M  V30 3012 C 291.517 -4.57256 2.50132 0
M  V30 3013 C 288.845 -4.89282 3.2376 0
M  V30 3014 C 291.197 -5.09454 3.7502 0
M  V30 3015 C 289.861 -5.25037 4.12181 0
M  V30 3016 H 289.131 -0.73571 0.0883825 0
M  V30 3017 H 291.778 -1.68645 0.907257 0
M  V30 3018 H 290.083 -3.88721 -0.490189 0
M  V30 3019 H 291.78 -4.00826 -0.11804 0
M  V30 3020 H 288.37 -4.07966 1.31384 0
M  V30 3021 H 292.554 -4.43479 2.228 0
M  V30 3022 H 287.81 -4.99531 3.52532 0
M  V30 3023 H 291.984 -5.36404 4.44121 0
M  V30 3024 H 289.611 -5.64164 5.09532 0
M  V30 3025 N 291.186 -0.45159 -1.50991 0
M  V30 3026 C 292.411 0.110667 -2.07105 0
M  V30 3027 C 292.836 1.3446 -1.31538 0
M  V30 3028 O 292.194 1.77743 -0.357365 0
M  V30 3029 C 292.242 0.397238 -3.58405 0
M  V30 3030 O 291.346 1.48124 -3.84881 0
M  V30 3031 H 290.687 -0.00439271 -0.663985 0
M  V30 3032 H 293.217 -0.637026 -1.9443 0
M  V30 3033 H 293.227 0.64351 -4.02893 0
M  V30 3034 H 291.902 -0.504553 -4.12828 0
M  V30 3035 H 290.479 1.22381 -3.52246 0
M  V30 3036 N 292.664 1.56529 -0.183458 0
M  V30 3037 C 293.892 2.01623 0.464285 0
M  V30 3038 C 294.307 1.06366 1.55986 0
M  V30 3039 O 293.664 0.0665398 1.82379 0
M  V30 3040 C 293.715 3.46475 1.03139 0
M  V30 3041 O 293.436 4.38095 -0.0204675 0
M  V30 3042 C 294.937 4.0703 1.75617 0
M  V30 3043 H 292.157 0.660596 0.117704 0
M  V30 3044 H 294.701 2.02451 -0.288751 0
M  V30 3045 H 292.856 3.46383 1.73486 0
M  V30 3046 H 293.27 5.22973 0.399952 0
M  V30 3047 H 294.744 5.10271 2.10542 0
M  V30 3048 H 295.221 3.49819 2.65563 0
M  V30 3049 H 295.827 4.1086 1.09882 0
M  V30 3050 N 294.142 -0.090211 1.57342 0
M  V30 3051 C 295.388 -0.793982 1.86611 0
M  V30 3052 C 295.721 -1.78142 0.773252 0
M  V30 3053 O 294.996 -1.93271 -0.218304 0
M  V30 3054 C 295.279 -1.51839 3.26523 0
M  V30 3055 C 295.132 -0.548609 4.46442 0
M  V30 3056 C 296.451 -2.46779 3.64401 0
M  V30 3057 H 293.57 -0.287186 0.678744 0
M  V30 3058 H 296.212 -0.0575076 1.89913 0
M  V30 3059 H 294.362 -2.14617 3.23839 0
M  V30 3060 H 296.034 0.0725513 4.61243 0
M  V30 3061 H 294.277 0.137614 4.33582 0
M  V30 3062 H 294.948 -1.09271 5.41076 0
M  V30 3063 H 297.424 -1.94089 3.68061 0
M  V30 3064 H 296.3 -2.94479 4.63221 0
M  V30 3065 H 296.561 -3.30758 2.93346 0
M  V30 3066 N 295.62 -1.53406 -0.361157 0
M  V30 3067 C 296.55 -1.83136 -1.44857 0
M  V30 3068 C 297.531 -0.685174 -1.5569 0
M  V30 3069 O 298.716 -0.93544 -1.70186 0
M  V30 3070 C 295.846 -2.02522 -2.82138 0
M  V30 3071 C 294.8 -3.18302 -2.86126 0
M  V30 3072 C 294.126 -3.22989 -4.26125 0
M  V30 3073 C 295.426 -4.56796 -2.53248 0
M  V30 3074 H 297.12 -2.74201 -1.20226 0
M  V30 3075 H 294.666 -1.31938 -0.576922 0
M  V30 3076 H 296.619 -2.21904 -3.58241 0
M  V30 3077 H 295.343 -1.08172 -3.08166 0
M  V30 3078 H 294.002 -2.98747 -2.12475 0
M  V30 3079 H 293.65 -2.26267 -4.49235 0
M  V30 3080 H 293.35 -4.00781 -4.29708 0
M  V30 3081 H 294.874 -3.44559 -5.04094 0
M  V30 3082 H 296.288 -4.7631 -3.19064 0
M  V30 3083 H 294.685 -5.36862 -2.68141 0
M  V30 3084 H 295.755 -4.61606 -1.48484 0
M  V30 3085 N 297.098 0.621204 -1.44841 0
M  V30 3086 C 298.338 1.39201 -1.49674 0
M  V30 3087 C 298.702 1.91561 -0.129764 0
M  V30 3088 O 299.903 2.68748 -0.0527814 0
M  V30 3089 C 298.174 2.519 -2.53537 0
M  V30 3090 S 299.733 3.39916 -2.77494 0
M  V30 3091 H 296.551 0.474758 -0.529269 0
M  V30 3092 H 299.153 0.718171 -1.81831 0
M  V30 3093 H 297.857 2.11761 -3.51547 0
M  V30 3094 H 297.388 3.241 -2.22986 0
M  V30 3095 H 299.403 4.49646 -2.0984 0
M  V30 3096 N 298.576 1.31904 0.862503 0
M  V30 3097 C 299.523 1.20182 1.9704 0
M  V30 3098 C 300.493 0.0858247 1.65878 0
M  V30 3099 O 301.678 0.26 1.8902 0
M  V30 3100 C 298.818 0.922797 3.32533 0
M  V30 3101 C 297.931 2.12284 3.76244 0
M  V30 3102 C 297.066 1.77996 5.00491 0
M  V30 3103 C 296.105 2.94366 5.36671 0
M  V30 3104 N 295.242 2.60223 6.52095 0
M  V30 3105 H 300.082 2.14951 2.06398 0
M  V30 3106 H 297.619 1.06917 1.01031 0
M  V30 3107 H 299.577 0.741548 4.10557 0
M  V30 3108 H 298.207 0.0119227 3.22798 0
M  V30 3109 H 297.259 2.41461 2.9394 0
M  V30 3110 H 298.571 2.99357 3.98982 0
M  V30 3111 H 297.725 1.56377 5.862 0
M  V30 3112 H 296.464 0.881252 4.79672 0
M  V30 3113 H 295.469 3.16625 4.49476 0
M  V30 3114 H 296.694 3.84957 5.59451 0
M  V30 3115 H 294.64 1.72884 6.32809 0
M  V30 3116 H 294.557 3.40827 6.74814 0
M  V30 3117 H 295.825 2.42016 7.40978 0
M  V30 3118 N 300.054 -1.07777 1.14986 0
M  V30 3119 C 301.3 -1.80557 0.923422 0
M  V30 3120 C 301.633 -1.86298 -0.548337 0
M  V30 3121 O 300.908 -1.34354 -1.40639 0
M  V30 3122 C 301.191 -3.25839 1.53299 0
M  V30 3123 C 301.044 -3.28269 3.07505 0
M  V30 3124 C 302.363 -4.22991 1.21518 0
M  V30 3125 H 299.482 -0.655493 0.336894 0
M  V30 3126 H 302.124 -1.26144 1.42083 0
M  V30 3127 H 300.274 -3.72306 1.10999 0
M  V30 3128 H 301.946 -2.90079 3.58681 0
M  V30 3129 H 300.189 -2.67355 3.4162 0
M  V30 3130 H 300.86 -4.30691 3.45266 0
M  V30 3131 H 303.336 -3.84894 1.581 0
M  V30 3132 H 302.212 -5.22945 1.66793 0
M  V30 3133 H 302.473 -4.41904 0.131505 0
M  V30 3134 N 301.532 -0.945985 -1.26051 0
M  V30 3135 C 302.757 -0.612525 -1.98149 0
M  V30 3136 C 303.182 0.806623 -1.69927 0
M  V30 3137 O 302.54 1.54411 -0.950108 0
M  V30 3138 C 302.588 -0.866981 -3.50023 0
M  V30 3139 O 301.692 0.0585333 -4.12358 0
M  V30 3140 H 301.033 -0.23379 -0.621481 0
M  V30 3141 H 303.563 -1.27023 -1.60395 0
M  V30 3142 H 303.573 -0.789792 -4.00283 0
M  V30 3143 H 302.248 -1.90135 -3.69894 0
M  V30 3144 H 300.825 -0.0701241 -3.72834 0
M  V30 3145 N 303.011 1.40521 -0.713556 0
M  V30 3146 C 304.257 2.01221 -0.252564 0
M  V30 3147 C 304.59 1.56444 1.1506 0
M  V30 3148 O 303.865 0.783597 1.78017 0
M  V30 3149 C 304.148 3.58582 -0.330332 0
M  V30 3150 C 304.001 4.13437 -1.77173 0
M  V30 3151 C 305.32 4.39079 0.299641 0
M  V30 3152 H 302.439 0.731077 -0.0932471 0
M  V30 3153 H 305.081 1.67026 -0.905673 0
M  V30 3154 H 303.231 3.87844 0.225737 0
M  V30 3155 H 304.903 3.9498 -2.38303 0
M  V30 3156 H 303.146 3.67801 -2.3001 0
M  V30 3157 H 303.817 5.22597 -1.77755 0
M  V30 3158 H 306.293 4.15735 -0.174139 0
M  V30 3159 H 305.169 5.4848 0.214771 0
M  V30 3160 H 305.43 4.19915 1.38288 0
M  V30 3161 N 304.489 0.459591 1.5075 0
M  V30 3162 C 305.452 -0.329093 2.26825 0
M  V30 3163 C 306.452 -0.930481 1.31144 0
M  V30 3164 O 307.642 -0.801453 1.54669 0
M  V30 3165 C 304.774 -1.46768 3.07688 0
M  V30 3166 H 305.967 0.337924 2.9799 0
M  V30 3167 H 303.52 0.213336 1.54837 0
M  V30 3168 H 304.255 -2.17009 2.40993 0
M  V30 3169 H 304.04 -1.04238 3.77991 0
M  V30 3170 H 305.53 -2.02433 3.65254 0
M  V30 3171 N 305.967 -1.56429 0.191757 0
M  V30 3172 C 306.93 -2.17707 -0.716688 0
M  V30 3173 C 307.93 -1.13061 -1.14341 0
M  V30 3174 O 309.12 -1.38464 -1.05704 0
M  V30 3175 C 306.252 -2.77644 -1.97804 0
M  V30 3176 H 307.445 -2.99342 -0.1829 0
M  V30 3177 H 304.998 -1.56193 -0.0578566 0
M  V30 3178 H 305.733 -1.99799 -2.55443 0
M  V30 3179 H 305.518 -3.54246 -1.68083 0
M  V30 3180 H 307.008 -3.24708 -2.62592 0
M  V30 3181 N 307.445 0.0818655 -1.57387 0
M  V30 3182 C 308.67 0.799946 -1.91352 0
M  V30 3183 C 309.095 1.70833 -0.787258 0
M  V30 3184 O 308.453 1.79419 0.26048 0
M  V30 3185 C 308.501 1.57812 -3.24234 0
M  V30 3186 O 307.605 2.68806 -3.12757 0
M  V30 3187 H 306.946 0.21891 -0.626877 0
M  V30 3188 H 309.476 0.0531256 -2.04531 0
M  V30 3189 H 309.486 1.95952 -3.57864 0
M  V30 3190 H 308.161 0.911548 -4.05788 0
M  V30 3191 H 306.738 2.33597 -2.90666 0
M  V30 3192 N 308.923 1.53595 0.353017 0
M  V30 3193 C 309.873 1.77299 1.43349 0
M  V30 3194 C 310.857 0.627884 1.48143 0
M  V30 3195 O 312.049 0.88697 1.53173 0
M  V30 3196 C 309.178 1.97757 2.80619 0
M  V30 3197 C 308.264 3.18305 2.80254 0
M  V30 3198 N 308.655 4.39967 2.49526 0
M  V30 3199 C 306.953 3.19283 3.11407 0
M  V30 3200 C 307.654 5.21772 2.57156 0
M  V30 3201 N 306.63 4.58269 2.92388 0
M  V30 3202 H 310.432 2.68963 1.18474 0
M  V30 3203 H 307.946 1.52391 0.561306 0
M  V30 3204 H 309.943 2.1287 3.58458 0
M  V30 3205 H 308.603 1.07329 3.06448 0
M  V30 3206 H 309.614 4.67482 2.22893 0
M  V30 3207 H 306.291 2.3879 3.4247 0
M  V30 3208 H 307.681 6.2885 2.36638 0
M  V30 3209 N 310.401 -0.613514 1.45168 0
M  V30 3210 C 311.648 -1.37268 1.48875 0
M  V30 3211 C 311.976 -1.94077 0.128161 0
M  V30 3212 O 311.231 -1.75178 -0.872416 0
M  V30 3213 C 311.53 -2.54347 2.51083 0
M  V30 3214 C 311.196 -2.1572 3.95949 0
M  V30 3215 C 309.858 -2.04899 4.35396 0
M  V30 3216 C 312.21 -1.85485 4.87078 0
M  V30 3217 C 309.538 -1.62057 5.63875 0
M  V30 3218 C 311.89 -1.4413 6.15962 0
M  V30 3219 C 310.554 -1.31863 6.54346 0
M  V30 3220 H 309.824 -0.502299 0.544773 0
M  V30 3221 H 312.471 -0.694021 1.78481 0
M  V30 3222 H 310.776 -3.27524 2.15024 0
M  V30 3223 H 312.473 -3.12577 2.51191 0
M  V30 3224 H 309.063 -2.25066 3.64751 0
M  V30 3225 H 313.247 -1.92745 4.57343 0
M  V30 3226 H 308.503 -1.51177 5.92415 0
M  V30 3227 H 312.677 -1.19778 6.86022 0
M  V30 3228 H 310.304 -0.984392 7.538 0
M  V30 3229 N 311.879 -1.3236 -0.855495 0
M  V30 3230 C 312.842 -1.21164 -1.94556 0
M  V30 3231 C 313.842 -0.134908 -1.60233 0
M  V30 3232 O 315.032 -0.385249 -1.69887 0
M  V30 3233 C 312.164 -0.863192 -3.29791 0
M  V30 3234 H 313.357 -2.18038 -2.05911 0
M  V30 3235 H 310.91 -1.16179 -1.04557 0
M  V30 3236 H 311.645 0.103769 -3.24134 0
M  V30 3237 H 311.43 -1.64166 -3.56078 0
M  V30 3238 H 312.92 -0.809156 -4.09686 0
M  V30 3239 N 313.357 1.07166 -1.15556 0
M  V30 3240 C 314.585 1.83514 -0.955519 0
M  V30 3241 C 315 1.82163 0.49621 0
M  V30 3242 O 314.357 1.23441 1.34419 0
M  V30 3243 C 314.408 3.30515 -1.46432 0
M  V30 3244 O 314.129 3.31937 -2.85918 0
M  V30 3245 C 315.63 4.23625 -1.30603 0
M  V30 3246 H 312.85 0.578926 -0.339244 0
M  V30 3247 H 315.394 1.35265 -1.53374 0
M  V30 3248 H 313.549 3.76106 -0.928584 0
M  V30 3249 H 313.963 4.23794 -3.09029 0
M  V30 3250 H 315.437 5.24831 -1.71047 0
M  V30 3251 H 315.914 4.38485 -0.250441 0
M  V30 3252 H 316.52 3.83871 -1.83094 0
M  V30 3253 N 314.835 0.952656 1.25548 0
M  V30 3254 C 315.768 0.415525 2.24385 0
M  V30 3255 C 316.746 -0.502046 1.54655 0
M  V30 3256 O 317.93 -0.436875 1.83368 0
M  V30 3257 C 315.057 -0.401734 3.36309 0
M  V30 3258 C 314.103 0.455949 4.24056 0
M  V30 3259 S 314.936 1.88698 5.01152 0
M  V30 3260 C 316.092 1.07809 6.16545 0
M  V30 3261 H 316.325 1.25315 2.69599 0
M  V30 3262 H 313.858 0.756587 1.34592 0
M  V30 3263 H 315.816 -0.867329 4.01233 0
M  V30 3264 H 314.477 -1.21416 2.89684 0
M  V30 3265 H 313.67 -0.170776 5.03711 0
M  V30 3266 H 313.272 0.856675 3.64056 0
M  V30 3267 H 315.564 0.325816 6.76716 0
M  V30 3268 H 316.507 1.84849 6.83547 0
M  V30 3269 H 316.915 0.60909 5.61204 0
M  V30 3270 N 316.313 -1.40141 0.720998 0
M  V30 3271 C 317.541 -2.05096 0.272656 0
M  V30 3272 C 317.956 -1.54334 -1.0875 0
M  V30 3273 O 317.313 -0.702211 -1.6845 0
M  V30 3274 C 317.364 -3.60636 0.249835 0
M  V30 3275 O 317.085 -4.09526 1.55629 0
M  V30 3276 C 318.586 -4.42772 -0.216396 0
M  V30 3277 H 315.806 -0.659897 0.121558 0
M  V30 3278 H 318.35 -1.79449 0.980723 0
M  V30 3279 H 316.505 -3.85232 -0.409237 0
M  V30 3280 H 316.919 -5.03758 1.4604 0
M  V30 3281 H 318.393 -5.51702 -0.181212 0
M  V30 3282 H 318.87 -4.20756 -1.25941 0
M  V30 3283 H 319.476 -4.23294 0.412596 0
M  V30 3284 N 317.792 -0.46758 -1.50504 0
M  V30 3285 C 318.74 0.342482 -2.30065 0
M  V30 3286 C 319.734 0.993596 -1.37201 0
M  V30 3287 O 320.94 0.925102 -1.54408 0
M  V30 3288 H 317.315 0.129283 -0.740803 0
M  V30 3289 H 319.286 -0.34899 -2.96352 0
M  V30 3290 C 318.035 1.4139 -3.17654 0
M  V30 3291 H 317.358 0.922264 -3.89017 0
M  V30 3292 H 318.798 1.95335 -3.76325 0
M  V30 3293 C 317.257 2.4139 -2.35016 0
M  V30 3294 O 317.787 3.46586 -2.03079 0
M  V30 3295 N 315.993 2.13021 -1.97662 0
M  V30 3296 H 315.54 1.27499 -2.23834 0
M  V30 3297 H 315.498 2.80164 -1.42673 0
M  V30 3298 N 319.27 1.56325 -0.20005 0
M  V30 3299 C 320.517 1.97719 0.437411 0
M  V30 3300 C 320.845 1.08709 1.61284 0
M  V30 3301 O 320.1 0.127261 1.95286 0
M  V30 3302 C 320.399 3.4495 0.935103 0
M  V30 3303 C 320.065 4.5072 -0.12749 0
M  V30 3304 C 318.727 4.79368 -0.419451 0
M  V30 3305 C 321.079 5.14268 -0.847231 0
M  V30 3306 C 318.407 5.68854 -1.43604 0
M  V30 3307 C 320.759 6.04852 -1.85301 0
M  V30 3308 C 319.423 6.31855 -2.15211 0
M  V30 3309 H 318.693 0.723507 0.16006 0
M  V30 3310 H 321.34 1.89166 -0.298056 0
M  V30 3311 H 319.645 3.50599 1.74894 0
M  V30 3312 H 321.342 3.74337 1.43781 0
M  V30 3313 H 317.932 4.28458 0.11023 0
M  V30 3314 H 322.116 4.92222 -0.634901 0
M  V30 3315 H 317.372 5.88047 -1.67364 0
M  V30 3316 H 321.546 6.53152 -2.41591 0
M  V30 3317 H 319.173 7.00994 -2.94129 0
M  V30 3318 N 320.748 -0.0735177 1.57428 0
M  V30 3319 C 321.973 -0.789787 1.91774 0
M  V30 3320 C 322.398 -1.70413 0.796306 0
M  V30 3321 O 321.756 -1.79555 -0.250961 0
M  V30 3322 C 321.804 -1.5609 3.25067 0
M  V30 3323 O 320.908 -2.67144 3.14178 0
M  V30 3324 H 320.249 -0.215582 0.628029 0
M  V30 3325 H 322.779 -0.0422781 2.04556 0
M  V30 3326 H 322.789 -1.94052 3.58898 0
M  V30 3327 H 321.464 -0.890015 4.06265 0
M  V30 3328 H 320.041 -2.32052 2.91901 0
M  V30 3329 N 322.226 -1.5378 -0.344866 0
M  V30 3330 C 323.472 -1.72158 -1.0832 0
M  V30 3331 C 323.827 -0.478218 -1.86362 0
M  V30 3332 O 323.12 0.529152 -1.84148 0
M  V30 3333 C 323.314 -2.92407 -2.05506 0
M  V30 3334 C 323.143 -4.28318 -1.37017 0
M  V30 3335 C 321.913 -4.92832 -1.11558 0
M  V30 3336 C 324.111 -5.08086 -0.797071 0
M  V30 3337 N 322.093 -6.12619 -0.396358 0
M  V30 3338 C 323.464 -6.1965 -0.208336 0
M  V30 3339 C 325.519 -4.92986 -0.697787 0
M  V30 3340 C 324.222 -7.17763 0.470023 0
M  V30 3341 C 326.248 -5.91391 -0.033171 0
M  V30 3342 C 325.61 -7.02292 0.544599 0
M  V30 3343 H 321.709 -0.683017 -0.380805 0
M  V30 3344 H 324.293 -1.91211 -0.366961 0
M  V30 3345 H 322.464 -2.74857 -2.74423 0
M  V30 3346 H 324.196 -2.9951 -2.72169 0
M  V30 3347 H 320.951 -4.52362 -1.40234 0
M  V30 3348 H 321.375 -6.7698 -0.0515119 0
M  V30 3349 H 326.017 -4.07414 -1.13022 0
M  V30 3350 H 323.735 -8.0291 0.914351 0
M  V30 3351 H 327.321 -5.81784 0.0430009 0
M  V30 3352 H 326.201 -7.77129 1.05073 0
M  V30 3353 N 323.704 0.605807 -1.45491 0
M  V30 3354 C 324.634 1.72709 -1.57143 0
M  V30 3355 C 325.615 1.6476 -0.422884 0
M  V30 3356 O 326.8 1.83132 -0.646247 0
M  V30 3357 C 323.93 3.11316 -1.53948 0
M  V30 3358 C 322.884 3.34077 -2.67537 0
M  V30 3359 C 322.21 4.72975 -2.49397 0
M  V30 3360 C 323.51 3.24158 -4.09535 0
M  V30 3361 H 325.204 1.63214 -2.51001 0
M  V30 3362 H 322.75 0.78379 -1.208 0
M  V30 3363 H 324.703 3.89557 -1.60696 0
M  V30 3364 H 323.427 3.21655 -0.566205 0
M  V30 3365 H 322.086 2.58227 -2.6022 0
M  V30 3366 H 321.734 4.8005 -1.50205 0
M  V30 3367 H 321.434 4.8916 -3.25571 0
M  V30 3368 H 322.958 5.53414 -2.58002 0
M  V30 3369 H 324.372 3.92271 -4.18086 0
M  V30 3370 H 322.769 3.51872 -4.86113 0
M  V30 3371 H 323.839 2.2157 -4.31317 0
M  V30 3372 N 325.182 1.32811 0.848464 0
M  V30 3373 C 326.112 1.24882 1.97299 0
M  V30 3374 C 327.093 0.131357 1.69592 0
M  V30 3375 O 328.278 0.319553 1.91553 0
M  V30 3376 C 325.408 0.97746 3.33261 0
M  V30 3377 C 324.362 2.05682 3.75338 0
M  V30 3378 C 323.688 1.63777 5.09 0
M  V30 3379 C 324.988 3.47254 3.90144 0
M  V30 3380 H 326.682 2.18966 2.04191 0
M  V30 3381 H 324.228 1.05413 0.981029 0
M  V30 3382 H 326.181 0.908513 4.1149 0
M  V30 3383 H 324.905 0.000980011 3.266 0
M  V30 3384 H 323.564 2.11603 2.99366 0
M  V30 3385 H 323.212 0.648569 4.98801 0
M  V30 3386 H 322.912 2.36 5.38124 0
M  V30 3387 H 324.436 1.5833 5.89715 0
M  V30 3388 H 325.85 3.43888 4.58709 0
M  V30 3389 H 324.247 4.1788 4.30693 0
M  V30 3390 H 325.317 3.86462 2.92874 0
M  V30 3391 N 326.66 -1.06551 1.16123 0
M  V30 3392 C 327.623 -2.12132 0.867906 0
M  V30 3393 C 328.623 -1.60224 -0.135944 0
M  V30 3394 O 329.813 -1.73943 0.0946422 0
M  V30 3395 C 326.945 -3.396 0.297419 0
M  V30 3396 H 328.138 -2.39586 1.80385 0
M  V30 3397 H 325.691 -1.22574 0.969812 0
M  V30 3398 H 326.426 -3.17794 -0.64633 0
M  V30 3399 H 326.211 -3.78581 1.02073 0
M  V30 3400 H 327.701 -4.17455 0.110052 0
M  V30 3401 N 328.138 -0.959301 -1.25041 0
M  V30 3402 C 329.048 -0.489994 -2.29426 0
M  V30 3403 C 330.064 0.444944 -1.68215 0
M  V30 3404 O 331.24 0.320046 -1.98841 0
M  V30 3405 C 328.305 0.220309 -3.45999 0
M  V30 3406 C 327.366 -0.753418 -4.22637 0
M  V30 3407 C 326.599 -0.076918 -5.33645 0
M  V30 3408 O 326.822 1.13649 -5.58963 0
M  V30 3409 O 325.756 -0.764824 -5.97021 0
M  V30 3410 H 329.582 -1.35755 -2.71669 0
M  V30 3411 H 327.167 -0.725961 -1.30576 0
M  V30 3412 H 329.049 0.619677 -4.16819 0
M  V30 3413 H 327.724 1.06296 -3.0575 0
M  V30 3414 H 326.631 -1.20308 -3.54227 0
M  V30 3415 H 327.964 -1.56423 -4.66683 0
M  V30 3416 N 329.616 1.39756 -0.72842 0
M  V30 3417 C 330.579 2.29012 -0.0927297 0
M  V30 3418 C 331.579 1.45992 0.674025 0
M  V30 3419 O 332.769 1.66749 0.50402 0
M  V30 3420 C 329.901 3.29396 0.878137 0
M  V30 3421 H 331.094 2.86729 -0.879011 0
M  V30 3422 H 328.647 1.48293 -0.493847 0
M  V30 3423 H 329.382 2.76722 1.69101 0
M  V30 3424 H 329.167 3.907 0.331051 0
M  V30 3425 H 330.657 3.96199 1.3197 0
M  V30 3426 N 331.094 0.475555 1.50254 0
M  V30 3427 C 332.34 -0.0780073 2.0265 0
M  V30 3428 C 332.673 -1.38968 1.35652 0
M  V30 3429 O 331.948 -1.8839 0.483691 0
M  V30 3430 C 332.231 -0.257161 3.59181 0
M  V30 3431 C 332.084 1.07585 4.36744 0
M  V30 3432 C 333.403 -1.00965 4.28362 0
M  V30 3433 H 330.522 -0.0268758 0.73651 0
M  V30 3434 H 333.164 0.622015 1.7953 0
M  V30 3435 H 331.314 -0.853412 3.79011 0
M  V30 3436 H 332.986 1.70902 4.28474 0
M  V30 3437 H 331.229 1.6714 4.00308 0
M  V30 3438 H 331.9 0.904088 5.44546 0
M  V30 3439 H 334.376 -0.504214 4.13034 0
M  V30 3440 H 333.252 -1.10381 5.37687 0
M  V30 3441 H 333.513 -2.04731 3.91839 0
M  V30 3442 N 332.573 -1.56217 0.208337 0
M  V30 3443 C 333.803 -2.02043 -0.431523 0
M  V30 3444 C 334.211 -1.08755 -1.54819 0
M  V30 3445 O 333.554 -0.0870009 -1.83494 0
M  V30 3446 C 333.616 -3.44239 -1.03633 0
M  V30 3447 C 333.28 -4.56965 -0.0567502 0
M  V30 3448 C 334.277 -5.14624 0.738773 0
M  V30 3449 C 331.962 -5.02266 0.0581736 0
M  V30 3450 C 333.956 -6.16045 1.63605 0
M  V30 3451 C 331.643 -6.03528 0.959001 0
M  V30 3452 C 332.641 -6.60293 1.7465 0
M  V30 3453 O 332.329 -7.59586 2.6322 0
M  V30 3454 H 332.061 -0.666772 -0.111313 0
M  V30 3455 H 334.615 -2.02919 0.318277 0
M  V30 3456 H 332.845 -3.40391 -1.83497 0
M  V30 3457 H 334.534 -3.73793 -1.58221 0
M  V30 3458 H 335.3 -4.80483 0.660364 0
M  V30 3459 H 331.179 -4.57771 -0.544633 0
M  V30 3460 H 334.723 -6.60279 2.25116 0
M  V30 3461 H 330.62 -6.37092 1.03848 0
M  V30 3462 H 331.388 -7.77057 2.57148 0
M  V30 3463 N 334.051 0.0651679 -1.57465 0
M  V30 3464 C 334.981 1.07693 -2.07182 0
M  V30 3465 C 335.962 1.39962 -0.966673 0
M  V30 3466 O 337.147 1.49475 -1.2398 0
M  V30 3467 C 334.277 2.3885 -2.52127 0
M  V30 3468 C 333.231 2.20917 -3.66579 0
M  V30 3469 C 332.557 3.57515 -3.97601 0
M  V30 3470 C 333.857 1.62493 -4.9638 0
M  V30 3471 H 335.551 0.663199 -2.91962 0
M  V30 3472 H 333.097 0.317569 -1.40455 0
M  V30 3473 H 335.05 3.09928 -2.85522 0
M  V30 3474 H 333.774 2.82215 -1.64384 0
M  V30 3475 H 332.433 1.52279 -3.33477 0
M  V30 3476 H 332.081 3.98463 -3.06979 0
M  V30 3477 H 331.781 3.46353 -4.74672 0
M  V30 3478 H 333.305 4.30013 -4.33499 0
M  V30 3479 H 334.719 2.23445 -5.27963 0
M  V30 3480 H 333.116 1.62009 -5.77818 0
M  V30 3481 H 334.186 0.587041 -4.81333 0
M  V30 3482 N 335.529 1.53961 0.336706 0
M  V30 3483 C 336.477 1.83136 1.43401 0
M  V30 3484 C 337.471 0.702313 1.54156 0
M  V30 3485 O 338.677 0.885765 1.56698 0
M  V30 3486 H 335.052 0.580309 0.478273 0
M  V30 3487 H 337.023 2.74925 1.16012 0
M  V30 3488 C 335.772 2.06385 2.79822 0
M  V30 3489 H 335.095 2.92718 2.72316 0
M  V30 3490 H 336.535 2.30761 3.55704 0
M  V30 3491 C 334.994 0.851414 3.25964 0
M  V30 3492 O 335.524 0.0541904 4.01663 0
M  V30 3493 N 333.73 0.66672 2.82848 0
M  V30 3494 H 333.277 1.31665 2.21409 0
M  V30 3495 H 333.235 -0.143032 3.14074 0
M  V30 3496 N 337.007 -0.598083 1.45811 0
M  V30 3497 C 338.247 -1.36802 1.5187 0
M  V30 3498 C 338.611 -1.9133 0.160224 0
M  V30 3499 O 339.812 -2.6863 0.0955302 0
M  V30 3500 C 338.083 -2.47835 2.57513 0
M  V30 3501 S 339.642 -3.35458 2.82866 0
M  V30 3502 H 336.46 -0.466278 0.536755 0
M  V30 3503 H 339.062 -0.689152 1.82951 0
M  V30 3504 H 337.766 -2.06141 3.54872 0
M  V30 3505 H 337.297 -3.20512 2.28114 0
M  V30 3506 H 339.312 -4.46251 2.16967 0
M  V30 3507 N 338.485 -1.33259 -0.841409 0
M  V30 3508 C 339.415 -1.25926 -1.96634 0
M  V30 3509 C 340.396 -0.140349 -1.6952 0
M  V30 3510 O 341.581 -0.329707 -1.91381 0
M  V30 3511 C 338.711 -0.99512 -3.32738 0
M  V30 3512 C 337.665 -2.0767 -3.74242 0
M  V30 3513 C 336.991 -1.66474 -5.08125 0
M  V30 3514 C 338.291 -3.49318 -3.88297 0
M  V30 3515 H 339.985 -2.20046 -2.03027 0
M  V30 3516 H 337.531 -1.05931 -0.975425 0
M  V30 3517 H 339.484 -0.930323 -4.11002 0
M  V30 3518 H 338.208 -0.0183004 -3.26595 0
M  V30 3519 H 336.867 -2.13187 -2.98239 0
M  V30 3520 H 336.515 -0.675012 -4.9845 0
M  V30 3521 H 336.215 -2.3885 -5.36865 0
M  V30 3522 H 337.739 -1.61455 -5.88867 0
M  V30 3523 H 339.153 -3.46316 -4.56879 0
M  V30 3524 H 337.55 -4.20158 -4.28471 0
M  V30 3525 H 338.62 -3.8801 -2.9082 0
M  V30 3526 N 339.963 1.05934 -1.16686 0
M  V30 3527 C 340.893 2.1546 -0.899949 0
M  V30 3528 C 341.874 1.69391 0.155154 0
M  V30 3529 O 343.059 1.94199 0.00648693 0
M  V30 3530 C 340.189 3.44939 -0.404241 0
M  V30 3531 C 339.143 4.04536 -1.39767 0
M  V30 3532 C 338.469 5.29268 -0.760216 0
M  V30 3533 C 339.769 4.42893 -2.76845 0
M  V30 3534 H 341.463 2.38046 -1.81588 0
M  V30 3535 H 339.009 1.14404 -0.874514 0
M  V30 3536 H 340.962 4.20901 -0.204971 0
M  V30 3537 H 339.686 3.21983 0.547206 0
M  V30 3538 H 338.345 3.30635 -1.58355 0
M  V30 3539 H 337.993 5.02611 0.197831 0
M  V30 3540 H 337.693 5.70101 -1.42332 0
M  V30 3541 H 339.217 6.07924 -0.57105 0
M  V30 3542 H 340.631 5.09921 -2.62019 0
M  V30 3543 H 339.028 4.94721 -3.39663 0
M  V30 3544 H 340.098 3.53584 -3.31823 0
M  V30 3545 N 341.441 0.965919 1.2453 0
M  V30 3546 C 342.404 0.499547 2.2369 0
M  V30 3547 C 343.404 -0.40294 1.5567 0
M  V30 3548 O 344.594 -0.19865 1.73064 0
M  V30 3549 C 341.726 -0.276792 3.39774 0
M  V30 3550 H 342.919 1.37613 2.66463 0
M  V30 3551 H 340.472 0.750324 1.37112 0
M  V30 3552 H 341.207 -1.17055 3.02438 0
M  V30 3553 H 340.992 0.370826 3.90343 0
M  V30 3554 H 342.482 -0.592175 4.1338 0
M  V30 3555 N 342.919 -1.39368 0.735821 0
M  V30 3556 C 344.144 -2.05319 0.293052 0
M  V30 3557 C 344.569 -1.55115 -1.064 0
M  V30 3558 O 343.927 -0.695261 -1.67439 0
M  V30 3559 C 343.975 -3.59305 0.305323 0
M  V30 3560 O 343.079 -4.06299 -0.706761 0
M  V30 3561 H 342.42 -0.650529 0.13307 0
M  V30 3562 H 344.95 -1.78386 1.00197 0
M  V30 3563 H 344.96 -4.07724 0.149997 0
M  V30 3564 H 343.635 -3.95207 1.29553 0
M  V30 3565 H 342.212 -3.69292 -0.517504 0
M  V30 3566 N 344.397 -0.483516 -1.5 0
M  V30 3567 C 345.625 0.0644831 -2.06799 0
M  V30 3568 C 346.04 1.32399 -1.34596 0
M  V30 3569 O 345.397 1.77626 -0.418946 0
M  V30 3570 C 345.448 0.339927 -3.59898 0
M  V30 3571 O 345.169 -0.869635 -4.29382 0
M  V30 3572 C 346.67 0.933515 -4.33359 0
M  V30 3573 H 343.89 -0.0126333 -0.670881 0
M  V30 3574 H 346.434 -0.675864 -1.93009 0
M  V30 3575 H 344.589 1.03022 -3.7345 0
M  V30 3576 H 345.003 -0.62179 -5.20801 0
M  V30 3577 H 346.477 1.07593 -5.41413 0
M  V30 3578 H 346.954 1.92685 -3.94676 0
M  V30 3579 H 347.56 0.281221 -4.24369 0
M  V30 3580 N 345.875 1.56104 -0.216619 0
M  V30 3581 C 347.1 2.0301 0.424462 0
M  V30 3582 C 347.525 1.0955 1.52907 0
M  V30 3583 O 346.883 0.0827914 1.81111 0
M  V30 3584 C 346.931 3.4819 0.937883 0
M  V30 3585 O 346.035 3.57865 2.04955 0
M  V30 3586 H 345.376 0.656925 0.0966755 0
M  V30 3587 H 347.906 2.01859 -0.33381 0
M  V30 3588 H 347.916 3.88413 1.24897 0
M  V30 3589 H 346.591 4.15699 0.129387 0
M  V30 3590 H 345.168 3.29527 1.74546 0
M  V30 3591 N 347.353 -0.0568162 1.57498 0
M  V30 3592 C 348.764 -0.606858 1.76562 0
M  V30 3593 C 349.115 -1.77114 0.844094 0
M  V30 3594 O 348.24 -2.16376 0.0318911 0
M  V30 3595 C 348.835 -1.10766 3.20182 0
M  V30 3596 C 347.394 -1.60344 3.40539 0
M  V30 3597 C 346.541 -0.529311 2.72201 0
M  V30 3598 H 349.492 0.169393 1.57793 0
M  V30 3599 H 349.513 -1.97602 3.25167 0
M  V30 3600 H 349.025 -0.26006 3.87228 0
M  V30 3601 H 347.126 -2.47379 2.78629 0
M  V30 3602 H 347.239 -1.67006 4.4905 0
M  V30 3603 H 345.603 -0.977893 2.35179 0
M  V30 3604 H 346.386 0.308352 3.41912 0
M  V30 3605 N 348.832 -1.54138 -0.328536 0
M  V30 3606 C 350.057 -1.76378 -1.09112 0
M  V30 3607 C 350.482 -0.508596 -1.81094 0
M  V30 3608 O 349.84 0.539598 -1.73084 0
M  V30 3609 C 349.888 -2.95358 -2.06872 0
M  V30 3610 O 348.992 -2.66556 -3.14677 0
M  V30 3611 H 348.333 -0.584614 -0.314838 0
M  V30 3612 H 350.863 -2.01146 -0.374348 0
M  V30 3613 H 350.873 -3.22566 -2.4983 0
M  V30 3614 H 349.548 -3.86385 -1.5388 0
M  V30 3615 H 348.125 -2.50282 -2.7643 0
M  V30 3616 N 350.31 0.590341 -1.46126 0
M  V30 3617 C 351.535 1.37991 -1.54833 0
M  V30 3618 C 351.96 1.87163 -0.187506 0
M  V30 3619 O 351.318 1.61133 0.831008 0
M  V30 3620 C 351.366 2.54867 -2.55098 0
M  V30 3621 O 350.47 3.56061 -2.08073 0
M  V30 3622 H 349.811 0.411265 -0.521303 0
M  V30 3623 H 352.341 0.716819 -1.91632 0
M  V30 3624 H 352.351 3.01886 -2.74461 0
M  V30 3625 H 351.026 2.18429 -3.53923 0
M  V30 3626 H 349.603 3.15574 -1.98664 0
M  V30 3627 N 351.788 1.33704 0.83433 0
M  V30 3628 C 353.204 1.13137 1.12571 0
M  V30 3629 C 353.404 -0.0747261 2.01361 0
M  V30 3630 O 352.46 -0.753647 2.4099 0
M  V30 3631 C 353.773 2.42105 1.78342 0
M  V30 3632 C 355.321 2.48054 1.90888 0
M  V30 3633 C 355.796 3.76995 2.60075 0
M  V30 3634 N 357.287 3.78092 2.67584 0
M  V30 3635 C 358.022 4.74574 3.21818 0
M  V30 3636 N 357.518 5.81434 3.76705 0
M  V30 3637 N 359.311 4.62044 3.20112 0
M  V30 3638 H 351.462 2.11 0.243489 0
M  V30 3639 H 353.725 0.932532 0.17055 0
M  V30 3640 H 353.431 3.30391 1.20561 0
M  V30 3641 H 353.305 2.54594 2.7832 0
M  V30 3642 H 355.692 1.60215 2.47821 0
M  V30 3643 H 355.773 2.39502 0.898459 0
M  V30 3644 H 355.417 4.65219 2.03799 0
M  V30 3645 H 355.347 3.82825 3.61597 0
M  V30 3646 H 357.838 3.00865 2.28667 0
M  V30 3647 H 358.151 6.51084 4.16305 0
M  V30 3648 H 356.496 5.85163 3.7498 0
M  V30 3649 H 359.687 3.77716 2.76493 0
M  V30 3650 H 359.86 5.37406 3.62076 0
M  V30 3651 N 353.266 -1.05314 1.17247 0
M  V30 3652 C 354.682 -1.30452 0.919473 0
M  V30 3653 C 354.882 -1.9703 -0.42209 0
M  V30 3654 O 353.938 -2.24311 -1.15935 0
M  V30 3655 C 355.251 -2.17551 2.07586 0
M  V30 3656 C 356.799 -2.30937 2.11275 0
M  V30 3657 C 357.274 -3.21396 3.26296 0
M  V30 3658 N 358.765 -3.28981 3.26076 0
M  V30 3659 C 359.5 -3.99095 4.11716 0
M  V30 3660 N 358.996 -4.71648 5.07465 0
M  V30 3661 N 360.789 -3.95247 3.9967 0
M  V30 3662 H 352.94 -0.604988 2.03602 0
M  V30 3663 H 355.203 -0.329368 0.888944 0
M  V30 3664 H 354.909 -1.75921 3.0454 0
M  V30 3665 H 354.783 -3.18182 2.02584 0
M  V30 3666 H 357.17 -2.71809 1.14907 0
M  V30 3667 H 357.251 -1.2994 2.20339 0
M  V30 3668 H 356.895 -2.81238 4.22927 0
M  V30 3669 H 356.825 -4.22395 3.14467 0
M  V30 3670 H 359.316 -2.77286 2.5675 0
M  V30 3671 H 359.629 -5.22705 5.6921 0
M  V30 3672 H 357.974 -4.70594 5.11435 0
M  V30 3673 H 361.165 -3.37691 3.24164 0
M  V30 3674 H 361.338 -4.4962 4.66632 0
M  V30 3675 N 354.744 -0.972509 -1.24016 0
M  V30 3676 C 355.707 -0.511403 -2.23422 0
M  V30 3677 C 356.707 0.394679 -1.55881 0
M  V30 3678 O 357.897 0.189469 -1.73167 0
M  V30 3679 C 355.029 0.258769 -3.39916 0
M  V30 3680 H 356.222 -1.39024 -2.6573 0
M  V30 3681 H 353.775 -0.757585 -1.36713 0
M  V30 3682 H 354.51 1.1545 -3.03054 0
M  V30 3683 H 354.295 -0.391522 -3.9014 0
M  V30 3684 H 355.785 0.570244 -4.13688 0
M  V30 3685 N 356.222 1.38976 -0.743202 0
M  V30 3686 C 357.469 2.00343 -0.294752 0
M  V30 3687 C 357.797 1.58983 1.12047 0
M  V30 3688 O 357.052 0.813809 1.77977 0
M  V30 3689 C 357.351 3.55647 -0.353517 0
M  V30 3690 C 357.017 4.16685 -1.72292 0
M  V30 3691 C 355.679 4.3307 -2.09771 0
M  V30 3692 C 358.031 4.50464 -2.62168 0
M  V30 3693 C 355.359 4.80526 -3.36618 0
M  V30 3694 C 357.711 4.99332 -3.88395 0
M  V30 3695 C 356.375 5.13924 -4.25956 0
M  V30 3696 H 355.645 0.733108 -0.107857 0
M  V30 3697 H 358.292 1.6618 -0.951651 0
M  V30 3698 H 356.597 3.89884 0.386954 0
M  V30 3699 H 358.294 4.00998 0.0117269 0
M  V30 3700 H 354.884 4.04339 -1.42155 0
M  V30 3701 H 359.068 4.37416 -2.3448 0
M  V30 3702 H 354.324 4.90008 -3.65653 0
M  V30 3703 H 358.498 5.2444 -4.58187 0
M  V30 3704 H 356.125 5.50457 -5.2431 0
M  V30 3705 N 357.7 0.491464 1.49741 0
M  V30 3706 C 358.946 -0.0485431 2.03342 0
M  V30 3707 C 359.301 -1.35566 1.36527 0
M  V30 3708 O 358.594 -1.85262 0.488729 0
M  V30 3709 C 358.788 -0.267329 3.56399 0
M  V30 3710 C 358.617 1.01703 4.38049 0
M  V30 3711 C 357.387 1.56614 4.80417 0
M  V30 3712 C 359.585 1.91782 4.77204 0
M  V30 3713 N 357.567 2.7974 5.4646 0
M  V30 3714 C 358.938 2.99489 5.42868 0
M  V30 3715 C 360.993 1.92575 4.5915 0
M  V30 3716 C 359.696 4.08005 5.92389 0
M  V30 3717 C 361.722 3.0006 5.09626 0
M  V30 3718 C 361.084 4.06485 5.75282 0
M  V30 3719 H 357.183 0.0227779 0.781668 0
M  V30 3720 H 359.767 0.664204 1.8302 0
M  V30 3721 H 357.938 -0.949126 3.76625 0
M  V30 3722 H 359.67 -0.803492 3.96644 0
M  V30 3723 H 356.425 1.11256 4.60347 0
M  V30 3724 H 356.849 3.42323 5.84075 0
M  V30 3725 H 361.491 1.11605 4.07804 0
M  V30 3726 H 359.209 4.89779 6.42761 0
M  V30 3727 H 362.795 3.01681 4.97473 0
M  V30 3728 H 361.675 4.88287 6.13633 0
M  V30 3729 N 359.178 -1.55987 0.224894 0
M  V30 3730 C 360.424 -1.99433 -0.39973 0
M  V30 3731 C 360.779 -1.11004 -1.57149 0
M  V30 3732 O 360.072 -0.160725 -1.90925 0
M  V30 3733 C 360.266 -3.46394 -0.880106 0
M  V30 3734 C 360.095 -4.4904 0.243565 0
M  V30 3735 C 358.865 -5.00272 0.711056 0
M  V30 3736 C 361.063 -5.03195 1.06299 0
M  V30 3737 N 359.045 -5.86628 1.80944 0
M  V30 3738 C 360.416 -5.86508 2.01017 0
M  V30 3739 C 362.471 -4.8555 1.10205 0
M  V30 3740 C 361.174 -6.54062 2.99324 0
M  V30 3741 C 363.2 -5.53866 2.07332 0
M  V30 3742 C 362.562 -6.3695 3.00789 0
M  V30 3743 H 358.661 -0.773815 -0.112847 0
M  V30 3744 H 361.245 -1.91754 0.337432 0
M  V30 3745 H 359.416 -3.54515 -1.58662 0
M  V30 3746 H 361.148 -3.76752 -1.47783 0
M  V30 3747 H 357.903 -4.72655 0.29906 0
M  V30 3748 H 358.327 -6.34507 2.36073 0
M  V30 3749 H 362.969 -4.20966 0.39343 0
M  V30 3750 H 360.687 -7.17827 3.71147 0
M  V30 3751 H 364.273 -5.42178 2.11032 0
M  V30 3752 H 363.153 -6.8888 3.74718 0
M  V30 3753 N 360.656 0.0484629 -1.57525 0
M  V30 3754 C 361.586 1.0549 -2.08313 0
M  V30 3755 C 362.567 1.38929 -0.981463 0
M  V30 3756 O 363.752 1.48151 -1.25558 0
M  V30 3757 C 360.882 2.36162 -2.54646 0
M  V30 3758 C 359.836 2.17016 -3.68901 0
M  V30 3759 C 359.162 3.53278 -4.01371 0
M  V30 3760 C 360.462 1.57219 -4.98076 0
M  V30 3761 H 362.156 0.632195 -2.92649 0
M  V30 3762 H 359.702 0.302654 -1.40784 0
M  V30 3763 H 361.655 3.06882 -2.88793 0
M  V30 3764 H 360.379 2.80456 -1.67368 0
M  V30 3765 H 359.038 1.48733 -3.35073 0
M  V30 3766 H 358.686 3.95185 -3.11188 0
M  V30 3767 H 358.386 3.41299 -4.78318 0
M  V30 3768 H 359.91 4.25391 -4.38035 0
M  V30 3769 H 361.324 2.17832 -5.30304 0
M  V30 3770 H 359.721 1.55871 -5.79503 0
M  V30 3771 H 360.791 0.535956 -4.81929 0
M  V30 3772 N 362.134 1.5431 0.320358 0
M  V30 3773 C 363.38 1.72924 1.05949 0
M  V30 3774 C 363.713 0.503185 1.87568 0
M  V30 3775 O 362.988 -0.499839 1.87968 0
M  V30 3776 C 363.271 3.00676 1.98156 0
M  V30 3777 C 363.124 4.3354 1.19845 0
M  V30 3778 C 364.443 3.24198 2.9763 0
M  V30 3779 H 361.562 0.629195 0.383774 0
M  V30 3780 H 364.204 1.87008 0.335854 0
M  V30 3781 H 362.354 2.888 2.59859 0
M  V30 3782 H 364.026 4.57305 0.605773 0
M  V30 3783 H 362.269 4.309 0.500784 0
M  V30 3784 H 362.94 5.19156 1.87567 0
M  V30 3785 H 365.416 3.35557 2.4605 0
M  V30 3786 H 364.292 4.14938 3.59329 0
M  V30 3787 H 364.553 2.41577 3.7026 0
M  V30 3788 N 363.613 -0.582584 1.46437 0
M  V30 3789 C 364.543 -1.70187 1.59871 0
M  V30 3790 C 365.524 -1.64066 0.449042 0
M  V30 3791 O 366.709 -1.82081 0.6753 0
M  V30 3792 C 363.839 -3.08827 1.58881 0
M  V30 3793 C 362.793 -3.29779 2.72819 0
M  V30 3794 C 362.119 -4.68947 2.5689 0
M  V30 3795 C 363.419 -3.17601 4.1464 0
M  V30 3796 H 365.113 -1.592 2.53566 0
M  V30 3797 H 362.659 -0.764472 1.22032 0
M  V30 3798 H 364.612 -3.86951 1.66873 0
M  V30 3799 H 363.336 -3.20713 0.617306 0
M  V30 3800 H 361.995 -2.54054 2.64296 0
M  V30 3801 H 361.643 -4.77599 1.57823 0
M  V30 3802 H 361.343 -4.83919 3.33312 0
M  V30 3803 H 362.867 -5.4924 2.66773 0
M  V30 3804 H 364.281 -3.8557 4.24274 0
M  V30 3805 H 362.678 -3.44094 4.9165 0
M  V30 3806 H 363.748 -2.14681 4.34788 0
M  V30 3807 N 365.091 -1.34144 -0.827227 0
M  V30 3808 C 366.054 -1.25264 -1.91942 0
M  V30 3809 C 367.054 -0.168866 -1.59911 0
M  V30 3810 O 368.244 -0.421198 -1.69031 0
M  V30 3811 C 365.376 -0.932952 -3.27885 0
M  V30 3812 H 366.569 -2.22357 -2.0124 0
M  V30 3813 H 364.122 -1.1837 -1.0207 0
M  V30 3814 H 364.857 0.0349917 -3.24281 0
M  V30 3815 H 364.642 -1.71682 -3.52516 0
M  V30 3816 H 366.132 -0.895874 -4.07877 0
M  V30 3817 N 366.569 1.04691 -1.17803 0
M  V30 3818 C 367.817 1.7743 -0.967617 0
M  V30 3819 C 368.138 1.88359 0.504574 0
M  V30 3820 O 367.408 1.40402 1.36617 0
M  V30 3821 H 365.988 0.657242 -0.355024 0
M  V30 3822 H 368.65 1.2638 -1.48371 0
M  V30 3823 H 367.746 2.78924 -1.40027 0
M  V30 3824 N 368.047 0.979072 1.23499 0
M  V30 3825 C 369.293 0.6578 1.9247 0
M  V30 3826 C 369.648 -0.799746 1.74991 0
M  V30 3827 O 368.941 -1.56922 1.09937 0
M  V30 3828 C 369.135 0.981932 3.43646 0
M  V30 3829 C 368.964 2.46944 3.75831 0
M  V30 3830 C 367.734 3.13119 3.96591 0
M  V30 3831 C 369.932 3.45006 3.81412 0
M  V30 3832 N 367.914 4.51489 4.15969 0
M  V30 3833 C 369.285 4.68778 4.05768 0
M  V30 3834 C 371.34 3.39505 3.64198 0
M  V30 3835 C 370.043 5.87723 4.14697 0
M  V30 3836 C 372.069 4.57814 3.7438 0
M  V30 3837 C 371.431 5.80381 3.99171 0
M  V30 3838 H 367.53 0.291746 0.72554 0
M  V30 3839 H 370.114 1.25626 1.48749 0
M  V30 3840 H 368.285 0.412179 3.86207 0
M  V30 3841 H 370.017 0.618068 3.99953 0
M  V30 3842 H 366.772 2.63619 3.93449 0
M  V30 3843 H 367.196 5.23221 4.29615 0
M  V30 3844 H 371.838 2.45773 3.44029 0
M  V30 3845 H 369.556 6.81874 4.33675 0
M  V30 3846 H 373.142 4.55132 3.62417 0
M  V30 3847 H 372.022 6.70398 4.06861 0
M  V30 3848 N 369.525 -1.3858 0.750561 0
M  V30 3849 C 370.773 -1.99789 0.30477 0
M  V30 3850 C 371.094 -1.59874 -1.11649 0
M  V30 3851 O 370.364 -0.85417 -1.76297 0
M  V30 3852 H 368.944 -0.738902 0.109694 0
M  V30 3853 H 371.606 -1.69391 0.963983 0
M  V30 3854 H 370.702 -3.09952 0.365499 0
M  V30 3855 N 371.003 -0.499398 -1.49478 0
M  V30 3856 C 371.933 0.269244 -2.31943 0
M  V30 3857 C 372.914 0.964054 -1.40143 0
M  V30 3858 O 374.099 0.955767 -1.69052 0
M  V30 3859 C 371.229 1.33504 -3.20615 0
M  V30 3860 C 370.183 0.760202 -4.21195 0
M  V30 3861 C 369.509 1.9264 -4.98792 0
M  V30 3862 C 370.809 -0.247661 -5.21712 0
M  V30 3863 H 372.503 -0.419082 -2.96452 0
M  V30 3864 H 370.049 -0.202988 -1.42562 0
M  V30 3865 H 372.002 1.88048 -3.77115 0
M  V30 3866 H 370.726 2.05253 -2.54045 0
M  V30 3867 H 369.385 0.23653 -3.65836 0
M  V30 3868 H 369.033 2.63154 -4.28671 0
M  V30 3869 H 368.733 1.54785 -5.66847 0
M  V30 3870 H 370.257 2.4762 -5.58137 0
M  V30 3871 H 371.671 0.209579 -5.72917 0
M  V30 3872 H 370.068 -0.541962 -5.97648 0
M  V30 3873 H 371.138 -1.16409 -4.7072 0
M  V30 3874 N 372.481 1.55866 -0.233164 0
M  V30 3875 C 373.892 1.847 0.272554 0
M  V30 3876 C 374.243 1.15477 1.58617 0
M  V30 3877 O 373.368 0.42841 2.12117 0
M  V30 3878 C 373.963 3.35071 0.501299 0
M  V30 3879 C 372.522 3.6418 0.951304 0
M  V30 3880 C 371.669 2.77292 0.0208209 0
M  V30 3881 H 374.62 1.52005 -0.456074 0
M  V30 3882 H 374.641 3.55906 1.34577 0
M  V30 3883 H 374.153 3.85424 -0.454936 0
M  V30 3884 H 372.254 3.19293 1.92049 0
M  V30 3885 H 372.367 4.72071 0.817675 0
M  V30 3886 H 370.731 2.49131 0.529723 0
M  V30 3887 H 371.514 3.30448 -0.93054 0
M  V30 3888 N 373.959 -0.0401083 1.57549 0
M  V30 3889 C 375.205 -0.734211 1.89043 0
M  V30 3890 C 375.538 -1.75591 0.829535 0
M  V30 3891 O 374.813 -1.93868 -0.156706 0
M  V30 3892 C 375.096 -1.41374 3.31188 0
M  V30 3893 C 374.949 -0.406299 4.47961 0
M  V30 3894 C 376.268 -2.35061 3.72068 0
M  V30 3895 H 373.387 -0.265447 0.687537 0
M  V30 3896 H 376.029 0.00294087 1.9 0
M  V30 3897 H 374.179 -2.04206 3.30503 0
M  V30 3898 H 375.851 0.219255 4.60779 0
M  V30 3899 H 374.094 0.275485 4.32924 0
M  V30 3900 H 374.765 -0.920022 5.44279 0
M  V30 3901 H 377.241 -1.82282 3.74049 0
M  V30 3902 H 376.117 -2.79593 4.72355 0
M  V30 3903 H 376.378 -3.21258 3.0372 0
M  V30 3904 N 375.437 -1.54477 -0.31217 0
M  V30 3905 C 376.367 -1.87652 -1.38957 0
M  V30 3906 C 377.348 -0.734358 -1.53431 0
M  V30 3907 O 378.533 -0.98911 -1.67123 0
M  V30 3908 C 375.663 -2.11396 -2.75552 0
M  V30 3909 C 374.617 -3.27243 -2.75855 0
M  V30 3910 C 373.943 -3.36382 -4.15633 0
M  V30 3911 C 375.243 -4.64622 -2.38587 0
M  V30 3912 H 376.937 -2.77887 -1.11442 0
M  V30 3913 H 374.483 -1.33707 -0.534655 0
M  V30 3914 H 376.436 -2.33189 -3.51 0
M  V30 3915 H 375.16 -1.17921 -3.04569 0
M  V30 3916 H 373.819 -3.05356 -2.02863 0
M  V30 3917 H 373.467 -2.40445 -4.41809 0
M  V30 3918 H 373.167 -4.14249 -4.1674 0
M  V30 3919 H 374.691 -3.60422 -4.92877 0
M  V30 3920 H 376.105 -4.86219 -3.03749 0
M  V30 3921 H 374.502 -5.45121 -2.50925 0
M  V30 3922 H 375.572 -4.66097 -1.33723 0
M  V30 3923 N 376.915 0.57481 -1.46744 0
M  V30 3924 C 378.162 1.33272 -1.52462 0
M  V30 3925 C 378.49 1.93669 -0.179572 0
M  V30 3926 O 377.745 1.7743 0.825664 0
M  V30 3927 C 378.044 2.476 -2.57738 0
M  V30 3928 C 377.71 2.05146 -4.01529 0
M  V30 3929 C 376.372 1.93284 -4.40676 0
M  V30 3930 C 378.724 1.72506 -4.91824 0
M  V30 3931 C 376.052 1.47049 -5.67973 0
M  V30 3932 C 378.404 1.27748 -6.19567 0
M  V30 3933 C 377.068 1.14468 -6.57612 0
M  V30 3934 H 376.338 0.487678 -0.557899 0
M  V30 3935 H 378.985 0.646456 -1.80259 0
M  V30 3936 H 377.29 3.21708 -2.23632 0
M  V30 3937 H 378.987 3.05807 -2.5939 0
M  V30 3938 H 375.577 2.15316 -3.7059 0
M  V30 3939 H 379.761 1.80552 -4.62293 0
M  V30 3940 H 375.017 1.35417 -5.96215 0
M  V30 3941 H 379.191 1.01547 -6.88957 0
M  V30 3942 H 376.818 0.78419 -7.56145 0
M  V30 3943 N 378.394 1.34581 0.820102 0
M  V30 3944 C 379.622 1.3018 1.60813 0
M  V30 3945 C 380.037 -0.123551 1.88395 0
M  V30 3946 O 379.394 -1.07148 1.47735 0
M  V30 3947 C 379.445 2.09312 2.94739 0
M  V30 3948 O 379.166 3.46288 2.68358 0
M  V30 3949 C 380.667 2.1234 3.89136 0
M  V30 3950 H 377.887 0.447726 0.499782 0
M  V30 3951 H 380.431 1.77237 1.02017 0
M  V30 3952 H 378.586 1.65889 3.50085 0
M  V30 3953 H 379 3.87227 3.53774 0
M  V30 3954 H 380.474 2.72126 4.80262 0
M  V30 3955 H 380.951 1.11854 4.24718 0
M  V30 3956 H 381.557 2.55864 3.39726 0
M  V30 3957 N 379.872 -1.04064 1.18357 0
M  V30 3958 C 381.12 -1.76915 0.977013 0
M  V30 3959 C 381.441 -1.88624 -0.494577 0
M  V30 3960 O 380.711 -1.41125 -1.3587 0
M  V30 3961 H 379.291 -0.65535 0.358504 0
M  V30 3962 H 381.953 -1.25592 1.49039 0
M  V30 3963 H 381.049 -2.78178 1.41504 0
M  V30 3964 N 381.35 -0.985608 -1.22978 0
M  V30 3965 C 382.578 -0.675582 -1.95559 0
M  V30 3966 C 382.993 0.758413 -1.72897 0
M  V30 3967 O 382.35 1.51094 -1.02357 0
M  V30 3968 C 382.401 -0.96293 -3.48439 0
M  V30 3969 O 382.122 -2.34057 -3.70336 0
M  V30 3970 C 383.623 -0.669585 -4.38214 0
M  V30 3971 H 380.843 -0.250523 -0.622478 0
M  V30 3972 H 383.387 -1.3184 -1.56328 0
M  V30 3973 H 381.542 -0.366033 -3.85667 0
M  V30 3974 H 381.956 -2.43424 -4.64591 0
M  V30 3975 H 383.43 -0.920967 -5.44263 0
M  V30 3976 H 383.907 0.396383 -4.37408 0
M  V30 3977 H 384.513 -1.2472 -4.06602 0
M  V30 3978 N 382.828 1.3818 -0.7579 0
M  V30 3979 C 384.074 2.0078 -0.325423 0
M  V30 3980 C 384.429 1.59085 1.08211 0
M  V30 3981 O 383.722 0.820394 1.73148 0
M  V30 3982 C 383.916 3.55252 -0.391218 0
M  V30 3983 C 383.745 4.11947 -1.8036 0
M  V30 3984 C 382.515 4.43519 -2.42113 0
M  V30 3985 C 384.713 4.33908 -2.76095 0
M  V30 3986 N 382.695 4.85847 -3.75267 0
M  V30 3987 C 384.066 4.78692 -3.94023 0
M  V30 3988 C 386.121 4.16015 -2.73561 0
M  V30 3989 C 384.824 5.07459 -5.09782 0
M  V30 3990 C 386.85 4.45909 -3.88483 0
M  V30 3991 C 386.212 4.90921 -5.0515 0
M  V30 3992 H 382.311 0.764215 -0.165831 0
M  V30 3993 H 384.895 1.67724 -0.988776 0
M  V30 3994 H 383.066 3.87646 0.241886 0
M  V30 3995 H 384.798 4.04653 0.061989 0
M  V30 3996 H 381.553 4.32113 -1.93842 0
M  V30 3997 H 381.977 5.11339 -4.4369 0
M  V30 3998 H 386.619 3.80399 -1.84544 0
M  V30 3999 H 384.337 5.4197 -5.99412 0
M  V30 4000 H 387.923 4.33666 -3.87847 0
M  V30 4001 H 386.803 5.1361 -5.92599 0
M  V30 4002 N 384.306 0.507319 1.49211 0
M  V30 4003 C 385.552 -0.0350047 2.0277 0
M  V30 4004 C 385.885 -1.3606 1.38569 0
M  V30 4005 O 385.16 -1.87321 0.523542 0
M  V30 4006 C 385.443 -0.180916 3.59645 0
M  V30 4007 C 385.296 1.16825 4.34364 0
M  V30 4008 C 386.615 -0.918558 4.30407 0
M  V30 4009 H 383.734 -0.0112473 0.736914 0
M  V30 4010 H 386.376 0.659956 1.7817 0
M  V30 4011 H 384.526 -0.772826 3.80736 0
M  V30 4012 H 386.198 1.79952 4.24753 0
M  V30 4013 H 384.441 1.75594 3.96673 0
M  V30 4014 H 385.112 1.01939 5.42506 0
M  V30 4015 H 387.588 -0.41649 4.1401 0
M  V30 4016 H 386.464 -0.989505 5.39907 0
M  V30 4017 H 386.725 -1.96373 3.96093 0
M  V30 4018 N 385.784 -1.5574 0.241426 0
M  V30 4019 C 387.009 -2.0366 -0.392111 0
M  V30 4020 C 387.434 -1.11969 -1.51144 0
M  V30 4021 O 386.792 -0.111594 -1.80956 0
M  V30 4022 C 386.84 -3.49638 -0.882371 0
M  V30 4023 O 385.944 -3.6108 -1.99235 0
M  V30 4024 H 385.285 -0.658379 -0.0862122 0
M  V30 4025 H 387.815 -2.01302 0.365881 0
M  V30 4026 H 387.825 -3.90351 -1.18702 0
M  V30 4027 H 386.5 -4.15852 -0.0632361 0
M  V30 4028 H 385.077 -3.32262 -1.69282 0
M  V30 4029 N 387.262 0.0317525 -1.57568 0
M  V30 4030 C 388.502 0.727979 -1.90997 0
M  V30 4031 C 388.866 1.72664 -0.839708 0
M  V30 4032 O 390.067 2.47092 -1.05825 0
M  V30 4033 C 388.338 1.38239 -3.29583 0
M  V30 4034 S 389.897 2.10814 -3.84841 0
M  V30 4035 H 386.715 0.241226 -0.668828 0
M  V30 4036 H 389.317 -0.0173037 -1.95492 0
M  V30 4037 H 388.021 0.642288 -4.05343 0
M  V30 4038 H 387.552 2.16628 -3.28384 0
M  V30 4039 H 389.567 3.3792 -3.63352 0
M  V30 4040 N 388.74 1.54641 0.303973 0
M  V30 4041 C 389.687 1.85386 1.37479 0
M  V30 4042 C 390.657 0.702528 1.50512 0
M  V30 4043 O 391.842 0.950867 1.65418 0
M  V30 4044 C 388.982 2.10413 2.73533 0
M  V30 4045 C 388.095 3.38049 2.68974 0
M  V30 4046 C 387.23 3.52934 3.97002 0
M  V30 4047 C 386.269 4.74373 3.86829 0
M  V30 4048 N 385.406 4.8608 5.06627 0
M  V30 4049 H 390.246 2.76732 1.1056 0
M  V30 4050 H 387.783 1.37034 0.534805 0
M  V30 4051 H 389.741 2.22919 3.52652 0
M  V30 4052 H 388.371 1.22338 2.98719 0
M  V30 4053 H 387.423 3.3418 1.81736 0
M  V30 4054 H 388.735 4.27288 2.57346 0
M  V30 4055 H 387.889 3.65088 4.84557 0
M  V30 4056 H 386.628 2.61824 4.1146 0
M  V30 4057 H 385.633 4.62255 2.97658 0
M  V30 4058 H 386.858 5.66888 3.73918 0
M  V30 4059 H 384.804 3.97891 5.21554 0
M  V30 4060 H 384.721 5.69315 4.9741 0
M  V30 4061 H 385.989 5.02587 5.95841 0
M  V30 4062 N 390.218 -0.567019 1.47046 0
M  V30 4063 C 391.148 -1.68482 1.61667 0
M  V30 4064 C 392.129 -1.6358 0.466418 0
M  V30 4065 O 393.314 -1.81354 0.694574 0
M  V30 4066 C 390.444 -3.07124 1.62148 0
M  V30 4067 C 389.398 -3.26867 2.76301 0
M  V30 4068 C 388.724 -4.66196 2.61849 0
M  V30 4069 C 390.024 -3.13186 4.17986 0
M  V30 4070 H 391.718 -1.56502 2.5524 0
M  V30 4071 H 389.264 -0.751486 1.22836 0
M  V30 4072 H 391.217 -3.8516 1.70968 0
M  V30 4073 H 389.941 -3.2004 0.651287 0
M  V30 4074 H 388.6 -2.51237 2.66975 0
M  V30 4075 H 388.248 -4.75898 1.62879 0
M  V30 4076 H 387.948 -4.80356 3.38425 0
M  V30 4077 H 389.472 -5.46379 2.72584 0
M  V30 4078 H 390.886 -3.81049 4.2834 0
M  V30 4079 H 389.283 -3.3886 4.95272 0
M  V30 4080 H 390.353 -2.10057 4.3704 0
M  V30 4081 N 391.696 -1.35014 -0.812953 0
M  V30 4082 C 392.659 -1.27292 -1.90602 0
M  V30 4083 C 393.659 -0.185817 -1.59723 0
M  V30 4084 O 394.849 -0.439102 -1.68575 0
M  V30 4085 C 391.981 -0.967676 -3.26877 0
M  V30 4086 H 393.174 -2.24479 -1.9887 0
M  V30 4087 H 390.727 -1.19446 -1.00808 0
M  V30 4088 H 391.462 0.0005954 -3.243 0
M  V30 4089 H 391.247 -1.75412 -3.50675 0
M  V30 4090 H 392.737 -0.939085 -4.06904 0
M  V30 4091 N 393.175 1.03435 -1.18907 0
M  V30 4092 C 394.422 1.76743 -0.988334 0
M  V30 4093 C 394.75 1.88447 0.481441 0
M  V30 4094 O 394.005 1.39383 1.37371 0
M  V30 4095 C 394.304 3.19792 -1.59586 0
M  V30 4096 C 393.97 3.28108 -3.09283 0
M  V30 4097 C 392.632 3.30084 -3.5014 0
M  V30 4098 C 394.984 3.27696 -4.05296 0
M  V30 4099 C 392.312 3.29299 -4.85571 0
M  V30 4100 C 394.664 3.28451 -5.4065 0
M  V30 4101 C 393.328 3.28723 -5.80946 0
M  V30 4102 H 392.598 0.64675 -0.361657 0
M  V30 4103 H 395.245 1.21442 -1.48068 0
M  V30 4104 H 393.55 3.78136 -1.02568 0
M  V30 4105 H 395.247 3.75171 -1.41589 0
M  V30 4106 H 391.837 3.27294 -2.76725 0
M  V30 4107 H 396.021 3.25354 -3.74778 0
M  V30 4108 H 391.277 3.2783 -5.16079 0
M  V30 4109 H 395.451 3.27082 -6.14809 0
M  V30 4110 H 393.078 3.27868 -6.85862 0
M  V30 4111 N 394.653 0.992116 1.22453 0
M  V30 4112 C 395.563 0.55065 2.28046 0
M  V30 4113 C 396.579 -0.400189 1.69335 0
M  V30 4114 O 397.755 -0.267215 1.99619 0
M  V30 4115 C 394.82 -0.128496 3.46462 0
M  V30 4116 C 393.881 0.865208 4.20491 0
M  V30 4117 C 393.114 0.218377 5.33253 0
M  V30 4118 O 393.337 -0.987894 5.6178 0
M  V30 4119 O 392.271 0.922845 5.94783 0
M  V30 4120 H 396.097 1.4291 2.67975 0
M  V30 4121 H 393.682 0.760326 1.28606 0
M  V30 4122 H 395.564 -0.508947 4.18315 0
M  V30 4123 H 394.239 -0.981526 3.0846 0
M  V30 4124 H 393.146 1.29658 3.50913 0
M  V30 4125 H 394.479 1.68741 4.62371 0
M  V30 4126 N 396.131 -1.37776 0.765217 0
M  V30 4127 C 397.408 -1.93975 0.251596 0
M  V30 4128 C 397.788 -1.69949 -1.25222 0
M  V30 4129 O 397.136 -1.04457 -2.03226 0
M  V30 4130 C 397.346 -3.43487 0.617895 0
M  V30 4131 C 398.694 -4.20564 0.584029 0
M  V30 4132 O 399.718 -3.5182 0.556888 0
M  V30 4133 O 398.577 -5.43138 0.605291 0
M  V30 4134 H 395.671 -0.82509 0.0561806 0
M  V30 4135 H 398.217 -1.47101 0.846128 0
M  V30 4136 H 396.989 -3.5453 1.65602 0
M  V30 4137 H 396.612 -3.976 -0.00403411 0
M  V30 4138 N 397.609 -0.515225 -1.4894 0
M  V30 4139 C 398.858 0.0261361 -2.01683 0
M  V30 4140 C 399.171 1.36719 -1.39883 0
M  V30 4141 O 400.377 1.99606 -1.84037 0
M  V30 4142 C 398.833 0.0970111 -3.59769 0
M  V30 4143 C 398.441 -1.23825 -4.30548 0
M  V30 4144 C 400.185 0.587981 -4.20408 0
M  V30 4145 C 398.092 -1.12877 -5.80528 0
M  V30 4146 H 397.022 0.0135398 -0.753878 0
M  V30 4147 H 399.673 -0.656787 -1.71343 0
M  V30 4148 H 398.055 0.844694 -3.86886 0
M  V30 4149 H 399.229 -2.00034 -4.15118 0
M  V30 4150 H 397.544 -1.66379 -3.81716 0
M  V30 4151 H 400.141 0.68763 -5.3026 0
M  V30 4152 H 400.484 1.59026 -3.84729 0
M  V30 4153 H 401.017 -0.103582 -3.97665 0
M  V30 4154 H 397.756 -2.10575 -6.20756 0
M  V30 4155 H 397.276 -0.407799 -5.98412 0
M  V30 4156 H 398.955 -0.813332 -6.41868 0
M  V30 4157 N 399.087 1.5561 -0.249682 0
M  V30 4158 C 400.05 2.20217 0.635394 0
M  V30 4159 C 401.05 1.17227 1.10066 0
M  V30 4160 O 402.24 1.42292 1.00492 0
M  V30 4161 C 399.372 2.84794 1.87363 0
M  V30 4162 H 400.565 2.99814 0.0716752 0
M  V30 4163 H 398.118 1.563 -0.000153234 0
M  V30 4164 H 398.853 2.09142 2.47851 0
M  V30 4165 H 398.638 3.60241 1.5482 0
M  V30 4166 H 400.128 3.3423 2.5036 0
M  V30 4167 N 400.565 -0.0233959 1.57583 0
M  V30 4168 C 401.805 -0.71784 1.9138 0
M  V30 4169 C 402.169 -1.72216 0.848853 0
M  V30 4170 O 403.37 -2.46527 1.07134 0
M  V30 4171 C 401.641 -1.36489 3.30311 0
M  V30 4172 S 403.2 -2.0877 3.85954 0
M  V30 4173 H 400.018 -0.237676 0.670098 0
M  V30 4174 H 402.62 0.0276709 1.9548 0
M  V30 4175 H 401.324 -0.620782 4.05678 0
M  V30 4176 H 400.855 -2.14883 3.29528 0
M  V30 4177 H 402.87 -3.35988 3.65139 0
M  V30 4178 N 402.043 -1.548 -0.295768 0
M  V30 4179 C 403.289 -1.75517 -1.02789 0
M  V30 4180 C 403.644 -0.537266 -1.84746 0
M  V30 4181 O 402.937 0.470299 -1.85738 0
M  V30 4182 C 403.131 -2.98797 -1.961 0
M  V30 4183 C 402.96 -4.3246 -1.23321 0
M  V30 4184 C 401.73 -4.96131 -0.95822 0
M  V30 4185 C 403.928 -5.10365 -0.635024 0
M  V30 4186 N 401.91 -6.1357 -0.201257 0
M  V30 4187 C 403.281 -6.19999 -0.0110937 0
M  V30 4188 C 405.336 -4.94957 -0.540594 0
M  V30 4189 C 404.039 -7.15904 0.698136 0
M  V30 4190 C 406.065 -5.91197 0.154992 0
M  V30 4191 C 405.427 -7.00203 0.767752 0
M  V30 4192 H 401.526 -0.694786 -0.358882 0
M  V30 4193 H 404.11 -1.92281 -0.305943 0
M  V30 4194 H 402.281 -2.83448 -2.6554 0
M  V30 4195 H 404.013 -3.08017 -2.62502 0
M  V30 4196 H 400.768 -4.56595 -1.25771 0
M  V30 4197 H 401.192 -6.76802 0.16389 0
M  V30 4198 H 405.834 -4.10803 -1.00003 0
M  V30 4199 H 403.552 -7.99595 1.16933 0
M  V30 4200 H 407.138 -5.81353 0.228069 0
M  V30 4201 H 406.018 -7.73393 1.29743 0
M  V30 4202 N 403.521 0.559213 -1.47345 0
M  V30 4203 C 404.798 1.31997 -1.44348 0
M  V30 4204 C 405.178 2.1064 -0.139358 0
M  V30 4205 O 404.526 2.1091 0.879153 0
M  V30 4206 C 404.736 2.22618 -2.68779 0
M  V30 4207 C 406.084 2.83701 -3.1591 0
M  V30 4208 O 407.108 2.32921 -2.69493 0
M  V30 4209 O 405.967 3.75993 -3.966 0
M  V30 4210 H 403.061 0.594251 -0.575147 0
M  V30 4211 H 405.607 0.578282 -1.59543 0
M  V30 4212 H 404.379 1.64093 -3.55231 0
M  V30 4213 H 404.002 3.04085 -2.5616 0
M  V30 4214 N 404.999 1.35443 0.805782 0
M  V30 4215 C 405.929 1.31095 1.93226 0
M  V30 4216 C 406.91 0.185244 1.69088 0
M  V30 4217 O 408.095 0.380332 1.90439 0
M  V30 4218 C 405.225 1.08299 3.29983 0
M  V30 4219 C 404.179 2.17519 3.68605 0
M  V30 4220 C 403.505 1.79887 5.03532 0
M  V30 4221 C 404.805 3.5949 3.78898 0
M  V30 4222 H 406.499 2.25352 1.97122 0
M  V30 4223 H 404.045 1.0848 0.946996 0
M  V30 4224 H 405.998 1.03897 4.08391 0
M  V30 4225 H 404.722 0.104885 3.26432 0
M  V30 4226 H 403.381 2.2102 2.92482 0
M  V30 4227 H 403.029 0.80693 4.96485 0
M  V30 4228 H 402.729 2.53001 5.30344 0
M  V30 4229 H 404.253 1.77011 5.84379 0
M  V30 4230 H 405.667 3.58307 4.47536 0
M  V30 4231 H 404.064 4.31371 4.1718 0
M  V30 4232 H 405.134 3.95584 2.80431 0
M  V30 4233 N 406.477 -1.02803 1.19454 0
M  V30 4234 C 407.754 -1.73299 0.907013 0
M  V30 4235 C 408.134 -2.02772 -0.587086 0
M  V30 4236 O 407.482 -1.68304 -1.54551 0
M  V30 4237 C 407.692 -3.00912 1.76785 0
M  V30 4238 C 409.04 -3.74403 2.00268 0
M  V30 4239 O 410.064 -3.10841 1.73943 0
M  V30 4240 O 408.923 -4.88675 2.4466 0
M  V30 4241 H 406.017 -0.754727 0.338106 0
M  V30 4242 H 408.563 -1.08754 1.30271 0
M  V30 4243 H 407.335 -2.75366 2.7801 0
M  V30 4244 H 406.958 -3.73197 1.37149 0
M  V30 4245 N 407.956 -0.998596 -1.21925 0
M  V30 4246 C 409.233 -0.593401 -1.86382 0
M  V30 4247 C 409.613 0.92916 -1.89552 0
M  V30 4248 O 408.961 1.81347 -1.39017 0
M  V30 4249 C 409.171 -1.22039 -3.26967 0
M  V30 4250 C 410.519 -1.32449 -4.03413 0
M  V30 4251 O 411.543 -1.17522 -3.36254 0
M  V30 4252 O 410.402 -1.56395 -5.23644 0
M  V30 4253 H 407.496 -0.202385 -0.801854 0
M  V30 4254 H 410.042 -1.09484 -1.29659 0
M  V30 4255 H 408.814 -2.26158 -3.19325 0
M  V30 4256 H 408.437 -0.704906 -3.91301 0
M  V30 4257 N 409.434 1.37368 -0.772513 0
M  V30 4258 C 410.662 2.03942 -0.348588 0
M  V30 4259 C 411.077 1.58264 1.02947 0
M  V30 4260 O 410.434 0.764246 1.65727 0
M  V30 4261 C 410.485 3.5946 -0.38351 0
M  V30 4262 O 410.206 4.03468 -1.70721 0
M  V30 4263 C 411.707 4.4327 0.0519152 0
M  V30 4264 H 408.927 0.654931 -0.145966 0
M  V30 4265 H 411.471 1.75686 -1.04665 0
M  V30 4266 H 409.626 3.86486 0.265978 0
M  V30 4267 H 410.04 4.97991 -1.64636 0
M  V30 4268 H 411.514 5.51995 -0.0236733 0
M  V30 4269 H 411.991 4.2514 1.10238 0
M  V30 4270 H 412.597 4.21471 -0.569415 0
M  V30 4271 N 410.912 0.523116 1.48665 0
M  V30 4272 C 412.137 -0.0117284 2.07397 0
M  V30 4273 C 412.562 -1.28031 1.37803 0
M  V30 4274 O 411.92 -1.75836 0.441762 0
M  V30 4275 C 411.968 -0.225786 3.59892 0
M  V30 4276 O 411.072 -1.29592 3.91509 0
M  V30 4277 H 410.413 0.0360673 0.66302 0
M  V30 4278 H 412.943 0.729066 1.9117 0
M  V30 4279 H 412.953 -0.450552 4.05505 0
M  V30 4280 H 411.628 0.700944 4.09951 0
M  V30 4281 H 410.205 -1.05436 3.57684 0
M  V30 4282 N 412.39 -1.55475 0.257931 0
M  V30 4283 C 413.801 -1.8511 -0.243135 0
M  V30 4284 C 414.152 -1.17986 -1.5676 0
M  V30 4285 O 413.277 -0.462102 -2.11409 0
M  V30 4286 C 413.872 -3.35826 -0.447929 0
M  V30 4287 C 412.431 -3.65647 -0.893245 0
M  V30 4288 C 411.578 -2.7729 0.0232965 0
M  V30 4289 H 414.529 -1.51261 0.480199 0
M  V30 4290 H 414.55 -3.58002 -1.28898 0
M  V30 4291 H 414.062 -3.84652 0.516196 0
M  V30 4292 H 412.163 -3.22308 -1.86945 0
M  V30 4293 H 412.276 -4.73312 -0.742469 0
M  V30 4294 H 410.64 -2.49942 -0.490021 0
M  V30 4295 H 411.423 -3.28926 0.982994 0
M  V30 4296 N 413.868 0.0150385 -1.57593 0
M  V30 4297 C 415.098 0.713359 -1.93894 0
M  V30 4298 C 415.506 1.68663 -0.857289 0
M  V30 4299 O 414.849 1.82876 0.173788 0
M  V30 4300 C 414.911 1.51348 -3.26089 0
M  V30 4301 C 414.575 0.703451 -4.51554 0
M  V30 4302 C 415.572 -0.00237924 -5.199 0
M  V30 4303 C 413.257 0.653854 -4.98026 0
M  V30 4304 C 415.251 -0.746955 -6.33008 0
M  V30 4305 C 412.938 -0.0944578 -6.11027 0
M  V30 4306 C 413.936 -0.793609 -6.78374 0
M  V30 4307 O 413.624 -1.52974 -7.89211 0
M  V30 4308 H 413.356 0.204637 -0.644282 0
M  V30 4309 H 415.91 -0.0276411 -2.05381 0
M  V30 4310 H 414.14 2.29862 -3.10967 0
M  V30 4311 H 415.829 2.09572 -3.47612 0
M  V30 4312 H 416.595 0.0268803 -4.84993 0
M  V30 4313 H 412.474 1.18756 -4.45441 0
M  V30 4314 H 416.018 -1.2932 -6.85509 0
M  V30 4315 H 411.915 -0.125591 -6.45378 0
M  V30 4316 H 412.683 -1.44488 -8.05646 0
M  V30 4317 N 415.346 1.54954 0.287554 0
M  V30 4318 C 416.592 1.76059 1.01856 0
M  V30 4319 C 416.947 0.547056 1.84459 0
M  V30 4320 O 416.24 -0.460442 1.85985 0
M  V30 4321 C 416.434 2.99833 1.94512 0
M  V30 4322 C 416.263 4.33108 1.21026 0
M  V30 4323 C 415.033 4.96632 0.931896 0
M  V30 4324 C 417.231 5.10694 0.607949 0
M  V30 4325 N 415.213 6.13668 0.168716 0
M  V30 4326 C 416.584 6.19996 -0.0217865 0
M  V30 4327 C 418.639 4.95236 0.514338 0
M  V30 4328 C 417.342 7.15524 -0.736092 0
M  V30 4329 C 419.368 5.91106 -0.186343 0
M  V30 4330 C 418.73 6.99786 -0.804875 0
M  V30 4331 H 414.829 0.696679 0.355193 0
M  V30 4332 H 417.413 1.92441 0.295741 0
M  V30 4333 H 415.584 2.84853 2.64033 0
M  V30 4334 H 417.316 3.09405 2.60865 0
M  V30 4335 H 414.071 4.57255 1.23348 0
M  V30 4336 H 414.495 6.76705 -0.199781 0
M  V30 4337 H 419.137 4.11328 0.978234 0
M  V30 4338 H 416.855 7.98964 -1.21172 0
M  V30 4339 H 420.441 5.81224 -0.258897 0
M  V30 4340 H 419.321 7.72694 -1.33843 0
M  V30 4341 N 416.824 -0.551391 1.4764 0
M  V30 4342 C 418.07 -1.30789 1.55774 0
M  V30 4343 C 418.425 -1.91143 0.219562 0
M  V30 4344 O 417.718 -1.7521 -0.775375 0
M  V30 4345 C 417.912 -2.43469 2.61644 0
M  V30 4346 C 417.741 -1.94157 4.05627 0
M  V30 4347 C 416.511 -1.77734 4.7301 0
M  V30 4348 C 418.709 -1.48262 4.92466 0
M  V30 4349 N 416.691 -1.22823 6.01488 0
M  V30 4350 C 418.062 -1.05156 6.11017 0
M  V30 4351 C 420.117 -1.36367 4.78862 0
M  V30 4352 C 418.82 -0.513357 7.17466 0
M  V30 4353 C 420.846 -0.839484 5.85411 0
M  V30 4354 C 420.208 -0.418377 7.03156 0
M  V30 4355 H 416.307 -0.470406 0.624694 0
M  V30 4356 H 418.891 -0.624331 1.84419 0
M  V30 4357 H 417.062 -3.09348 2.34859 0
M  V30 4358 H 418.794 -3.10477 2.59589 0
M  V30 4359 H 415.549 -2.00623 4.29007 0
M  V30 4360 H 415.973 -0.974393 6.69951 0
M  V30 4361 H 420.615 -1.67535 3.88191 0
M  V30 4362 H 418.333 -0.189318 8.07878 0
M  V30 4363 H 421.919 -0.750921 5.76934 0
M  V30 4364 H 420.799 -0.0190538 7.84198 0
M  V30 4365 N 418.302 -1.35869 -0.798587 0
M  V30 4366 C 419.551 -1.28921 -1.5512 0
M  V30 4367 C 419.864 0.13208 -1.95154 0
M  V30 4368 O 421.07 0.323879 -2.69561 0
M  V30 4369 C 419.526 -2.26141 -2.79979 0
M  V30 4370 C 419.134 -3.73658 -2.47151 0
M  V30 4371 C 420.878 -2.28152 -3.57976 0
M  V30 4372 C 418.785 -4.62679 -3.6835 0
M  V30 4373 H 417.715 -0.479031 -0.582276 0
M  V30 4374 H 420.366 -1.61179 -0.877125 0
M  V30 4375 H 418.748 -1.86865 -3.49138 0
M  V30 4376 H 419.922 -4.21616 -1.85947 0
M  V30 4377 H 418.237 -3.74333 -1.82383 0
M  V30 4378 H 420.834 -2.91875 -4.4801 0
M  V30 4379 H 421.177 -1.28748 -3.95891 0
M  V30 4380 H 421.71 -2.65998 -2.95787 0
M  V30 4381 H 418.449 -5.63111 -3.35538 0
M  V30 4382 H 417.969 -4.19442 -4.28752 0
M  V30 4383 H 419.648 -4.78498 -4.35487 0
M  V30 4384 N 419.78 1.02168 -1.19998 0
M  V30 4385 C 421.029 1.75091 -1.0013 0
M  V30 4386 C 421.342 1.89923 0.467835 0
M  V30 4387 O 422.548 2.59888 0.785515 0
M  V30 4388 C 421.004 3.14892 -1.74273 0
M  V30 4389 C 420.612 3.0809 -3.25245 0
M  V30 4390 C 422.356 3.9206 -1.62755 0
M  V30 4391 C 420.263 4.42867 -3.91948 0
M  V30 4392 H 419.193 0.656394 -0.37103 0
M  V30 4393 H 421.844 1.14284 -1.43567 0
M  V30 4394 H 420.226 3.7621 -1.2362 0
M  V30 4395 H 421.4 2.5611 -3.83072 0
M  V30 4396 H 419.715 2.44416 -3.3712 0
M  V30 4397 H 422.312 4.91764 -2.09934 0
M  V30 4398 H 422.655 4.12199 -0.582894 0
M  V30 4399 H 423.188 3.37359 -2.10793 0
M  V30 4400 H 419.927 4.27931 -4.96543 0
M  V30 4401 H 419.447 4.94874 -3.3891 0
M  V30 4402 H 421.126 5.11728 -3.95909 0
M  V30 4403 N 421.258 1.00505 1.21394 0
M  V30 4404 C 422.205 0.565496 2.23765 0
M  V30 4405 C 423.175 -0.408466 1.60999 0
M  V30 4406 O 424.36 -0.310503 1.88257 0
M  V30 4407 C 421.5 -0.101667 3.4495 0
M  V30 4408 C 420.613 0.915479 4.22188 0
M  V30 4409 C 419.748 0.220574 5.30742 0
M  V30 4410 C 418.787 1.22527 5.99711 0
M  V30 4411 N 417.924 0.557831 6.9988 0
M  V30 4412 H 422.764 1.44314 2.60725 0
M  V30 4413 H 420.301 0.722643 1.28126 0
M  V30 4414 H 422.259 -0.505504 4.14126 0
M  V30 4415 H 420.889 -0.94303 3.08718 0
M  V30 4416 H 419.941 1.43756 3.52191 0
M  V30 4417 H 421.253 1.68005 4.69655 0
M  V30 4418 H 420.407 -0.239368 6.06228 0
M  V30 4419 H 419.146 -0.576401 4.84282 0
M  V30 4420 H 418.151 1.69571 5.22997 0
M  V30 4421 H 419.376 2.02332 6.48258 0
M  V30 4422 H 417.322 -0.219486 6.55633 0
M  V30 4423 H 417.239 1.26065 7.45415 0
M  V30 4424 H 418.507 0.121095 7.79406 0
M  V30 4425 N 422.737 -1.36956 0.779787 0
M  V30 4426 C 423.985 -1.99097 0.347079 0
M  V30 4427 C 424.306 -1.62206 -1.08232 0
M  V30 4428 O 423.576 -0.891373 -1.74446 0
M  V30 4429 H 422.156 -0.736409 0.125342 0
M  V30 4430 H 424.818 -1.67308 0.999696 0
M  V30 4431 H 423.914 -3.09107 0.431162 0
M  V30 4432 N 424.215 -0.530993 -1.48385 0
M  V30 4433 C 425.626 -0.0907905 -1.86479 0
M  V30 4434 C 425.977 1.33213 -1.44044 0
M  V30 4435 O 425.102 1.99783 -0.831615 0
M  V30 4436 C 425.697 -0.157987 -3.38431 0
M  V30 4437 C 424.256 0.227026 -3.75715 0
M  V30 4438 C 423.403 -0.5173 -2.72432 0
M  V30 4439 H 426.354 -0.742186 -1.40276 0
M  V30 4440 H 426.375 0.630053 -3.75247 0
M  V30 4441 H 425.887 -1.19372 -3.69286 0
M  V30 4442 H 423.988 1.26486 -3.50474 0
M  V30 4443 H 424.101 -0.113288 -4.78966 0
M  V30 4444 H 422.465 0.0365527 -2.54674 0
M  V30 4445 H 423.248 -1.55368 -3.0613 0
M  V30 4446 N 425.693 1.55336 -0.266172 0
M  V30 4447 C 426.942 1.98574 0.353749 0
M  V30 4448 C 427.255 1.15789 1.57646 0
M  V30 4449 O 428.461 1.49129 2.26876 0
M  V30 4450 C 426.917 3.53403 0.680747 0
M  V30 4451 C 426.525 4.44953 -0.52165 0
M  V30 4452 C 428.269 4.05251 1.26379 0
M  V30 4453 C 426.176 5.91156 -0.169736 0
M  V30 4454 H 425.106 0.741643 0.135949 0
M  V30 4455 H 427.757 1.79743 -0.369421 0
M  V30 4456 H 426.139 3.68001 1.46257 0
M  V30 4457 H 427.313 4.42121 -1.29869 0
M  V30 4458 H 425.628 4.03691 -1.02093 0
M  V30 4459 H 428.225 5.12021 1.54074 0
M  V30 4460 H 428.568 3.53749 2.19471 0
M  V30 4461 H 429.101 3.94057 0.544447 0
M  V30 4462 H 425.84 6.46736 -1.0683 0
M  V30 4463 H 425.36 5.97079 0.570717 0
M  V30 4464 H 427.039 6.4655 0.241245 0
M  V30 4465 N 427.171 -0.0066808 1.57599 0
M  V30 4466 C 428.417 -0.693947 1.90558 0
M  V30 4467 C 428.75 -1.73792 0.866594 0
M  V30 4468 O 428.025 -1.94156 -0.115548 0
M  V30 4469 C 428.308 -1.34317 3.34112 0
M  V30 4470 C 428.161 -0.311189 4.48722 0
M  V30 4471 C 429.48 -2.27116 3.7697 0
M  V30 4472 H 426.599 -0.250803 0.693013 0
M  V30 4473 H 429.241 0.043242 1.89951 0
M  V30 4474 H 427.391 -1.9715 3.3476 0
M  V30 4475 H 429.063 0.316944 4.6021 0
M  V30 4476 H 427.306 0.367253 4.32243 0
M  V30 4477 H 427.977 -0.804366 5.46108 0
M  V30 4478 H 430.453 -1.74306 3.77831 0
M  V30 4479 H 429.329 -2.69511 4.78179 0
M  V30 4480 H 429.59 -3.14743 3.10466 0
M  V30 4481 N 428.649 -1.55105 -0.279332 0
M  V30 4482 C 429.579 -1.90557 -1.34945 0
M  V30 4483 C 430.56 -0.766738 -1.51839 0
M  V30 4484 O 431.745 -1.02434 -1.64988 0
M  V30 4485 C 428.875 -2.17193 -2.71006 0
M  V30 4486 C 427.829 -3.33021 -2.68851 0
M  V30 4487 C 427.155 -3.45123 -4.08405 0
M  V30 4488 C 428.455 -4.69578 -2.28678 0
M  V30 4489 H 430.149 -2.80188 -1.05522 0
M  V30 4490 H 427.695 -1.34811 -0.506173 0
M  V30 4491 H 429.648 -2.40581 -3.45975 0
M  V30 4492 H 428.372 -1.24355 -3.01999 0
M  V30 4493 H 427.031 -3.0959 -1.9634 0
M  V30 4494 H 426.679 -2.49762 -4.3661 0
M  V30 4495 H 426.379 -4.22995 -4.07859 0
M  V30 4496 H 427.903 -3.70796 -4.85121 0
M  V30 4497 H 429.317 -4.92553 -2.93368 0
M  V30 4498 H 427.714 -5.5032 -2.39306 0
M  V30 4499 H 428.784 -4.68828 -1.23807 0
M  V30 4500 N 430.127 0.543554 -1.4793 0
M  V30 4501 C 431.352 1.32995 -1.59145 0
M  V30 4502 C 431.777 1.86472 -0.246956 0
M  V30 4503 O 431.135 1.63696 0.779324 0
M  V30 4504 C 431.183 2.46623 -2.63077 0
M  V30 4505 O 430.287 3.49261 -2.19295 0
M  V30 4506 H 429.628 0.394472 -0.534124 0
M  V30 4507 H 432.158 0.655489 -1.93816 0
M  V30 4508 H 432.168 2.93001 -2.83926 0
M  V30 4509 H 430.843 2.07059 -3.60693 0
M  V30 4510 H 429.42 3.09094 -2.08603 0
M  V30 4511 N 431.605 1.3629 0.791371 0
M  V30 4512 C 432.851 1.30605 1.55146 0
M  V30 4513 C 433.184 -0.115042 1.93859 0
M  V30 4514 O 432.459 -1.06798 1.62556 0
M  V30 4515 C 432.742 2.22692 2.82985 0
M  V30 4516 C 432.595 3.73489 2.50651 0
M  V30 4517 C 433.914 2.13588 3.84796 0
M  V30 4518 H 431.033 0.475761 0.562868 0
M  V30 4519 H 433.675 1.66825 0.909358 0
M  V30 4520 H 431.825 1.91933 3.37778 0
M  V30 4521 H 433.497 4.14758 2.01924 0
M  V30 4522 H 431.74 3.93021 1.83622 0
M  V30 4523 H 432.411 4.3333 3.41949 0
M  V30 4524 H 434.887 2.40659 3.39445 0
M  V30 4525 H 433.763 2.80195 4.71998 0
M  V30 4526 H 434.024 1.12256 4.27611 0
M  V30 4527 N 433.083 -1.0153 1.20538 0
M  V30 4528 C 434.331 -1.74803 1.01432 0
M  V30 4529 C 434.652 -1.8963 -0.454456 0
M  V30 4530 O 433.922 -1.43975 -1.32846 0
M  V30 4531 H 432.502 -0.647598 0.372324 0
M  V30 4532 H 435.164 -1.22402 1.5167 0
M  V30 4533 H 434.26 -2.75114 1.47373 0
M  V30 4534 N 434.561 -1.01147 -1.20859 0
M  V30 4535 C 435.807 -0.698899 -1.90377 0
M  V30 4536 C 436.14 0.76904 -1.78324 0
M  V30 4537 O 435.415 1.55817 -1.16409 0
M  V30 4538 C 435.698 -1.12878 -3.41951 0
M  V30 4539 C 435.551 -2.65665 -3.62963 0
M  V30 4540 C 436.87 -0.696114 -4.3456 0
M  V30 4541 H 433.989 -0.255372 -0.691342 0
M  V30 4542 H 436.631 -1.25831 -1.42361 0
M  V30 4543 H 434.781 -0.652827 -3.82976 0
M  V30 4544 H 436.453 -3.21074 -3.31224 0
M  V30 4545 H 434.696 -3.06878 -3.06608 0
M  V30 4546 H 435.367 -2.90797 -4.69192 0
M  V30 4547 H 437.843 -1.10521 -4.01154 0
M  V30 4548 H 436.719 -1.025 -5.39245 0
M  V30 4549 H 436.98 0.402465 -4.40264 0
M  V30 4550 N 436.039 1.36541 -0.78704 0
M  V30 4551 C 436.987 2.31965 -0.171724 0
M  V30 4552 C 437.981 1.55689 0.667631 0
M  V30 4553 O 439.187 1.70969 0.562981 0
M  V30 4554 H 435.562 0.751101 -0.0367545 0
M  V30 4555 H 437.533 2.81428 -0.992017 0
M  V30 4556 C 436.282 3.40968 0.680904 0
M  V30 4557 H 435.605 3.99775 0.0443961 0
M  V30 4558 H 437.045 4.10063 1.07815 0
M  V30 4559 C 435.504 2.82338 1.83813 0
M  V30 4560 O 436.034 2.74311 2.93456 0
M  V30 4561 N 434.24 2.39661 1.6435 0
M  V30 4562 H 433.787 2.46389 0.751668 0
M  V30 4563 H 433.745 2.00779 2.4194 0
M  V30 4564 N 437.518 0.538854 1.48102 0
M  V30 4565 C 438.765 0.0080018 2.02498 0
M  V30 4566 C 439.093 -1.33437 1.41509 0
M  V30 4567 O 438.348 -1.87709 0.553507 0
M  V30 4568 C 438.647 -0.153808 3.57069 0
M  V30 4569 C 438.313 1.11533 4.36888 0
M  V30 4570 C 436.975 1.46314 4.58417 0
M  V30 4571 C 439.327 1.95718 4.83057 0
M  V30 4572 C 436.655 2.6516 5.23361 0
M  V30 4573 C 439.007 3.13751 5.49312 0
M  V30 4574 C 437.671 3.48866 5.69077 0
M  V30 4575 H 436.941 0.00292807 0.740994 0
M  V30 4576 H 439.588 0.706668 1.77984 0
M  V30 4577 H 437.893 -0.935309 3.80472 0
M  V30 4578 H 439.59 -0.579607 3.96789 0
M  V30 4579 H 436.18 0.834484 4.20398 0
M  V30 4580 H 440.364 1.70158 4.66219 0
M  V30 4581 H 435.62 2.92558 5.36861 0
M  V30 4582 H 439.794 3.79282 5.84053 0
M  V30 4583 H 437.421 4.41054 6.19173 0
M  V30 4584 N 438.996 -1.55193 0.274407 0
M  V30 4585 C 440.244 -1.99187 -0.341902 0
M  V30 4586 C 440.565 -1.16422 -1.56431 0
M  V30 4587 O 439.835 -0.253573 -1.94252 0
M  V30 4588 H 438.415 -0.735721 -0.129317 0
M  V30 4589 H 441.077 -1.91168 0.379578 0
M  V30 4590 H 440.173 -3.05629 -0.632253 0
M  V30 4591 N 440.474 -0.00167713 -1.576 0
M  V30 4592 C 441.404 0.988091 -2.11563 0
M  V30 4593 C 442.385 1.35736 -1.02517 0
M  V30 4594 O 443.57 1.44082 -1.30208 0
M  V30 4595 C 440.7 2.27941 -2.62031 0
M  V30 4596 C 439.654 2.0517 -3.75619 0
M  V30 4597 C 438.98 3.4033 -4.12407 0
M  V30 4598 C 440.28 1.41294 -5.02825 0
M  V30 4599 H 441.974 0.538771 -2.94513 0
M  V30 4600 H 439.52 0.257712 -1.41675 0
M  V30 4601 H 441.473 2.97539 -2.9841 0
M  V30 4602 H 440.197 2.74989 -1.76205 0
M  V30 4603 H 438.856 1.37998 -3.39635 0
M  V30 4604 H 438.504 3.85085 -3.23603 0
M  V30 4605 H 438.204 3.25909 -4.88935 0
M  V30 4606 H 439.728 4.1124 -4.51347 0
M  V30 4607 H 441.142 2.00851 -5.36965 0
M  V30 4608 H 439.539 1.37356 -5.84169 0
M  V30 4609 H 440.609 0.382362 -4.8339 0
M  V30 4610 N 441.952 1.55251 0.271103 0
M  V30 4611 C 443.199 1.75946 1.00245 0
M  V30 4612 C 443.527 0.561611 1.86215 0
M  V30 4613 O 442.782 -0.455832 1.90317 0
M  V30 4614 C 443.081 3.01879 1.91321 0
M  V30 4615 C 442.747 4.34337 1.21086 0
M  V30 4616 C 441.409 4.70338 1.01666 0
M  V30 4617 C 443.761 5.16325 0.71119 0
M  V30 4618 C 441.089 5.8588 0.310099 0
M  V30 4619 C 443.441 6.32597 0.0182157 0
M  V30 4620 C 442.105 6.67236 -0.18768 0
M  V30 4621 H 441.375 0.643833 0.366824 0
M  V30 4622 H 444.022 1.89521 0.27458 0
M  V30 4623 H 442.327 2.83212 2.70736 0
M  V30 4624 H 444.024 3.15088 2.48033 0
M  V30 4625 H 440.614 4.06043 1.37213 0
M  V30 4626 H 444.798 4.88987 0.848844 0
M  V30 4627 H 440.054 6.1124 0.139873 0
M  V30 4628 H 444.228 6.9538 -0.376711 0
M  V30 4629 H 441.855 7.56618 -0.73715 0
M  V30 4630 N 443.43 -0.535701 1.48216 0
M  V30 4631 C 444.36 -1.65014 1.65204 0
M  V30 4632 C 445.341 -1.62554 0.501011 0
M  V30 4633 O 446.526 -1.7984 0.732886 0
M  V30 4634 C 443.656 -3.03616 1.68626 0
M  V30 4635 C 442.61 -3.20932 2.83172 0
M  V30 4636 C 441.936 -4.60537 2.71679 0
M  V30 4637 C 443.236 -3.04249 4.24535 0
M  V30 4638 H 444.93 -1.51053 2.58502 0
M  V30 4639 H 442.476 -0.725262 1.24402 0
M  V30 4640 H 444.429 -3.81446 1.79099 0
M  V30 4641 H 443.153 -3.18587 0.719026 0
M  V30 4642 H 441.812 -2.45517 2.72244 0
M  V30 4643 H 441.46 -4.72336 1.72937 0
M  V30 4644 H 441.16 -4.73069 3.48538 0
M  V30 4645 H 442.684 -5.40475 2.84112 0
M  V30 4646 H 444.098 -3.71877 4.36326 0
M  V30 4647 H 442.495 -3.28278 5.02348 0
M  V30 4648 H 443.565 -2.00739 4.41397 0
M  V30 4649 N 444.908 -1.36708 -0.784132 0
M  V30 4650 C 445.856 -1.31533 -1.91838 0
M  V30 4651 C 446.85 -0.206205 -1.6814 0
M  V30 4652 O 448.056 -0.373519 -1.76082 0
M  V30 4653 H 444.431 -0.409613 -0.630651 0
M  V30 4654 H 446.402 -2.2731 -1.9332 0
M  V30 4655 C 445.151 -1.12679 -3.28936 0
M  V30 4656 H 444.474 -1.97274 -3.4774 0
M  V30 4657 H 445.914 -1.13106 -4.08636 0
M  V30 4658 C 444.373 0.168281 -3.36479 0
M  V30 4659 O 444.903 1.15625 -3.84699 0
M  V30 4660 N 443.109 0.214762 -2.89805 0
M  V30 4661 H 442.656 -0.589852 -2.50756 0
M  V30 4662 H 442.614 1.08094 -2.95234 0
M  V30 4663 N 446.386 1.0089 -1.21074 0
M  V30 4664 C 447.635 1.74019 -1.01981 0
M  V30 4665 C 447.948 1.90408 0.447665 0
M  V30 4666 O 449.154 2.60707 0.757906 0
M  V30 4667 C 447.61 3.13026 -1.77603 0
M  V30 4668 C 447.218 3.04623 -3.28495 0
M  V30 4669 C 448.962 3.90312 -1.66904 0
M  V30 4670 C 446.869 4.38685 -3.96623 0
M  V30 4671 H 445.799 0.652422 -0.377971 0
M  V30 4672 H 448.45 1.12755 -1.44771 0
M  V30 4673 H 446.832 3.74878 -1.27604 0
M  V30 4674 H 448.006 2.52032 -3.85767 0
M  V30 4675 H 446.321 2.40827 -3.39693 0
M  V30 4676 H 448.918 4.8951 -2.15138 0
M  V30 4677 H 449.261 4.11558 -0.62658 0
M  V30 4678 H 449.794 3.35104 -2.14359 0
M  V30 4679 H 446.533 4.22641 -5.01054 0
M  V30 4680 H 446.053 4.91252 -3.4414 0
M  V30 4681 H 447.732 5.075 -4.01314 0
M  V30 4682 N 447.864 1.01787 1.20321 0
M  V30 4683 C 449.113 0.703249 1.89043 0
M  V30 4684 C 449.426 -0.770445 1.79787 0
M  V30 4685 O 450.632 -1.19767 2.43656 0
M  V30 4686 C 449.088 1.20749 3.3904 0
M  V30 4687 C 448.696 2.70817 3.56878 0
M  V30 4688 C 450.44 0.968352 4.13308 0
M  V30 4689 C 448.347 3.14716 5.00708 0
M  V30 4690 H 447.277 0.259354 0.707991 0
M  V30 4691 H 449.928 1.23072 1.36108 0
M  V30 4692 H 448.31 0.607989 3.91305 0
M  V30 4693 H 449.484 3.36327 3.14993 0
M  V30 4694 H 447.799 2.92888 2.95983 0
M  V30 4695 H 450.396 1.27173 5.19356 0
M  V30 4696 H 450.739 -0.095149 4.16191 0
M  V30 4697 H 451.272 1.53129 3.67146 0
M  V30 4698 H 448.011 4.20347 5.02979 0
M  V30 4699 H 447.531 2.53927 5.43398 0
M  V30 4700 H 449.21 3.07426 5.69296 0
M  V30 4701 N 449.342 -1.36122 0.79427 0
M  V30 4702 C 450.758 -1.5232 0.476525 0
M  V30 4703 C 450.958 -1.74685 -1.00436 0
M  V30 4704 O 450.014 -1.78115 -1.78973 0
M  V30 4705 C 451.327 -2.70607 1.31119 0
M  V30 4706 C 452.875 -2.8448 1.30537 0
M  V30 4707 C 453.35 -4.05778 2.12387 0
M  V30 4708 N 454.841 -4.12933 2.09859 0
M  V30 4709 C 455.576 -5.05876 2.69957 0
M  V30 4710 N 455.072 -6.04232 3.38934 0
M  V30 4711 N 456.865 -4.98528 2.59665 0
M  V30 4712 H 449.016 -1.1986 1.75349 0
M  V30 4713 H 451.279 -0.585418 0.745647 0
M  V30 4714 H 450.985 -2.60619 2.36158 0
M  V30 4715 H 450.859 -3.64888 0.955843 0
M  V30 4716 H 453.246 -2.93927 0.262876 0
M  V30 4717 H 453.327 -1.91093 1.70051 0
M  V30 4718 H 452.971 -3.97092 3.1667 0
M  V30 4719 H 452.901 -4.98323 1.70242 0
M  V30 4720 H 455.392 -3.42515 1.59662 0
M  V30 4721 H 455.705 -6.71724 3.82109 0
M  V30 4722 H 454.05 -6.04443 3.43036 0
M  V30 4723 H 457.241 -4.20641 2.05375 0
M  V30 4724 H 457.414 -5.70773 3.06793 0
M  V30 4725 N 450.82 -0.546701 -1.47814 0
M  V30 4726 C 452.069 -0.0166497 -2.01693 0
M  V30 4727 C 452.382 1.33721 -1.42752 0
M  V30 4728 O 453.588 1.95658 -1.8823 0
M  V30 4729 C 452.044 0.0206769 -3.59894 0
M  V30 4730 C 451.652 -1.3293 -4.27824 0
M  V30 4731 C 453.396 0.498674 -4.21561 0
M  V30 4732 C 451.303 -1.25165 -5.78003 0
M  V30 4733 H 450.233 -0.0024541 -0.753996 0
M  V30 4734 H 452.884 -0.692984 -1.69912 0
M  V30 4735 H 451.266 0.76244 -3.88591 0
M  V30 4736 H 452.44 -2.08795 -4.10781 0
M  V30 4737 H 450.755 -1.74438 -3.78101 0
M  V30 4738 H 453.352 0.575 -5.31599 0
M  V30 4739 H 453.695 1.5083 -3.88016 0
M  V30 4740 H 454.228 -0.18791 -3.97356 0
M  V30 4741 H 450.967 -2.23695 -6.1615 0
M  V30 4742 H 450.487 -0.53464 -5.97412 0
M  V30 4743 H 452.166 -0.949299 -6.39998 0
M  V30 4744 N 452.299 1.55045 -0.282633 0
M  V30 4745 C 453.229 2.2579 0.595066 0
M  V30 4746 C 454.21 1.25074 1.15284 0
M  V30 4747 O 455.395 1.5381 1.18559 0
M  V30 4748 C 452.525 2.98472 1.77572 0
M  V30 4749 C 451.479 4.0618 1.34914 0
M  V30 4750 C 450.805 4.66477 2.6135 0
M  V30 4751 C 452.105 5.1996 0.493821 0
M  V30 4752 H 453.799 2.994 0.00505653 0
M  V30 4753 H 451.345 1.44 0.000992001 0
M  V30 4754 H 453.298 3.46677 2.39568 0
M  V30 4755 H 452.022 2.2241 2.39168 0
M  V30 4756 H 450.681 3.58797 0.752338 0
M  V30 4757 H 450.329 3.87074 3.2122 0
M  V30 4758 H 450.029 5.39207 2.33516 0
M  V30 4759 H 451.553 5.17435 3.24181 0
M  V30 4760 H 452.967 5.64172 1.01898 0
M  V30 4761 H 451.364 5.99299 0.310047 0
M  V30 4762 H 452.434 4.82462 -0.485593 0
M  V30 4763 N 453.777 0.010035 1.57597 0
M  V30 4764 C 455.023 -0.673697 1.91283 0
M  V30 4765 C 455.356 -1.72863 0.884979 0
M  V30 4766 O 454.631 -1.94268 -0.0949487 0
M  V30 4767 C 454.914 -1.30766 3.35518 0
M  V30 4768 C 454.767 -0.263578 4.49027 0
M  V30 4769 C 456.086 -2.23105 3.79358 0
M  V30 4770 H 453.205 -0.243439 0.695634 0
M  V30 4771 H 455.847 0.0633864 1.89894 0
M  V30 4772 H 453.997 -1.93588 3.36832 0
M  V30 4773 H 455.669 0.365738 4.59848 0
M  V30 4774 H 453.912 0.413077 4.31829 0
M  V30 4775 H 454.583 -0.746398 5.4693 0
M  V30 4776 H 457.059 -1.70289 3.79659 0
M  V30 4777 H 455.935 -2.64424 4.81011 0
M  V30 4778 H 456.196 -3.11433 3.13787 0
M  V30 4779 N 455.255 -1.55392 -0.262866 0
M  V30 4780 C 456.671 -1.47459 -0.610582 0
M  V30 4781 C 456.871 -0.697031 -1.8906 0
M  V30 4782 O 455.927 -0.219952 -2.5154 0
M  V30 4783 C 457.24 -2.91751 -0.728131 0
M  V30 4784 C 458.788 -3.02027 -0.821517 0
M  V30 4785 C 459.263 -4.47594 -0.97076 0
M  V30 4786 N 460.754 -4.51465 -1.03603 0
M  V30 4787 C 461.489 -5.61326 -1.17049 0
M  V30 4788 N 460.985 -6.81032 -1.2715 0
M  V30 4789 N 462.778 -5.49089 -1.20239 0
M  V30 4790 H 454.929 -2.04395 0.577632 0
M  V30 4791 H 457.192 -0.927287 0.197086 0
M  V30 4792 H 456.898 -3.51413 0.142132 0
M  V30 4793 H 456.772 -3.4134 -1.6052 0
M  V30 4794 H 459.159 -2.42456 -1.68224 0
M  V30 4795 H 459.24 -2.55674 0.0803688 0
M  V30 4796 H 458.884 -5.07771 -0.114655 0
M  V30 4797 H 458.814 -4.91613 -1.88745 0
M  V30 4798 H 461.305 -3.6524 -0.96996 0
M  V30 4799 H 461.618 -7.60511 -1.37271 0
M  V30 4800 H 459.963 -6.83824 -1.24136 0
M  V30 4801 H 463.154 -4.54507 -1.11985 0
M  V30 4802 H 463.327 -6.34749 -1.30373 0
M  V30 4803 N 456.733 0.527833 -1.48498 0
M  V30 4804 C 457.68 1.6322 -1.6318 0
M  V30 4805 C 458.65 1.59199 -0.473815 0
M  V30 4806 O 459.835 1.77591 -0.697563 0
M  V30 4807 C 456.975 3.01474 -1.67951 0
M  V30 4808 C 456.088 3.15713 -2.94871 0
M  V30 4809 C 455.223 4.44539 -2.90789 0
M  V30 4810 C 454.262 4.52315 -4.12404 0
M  V30 4811 N 453.399 5.72533 -4.06387 0
M  V30 4812 H 458.239 1.50011 -2.57489 0
M  V30 4813 H 455.776 0.730298 -1.27691 0
M  V30 4814 H 457.734 3.81572 -1.68698 0
M  V30 4815 H 456.364 3.1345 -0.771306 0
M  V30 4816 H 455.416 2.28854 -3.03859 0
M  V30 4817 H 456.728 3.1732 -3.8485 0
M  V30 4818 H 455.882 5.3293 -2.89949 0
M  V30 4819 H 454.621 4.45457 -1.98542 0
M  V30 4820 H 453.626 3.62331 -4.13517 0
M  V30 4821 H 454.851 4.53134 -5.05812 0
M  V30 4822 H 452.797 5.74344 -3.16962 0
M  V30 4823 H 452.714 5.75643 -4.90073 0
M  V30 4824 H 453.982 6.63204 -4.0961 0
M  V30 4825 N 458.211 1.37122 0.776871 0
M  V30 4826 C 459.141 1.35164 1.90402 0
M  V30 4827 C 460.122 0.221069 1.68657 0
M  V30 4828 O 461.307 0.420642 1.8959 0
M  V30 4829 C 458.437 1.15274 3.27611 0
M  V30 4830 C 457.391 2.25289 3.63908 0
M  V30 4831 C 456.717 1.90527 4.99603 0
M  V30 4832 C 458.017 3.67446 3.71188 0
M  V30 4833 H 459.711 2.29482 1.92297 0
M  V30 4834 H 457.257 1.10465 0.923773 0
M  V30 4835 H 459.21 1.12536 4.06096 0
M  V30 4836 H 457.934 0.174102 3.26136 0
M  V30 4837 H 456.593 2.27174 2.87728 0
M  V30 4838 H 456.241 0.91206 4.94662 0
M  V30 4839 H 455.941 2.64193 5.24858 0
M  V30 4840 H 457.465 1.89367 5.80493 0
M  V30 4841 H 458.879 3.67719 4.39836 0
M  V30 4842 H 457.276 4.40123 4.07936 0
M  V30 4843 H 458.346 4.01443 2.71977 0
M  V30 4844 N 459.689 -1.00246 1.21608 0
M  V30 4845 C 460.599 -2.12515 0.993709 0
M  V30 4846 C 461.615 -1.73913 -0.0549939 0
M  V30 4847 O 462.791 -2.00943 0.135619 0
M  V30 4848 C 459.856 -3.42083 0.563953 0
M  V30 4849 C 458.917 -3.94843 1.68516 0
M  V30 4850 C 458.15 -5.18226 1.27582 0
M  V30 4851 O 458.373 -5.70201 0.150506 0
M  V30 4852 O 457.307 -5.64497 2.0887 0
M  V30 4853 H 461.133 -2.34152 1.93407 0
M  V30 4854 H 458.718 -1.10891 1.00118 0
M  V30 4855 H 460.6 -4.20073 0.334194 0
M  V30 4856 H 459.275 -3.21828 -0.347665 0
M  V30 4857 H 458.182 -3.18068 1.96935 0
M  V30 4858 H 459.515 -4.19512 2.5743 0
M  V30 4859 N 461.167 -1.02423 -1.1978 0
M  V30 4860 C 462.578 -0.748389 -1.71044 0
M  V30 4861 C 462.929 0.732398 -1.82017 0
M  V30 4862 O 462.054 1.57116 -1.48807 0
M  V30 4863 C 462.649 -1.35187 -3.1066 0
M  V30 4864 C 461.208 -1.12472 -3.59203 0
M  V30 4865 C 460.355 -1.45283 -2.36195 0
M  V30 4866 H 463.306 -1.19275 -1.04686 0
M  V30 4867 H 463.327 -0.746408 -3.73107 0
M  V30 4868 H 462.839 -2.4296 -3.02642 0
M  V30 4869 H 460.94 -0.0649983 -3.72543 0
M  V30 4870 H 461.053 -1.81016 -4.43588 0
M  V30 4871 H 459.417 -0.872034 -2.39307 0
M  V30 4872 H 460.2 -2.54129 -2.30811 0
M  V30 4873 N 462.645 1.35699 -0.801477 0
M  V30 4874 C 463.608 2.28199 -0.213994 0
M  V30 4875 C 464.608 1.49359 0.595691 0
M  V30 4876 O 465.798 1.69186 0.414921 0
M  V30 4877 C 462.93 3.33587 0.702297 0
M  V30 4878 H 464.123 2.81666 -1.02976 0
M  V30 4879 H 461.676 1.45467 -0.571759 0
M  V30 4880 H 462.411 2.85297 1.54195 0
M  V30 4881 H 462.196 3.91906 0.123484 0
M  V30 4882 H 463.686 4.02638 1.10783 0
M  V30 4883 N 464.123 0.554532 1.47522 0
M  V30 4884 C 465.055 -0.232106 2.28022 0
M  V30 4885 C 466.068 -0.881865 1.36847 0
M  V30 4886 O 467.257 -0.756168 1.61692 0
M  V30 4887 C 464.357 -1.34604 3.11022 0
M  V30 4888 C 463.53 -0.793582 4.30141 0
M  V30 4889 C 462.589 -1.79168 4.94758 0
M  V30 4890 O 461.615 -1.33886 5.5323 0
M  V30 4891 N 462.817 -3.12495 4.89211 0
M  V30 4892 H 465.582 0.458407 2.96173 0
M  V30 4893 H 463.143 0.390433 1.57122 0
M  V30 4894 H 465.135 -2.01243 3.51118 0
M  V30 4895 H 463.705 -1.93983 2.45131 0
M  V30 4896 H 462.925 0.0495025 3.94169 0
M  V30 4897 H 464.213 -0.403776 5.07195 0
M  V30 4898 H 463.611 -3.51931 4.42901 0
M  V30 4899 H 462.168 -3.74698 5.33333 0
M  V30 4900 N 465.601 -1.54893 0.290851 0
M  V30 4901 C 466.849 -1.99538 -0.320756 0
M  V30 4902 C 467.17 -1.18075 -1.55188 0
M  V30 4903 O 466.44 -0.274162 -1.93972 0
M  V30 4904 H 465.02 -0.737052 -0.121507 0
M  V30 4905 H 467.682 -1.90755 0.399832 0
M  V30 4906 H 466.778 -3.06282 -0.599802 0
M  V30 4907 N 467.08 -0.0183926 -1.57589 0
M  V30 4908 C 468.305 0.676634 -1.96052 0
M  V30 4909 C 468.73 1.6548 -0.894307 0
M  V30 4910 O 468.088 1.80712 0.145849 0
M  V30 4911 C 468.136 1.36872 -3.33614 0
M  V30 4912 O 467.24 2.48372 -3.29219 0
M  V30 4913 H 466.581 0.1786 -0.63953 0
M  V30 4914 H 469.111 -0.077056 -2.04455 0
M  V30 4915 H 469.121 1.72797 -3.69601 0
M  V30 4916 H 467.796 0.651636 -4.10763 0
M  V30 4917 H 466.373 2.14639 -3.04934 0
M  V30 4918 N 468.558 1.5553 0.254621 0
M  V30 4919 C 469.488 1.9268 1.31897 0
M  V30 4920 C 470.469 0.790797 1.506 0
M  V30 4921 O 471.654 1.05045 1.63337 0
M  V30 4922 C 468.784 2.21477 2.67517 0
M  V30 4923 C 467.738 3.37256 2.63519 0
M  V30 4924 C 467.064 3.51576 4.02862 0
M  V30 4925 C 468.364 4.73157 2.21179 0
M  V30 4926 H 470.058 2.81832 1.01051 0
M  V30 4927 H 467.604 1.35599 0.484662 0
M  V30 4928 H 469.557 2.46055 3.42104 0
M  V30 4929 H 468.281 1.29144 2.99982 0
M  V30 4930 H 466.94 3.12675 1.9139 0
M  V30 4931 H 466.588 2.56676 4.32581 0
M  V30 4932 H 466.288 4.2943 4.01078 0
M  V30 4933 H 467.812 3.78467 4.79161 0
M  V30 4934 H 469.226 4.97158 2.85494 0
M  V30 4935 H 467.623 5.54058 2.30521 0
M  V30 4936 H 468.693 4.70739 1.16332 0
M  V30 4937 N 470.036 -0.519951 1.48776 0
M  V30 4938 C 470.986 -1.61995 1.60442 0
M  V30 4939 C 471.97 -1.54155 0.460991 0
M  V30 4940 O 473.162 -1.62006 0.712965 0
M  V30 4941 C 470.291 -3.00683 1.65664 0
M  V30 4942 C 469.377 -3.1359 2.8552 0
M  V30 4943 N 469.768 -2.96441 4.09825 0
M  V30 4944 C 468.066 -3.44662 2.83062 0
M  V30 4945 C 468.767 -3.1303 4.90293 0
M  V30 4946 N 467.743 -3.41058 4.23297 0
M  V30 4947 H 471.545 -1.47362 2.54287 0
M  V30 4948 H 469.059 -0.725649 1.45286 0
M  V30 4949 H 471.056 -3.79712 1.72117 0
M  V30 4950 H 469.716 -3.16401 0.729425 0
M  V30 4951 H 470.727 -2.72999 4.40104 0
M  V30 4952 H 467.404 -3.66675 1.9964 0
M  V30 4953 H 468.794 -3.04424 5.98979 0
M  V30 4954 N 471.514 -1.37532 -0.769588 0
M  V30 4955 C 472.742 -1.36059 -1.55871 0
M  V30 4956 C 473.157 0.053544 -1.88724 0
M  V30 4957 O 472.514 1.01591 -1.5161 0
M  V30 4958 C 472.565 -2.20107 -2.86767 0
M  V30 4959 O 472.286 -3.56009 -2.55321 0
M  V30 4960 C 473.787 -2.26636 -3.80987 0
M  V30 4961 H 471.007 -0.465967 -0.482821 0
M  V30 4962 H 473.551 -1.80901 -0.953686 0
M  V30 4963 H 471.706 -1.78768 -3.43687 0
M  V30 4964 H 472.12 -4.0009 -3.39158 0
M  V30 4965 H 473.594 -2.89763 -4.69831 0
M  V30 4966 H 474.071 -1.2754 -4.20274 0
M  V30 4967 H 474.677 -2.68296 -3.29996 0
M  V30 4968 N 472.992 0.995999 -1.22138 0
M  V30 4969 C 473.924 2.08745 -0.946485 0
M  V30 4970 C 474.937 1.62633 0.0737356 0
M  V30 4971 O 476.126 1.77782 -0.159886 0
M  V30 4972 C 473.226 3.36516 -0.401305 0
M  V30 4973 C 472.399 4.11672 -1.47801 0
M  V30 4974 C 471.458 5.17728 -0.940461 0
M  V30 4975 O 470.484 5.45482 -1.62596 0
M  V30 4976 N 471.686 5.80005 0.239723 0
M  V30 4977 H 474.451 2.32908 -1.88611 0
M  V30 4978 H 472.012 1.16152 -1.12785 0
M  V30 4979 H 474.004 4.04691 -0.0270837 0
M  V30 4980 H 472.574 3.0944 0.443354 0
M  V30 4981 H 471.794 3.38171 -2.02568 0
M  V30 4982 H 473.082 4.58657 -2.20253 0
M  V30 4983 H 472.48 5.5982 0.813518 0
M  V30 4984 H 471.037 6.4943 0.555361 0
M  V30 4985 N 474.47 1.03057 1.19235 0
M  V30 4986 C 475.695 0.74757 1.93458 0
M  V30 4987 C 476.12 -0.687648 1.7508 0
M  V30 4988 O 475.478 -1.47499 1.05422 0
M  V30 4989 C 475.526 1.10604 3.43219 0
M  V30 4990 O 474.63 0.225671 4.11782 0
M  V30 4991 H 473.971 0.276047 0.603899 0
M  V30 4992 H 476.501 1.3777 1.51263 0
M  V30 4993 H 476.511 1.06366 3.93891 0
M  V30 4994 H 475.186 2.15165 3.55917 0
M  V30 4995 H 473.763 0.326795 3.71465 0
M  V30 4996 N 475.948 -1.35272 0.808662 0
M  V30 4997 C 476.88 -2.28507 0.178149 0
M  V30 4998 C 477.893 -1.50377 -0.623754 0
M  V30 4999 O 479.082 -1.72583 -0.455774 0
M  V30 5000 C 476.182 -3.30038 -0.769959 0
M  V30 5001 C 475.355 -4.37398 -0.0139749 0
M  V30 5002 C 474.414 -5.18775 -0.880875 0
M  V30 5003 O 473.44 -5.68236 -0.331059 0
M  V30 5004 N 474.642 -5.37087 -2.20267 0
M  V30 5005 H 477.407 -2.83255 0.979106 0
M  V30 5006 H 474.968 -1.47643 0.664308 0
M  V30 5007 H 476.96 -3.81371 -1.35418 0
M  V30 5008 H 475.53 -2.75789 -1.47171 0
M  V30 5009 H 474.75 -3.86971 0.751468 0
M  V30 5010 H 476.038 -5.06268 0.506965 0
M  V30 5011 H 475.436 -4.9855 -2.67328 0
M  V30 5012 H 473.993 -5.91593 -2.73608 0
M  V30 5013 N 477.426 -0.562348 -1.47226 0
M  V30 5014 C 478.656 -0.0451619 -2.06551 0
M  V30 5015 C 479.064 1.25626 -1.41473 0
M  V30 5016 O 478.407 1.76563 -0.507061 0
M  V30 5017 C 478.469 0.216068 -3.5885 0
M  V30 5018 C 478.133 -0.996691 -4.45999 0
M  V30 5019 C 479.13 -1.90358 -4.83797 0
M  V30 5020 C 476.815 -1.21281 -4.87438 0
M  V30 5021 C 478.809 -3.01023 -5.6184 0
M  V30 5022 C 476.496 -2.32255 -5.65244 0
M  V30 5023 C 477.494 -3.21956 -6.02356 0
M  V30 5024 O 477.182 -4.31005 -6.78594 0
M  V30 5025 H 476.914 -0.0451646 -0.67449 0
M  V30 5026 H 479.468 -0.776842 -1.90143 0
M  V30 5027 H 477.698 1.00212 -3.7349 0
M  V30 5028 H 479.387 0.679264 -4.00176 0
M  V30 5029 H 480.153 -1.74868 -4.52378 0
M  V30 5030 H 476.032 -0.523767 -4.58015 0
M  V30 5031 H 479.576 -3.71064 -5.90726 0
M  V30 5032 H 475.473 -2.47715 -5.96077 0
M  V30 5033 H 476.241 -4.29118 -6.96994 0
M  V30 5034 N 478.904 1.54736 -0.299062 0
M  V30 5035 C 480.15 2.01114 0.304123 0
M  V30 5036 C 480.505 1.18376 1.51674 0
M  V30 5037 O 479.798 0.251635 1.8994 0
M  V30 5038 C 479.992 3.50199 0.713835 0
M  V30 5039 C 479.821 4.47366 -0.457531 0
M  V30 5040 C 478.591 4.9631 -0.948933 0
M  V30 5041 C 480.789 4.9755 -1.30186 0
M  V30 5042 N 478.771 5.77327 -2.08726 0
M  V30 5043 C 480.142 5.7625 -2.28771 0
M  V30 5044 C 482.197 4.79739 -1.33246 0
M  V30 5045 C 480.9 6.39036 -3.3019 0
M  V30 5046 C 482.926 5.43343 -2.33521 0
M  V30 5047 C 482.288 6.21874 -3.30836 0
M  V30 5048 H 478.387 0.778318 0.0757992 0
M  V30 5049 H 480.971 1.89925 -0.428536 0
M  V30 5050 H 479.142 3.61681 1.41567 0
M  V30 5051 H 480.874 3.83374 1.29639 0
M  V30 5052 H 477.629 4.7069 -0.52423 0
M  V30 5053 H 478.053 6.22521 -2.66077 0
M  V30 5054 H 482.695 4.18609 -0.59383 0
M  V30 5055 H 480.413 6.99302 -4.04973 0
M  V30 5056 H 483.999 5.31492 -2.3666 0
M  V30 5057 H 482.879 6.70217 -4.07159 0
M  V30 5058 N 480.382 0.0267497 1.57577 0
M  V30 5059 C 481.798 -0.32962 1.56159 0
M  V30 5060 C 481.998 -1.73059 1.03213 0
M  V30 5061 O 481.054 -2.43233 0.677804 0
M  V30 5062 C 482.367 -0.18039 3.00158 0
M  V30 5063 C 483.915 -0.253334 3.11973 0
M  V30 5064 C 484.39 -0.132921 4.57807 0
M  V30 5065 N 485.881 -0.189979 4.6281 0
M  V30 5066 C 486.616 -0.120554 5.73273 0
M  V30 5067 N 486.112 -0.000180315 6.928 0
M  V30 5068 N 487.905 -0.174369 5.61829 0
M  V30 5069 H 480.056 0.942896 1.90324 0
M  V30 5070 H 482.319 0.3639 0.875375 0
M  V30 5071 H 482.025 0.784576 3.42837 0
M  V30 5072 H 481.899 -0.951565 3.65 0
M  V30 5073 H 484.286 -1.20876 2.69208 0
M  V30 5074 H 484.367 0.548177 2.49857 0
M  V30 5075 H 484.011 0.819073 5.01252 0
M  V30 5076 H 483.941 -0.953264 5.179 0
M  V30 5077 H 486.432 -0.283257 3.76837 0
M  V30 5078 H 486.745 0.0461666 7.72786 0
M  V30 5079 H 485.09 0.034569 6.94991 0
M  V30 5080 H 488.281 -0.266794 4.67339 0
M  V30 5081 H 488.454 -0.116802 6.47895 0
M  V30 5082 N 481.861 -1.55662 -0.24637 0
M  V30 5083 C 482.791 -1.93377 -1.30873 0
M  V30 5084 C 483.772 -0.798773 -1.50179 0
M  V30 5085 O 484.957 -1.0591 -1.62778 0
M  V30 5086 C 482.087 -2.22893 -2.66338 0
M  V30 5087 C 481.041 -3.38649 -2.61727 0
M  V30 5088 C 480.367 -3.53708 -4.00992 0
M  V30 5089 C 481.667 -4.74323 -2.18666 0
M  V30 5090 H 483.361 -2.82363 -0.995552 0
M  V30 5091 H 480.907 -1.35854 -0.477464 0
M  V30 5092 H 482.86 -2.47866 -3.40794 0
M  V30 5093 H 481.584 -1.30733 -2.99293 0
M  V30 5094 H 480.243 -3.13685 -1.89729 0
M  V30 5095 H 479.891 -2.58967 -4.31214 0
M  V30 5096 H 479.591 -4.31551 -3.98795 0
M  V30 5097 H 481.115 -3.81003 -4.77147 0
M  V30 5098 H 482.529 -4.98665 -2.82854 0
M  V30 5099 H 480.926 -5.55273 -2.27579 0
M  V30 5100 H 481.996 -4.71349 -1.13834 0
M  V30 5101 N 483.339 0.512053 -1.4905 0
M  V30 5102 C 484.564 1.2959 -1.6193 0
M  V30 5103 C 484.989 1.85906 -0.286454 0
M  V30 5104 O 484.347 1.65312 0.744426 0
M  V30 5105 C 484.395 2.40987 -2.68249 0
M  V30 5106 O 483.499 3.44531 -2.26654 0
M  V30 5107 H 482.84 0.383053 -0.542371 0
M  V30 5108 H 485.37 0.614231 -1.95162 0
M  V30 5109 H 485.38 2.86913 -2.90078 0
M  V30 5110 H 484.055 1.99361 -3.65004 0
M  V30 5111 H 482.632 3.046 -2.15112 0
M  V30 5112 N 484.817 1.37938 0.762283 0
M  V30 5113 C 485.764 1.34467 1.87583 0
M  V30 5114 C 486.734 0.208633 1.64785 0
M  V30 5115 O 487.919 0.399494 1.86571 0
M  V30 5116 C 485.059 1.16692 3.24772 0
M  V30 5117 C 484.172 2.39608 3.59461 0
M  V30 5118 C 483.307 2.14631 4.85908 0
M  V30 5119 C 482.346 3.33364 5.13357 0
M  V30 5120 N 481.483 3.07877 6.30996 0
M  V30 5121 H 486.323 2.29669 1.89885 0
M  V30 5122 H 483.86 1.14116 0.928219 0
M  V30 5123 H 485.818 1.04405 4.03925 0
M  V30 5124 H 484.448 0.251333 3.2182 0
M  V30 5125 H 483.5 2.626 2.75219 0
M  V30 5126 H 484.812 3.28128 3.75678 0
M  V30 5127 H 483.966 1.99429 5.72986 0
M  V30 5128 H 482.705 1.23463 4.71814 0
M  V30 5129 H 481.71 3.49094 4.24751 0
M  V30 5130 H 482.935 4.25395 5.29354 0
M  V30 5131 H 480.881 2.19348 6.18241 0
M  V30 5132 H 480.798 3.89944 6.47673 0
M  V30 5133 H 482.066 2.96313 7.20985 0
M  V30 5134 N 486.295 -0.989507 1.22664 0
M  V30 5135 C 487.52 -1.77031 1.08051 0
M  V30 5136 C 487.945 -1.84535 -0.364483 0
M  V30 5137 O 487.303 -1.3003 -1.2634 0
M  V30 5138 C 487.351 -3.18 1.70024 0
M  V30 5139 O 486.455 -4.01161 0.956216 0
M  V30 5140 H 485.796 -0.545008 0.379292 0
M  V30 5141 H 488.326 -1.24277 1.62531 0
M  V30 5142 H 488.336 -3.68616 1.74888 0
M  V30 5143 H 487.011 -3.11853 2.75174 0
M  V30 5144 H 485.588 -3.59687 0.98384 0
M  V30 5145 N 487.773 -1.03688 -1.18687 0
M  V30 5146 C 489.001 -0.757918 -1.92518 0
M  V30 5147 C 489.416 0.684398 -1.75959 0
M  V30 5148 O 488.773 1.46617 -1.08673 0
M  V30 5149 C 488.824 -1.10985 -3.44042 0
M  V30 5150 O 488.545 -2.49554 -3.60076 0
M  V30 5151 C 490.046 -0.854844 -4.3498 0
M  V30 5152 H 487.266 -0.276699 -0.611293 0
M  V30 5153 H 489.81 -1.38352 -1.50595 0
M  V30 5154 H 487.965 -0.529279 -3.83767 0
M  V30 5155 H 488.379 -2.6291 -4.53849 0
M  V30 5156 H 489.853 -1.15098 -5.39867 0
M  V30 5157 H 490.33 0.210507 -4.38695 0
M  V30 5158 H 490.936 -1.41853 -4.00946 0
M  V30 5159 N 489.251 1.34841 -0.815825 0
M  V30 5160 C 490.181 2.32187 -0.247298 0
M  V30 5161 C 491.162 1.5791 0.632344 0
M  V30 5162 O 492.347 1.8593 0.560698 0
M  V30 5163 C 489.477 3.42122 0.597466 0
M  V30 5164 C 488.431 4.27602 -0.184446 0
M  V30 5165 C 487.757 5.28942 0.782609 0
M  V30 5166 C 489.057 5.03502 -1.38865 0
M  V30 5167 H 490.751 2.79985 -1.06061 0
M  V30 5168 H 488.297 1.34611 -0.511461 0
M  V30 5169 H 490.25 4.09232 1.00533 0
M  V30 5170 H 488.974 2.92956 1.44376 0
M  V30 5171 H 487.633 3.62085 -0.573592 0
M  V30 5172 H 487.281 4.7604 1.62466 0
M  V30 5173 H 486.981 5.87008 0.263695 0
M  V30 5174 H 488.505 5.98922 1.18848 0
M  V30 5175 H 489.919 5.63506 -1.05518 0
M  V30 5176 H 488.316 5.71108 -1.8427 0
M  V30 5177 H 489.386 4.33608 -2.17054 0
M  V30 5178 N 490.729 0.570148 1.46925 0
M  V30 5179 C 491.976 0.0509529 2.02436 0
M  V30 5180 C 492.304 -1.30405 1.44308 0
M  V30 5181 O 491.559 -1.86493 0.593198 0
M  V30 5182 C 491.858 -0.0780336 3.57315 0
M  V30 5183 C 491.524 1.20775 4.34424 0
M  V30 5184 C 490.186 1.56004 4.5521 0
M  V30 5185 C 492.538 2.0592 4.78797 0
M  V30 5186 C 489.866 2.76201 5.17619 0
M  V30 5187 C 492.218 3.25332 5.42533 0
M  V30 5188 C 490.882 3.60859 5.61549 0
M  V30 5189 H 490.152 0.018645 0.740765 0
M  V30 5190 H 492.799 0.744262 1.76445 0
M  V30 5191 H 491.104 -0.854394 3.82371 0
M  V30 5192 H 492.801 -0.495312 3.97929 0
M  V30 5193 H 489.391 0.923469 4.18533 0
M  V30 5194 H 493.575 1.80008 4.62505 0
M  V30 5195 H 488.831 3.0388 5.30535 0
M  V30 5196 H 493.005 3.91586 5.75876 0
M  V30 5197 H 490.632 4.54088 6.09678 0
M  V30 5198 N 492.207 -1.54576 0.307264 0
M  V30 5199 C 493.137 -2.26708 -0.55907 0
M  V30 5200 C 494.118 -1.26893 -1.1328 0
M  V30 5201 O 495.303 -1.55677 -1.16097 0
M  V30 5202 C 492.433 -3.01259 -1.72801 0
M  V30 5203 C 491.387 -4.08275 -1.28435 0
M  V30 5204 C 490.713 -4.70575 -2.53895 0
M  V30 5205 C 492.013 -5.2068 -0.411038 0
M  V30 5206 H 493.707 -2.9937 0.042576 0
M  V30 5207 H 491.253 -1.43983 0.0219173 0
M  V30 5208 H 493.206 -3.50444 -2.34023 0
M  V30 5209 H 491.93 -2.26187 -2.356 0
M  V30 5210 H 490.589 -3.59949 -0.695161 0
M  V30 5211 H 490.237 -3.92136 -3.15021 0
M  V30 5212 H 489.937 -5.42854 -2.24908 0
M  V30 5213 H 491.461 -5.22527 -3.15908 0
M  V30 5214 H 492.875 -5.65721 -0.929097 0
M  V30 5215 H 491.272 -5.99716 -0.214664 0
M  V30 5216 H 492.342 -4.81629 0.562287 0
M  V30 5217 N 493.685 -0.035106 -1.57561 0
M  V30 5218 C 494.934 0.641604 -1.91223 0
M  V30 5219 C 495.247 1.72944 -0.913761 0
M  V30 5220 O 496.453 2.46321 -1.14185 0
M  V30 5221 C 494.909 1.19249 -3.3957 0
M  V30 5222 C 494.517 0.137616 -4.47789 0
M  V30 5223 C 496.261 1.84537 -3.82291 0
M  V30 5224 C 494.168 0.700478 -5.87237 0
M  V30 5225 H 493.098 0.243417 -0.713627 0
M  V30 5226 H 495.749 -0.101382 -1.8322 0
M  V30 5227 H 494.131 1.98728 -3.42525 0
M  V30 5228 H 495.305 -0.635153 -4.56402 0
M  V30 5229 H 493.62 -0.416855 -4.14308 0
M  V30 5230 H 496.217 2.27616 -4.83834 0
M  V30 5231 H 496.56 2.69054 -3.17672 0
M  V30 5232 H 497.093 1.11739 -3.81784 0
M  V30 5233 H 493.832 -0.106693 -6.55413 0
M  V30 5234 H 493.352 1.4416 -5.82218 0
M  V30 5235 H 495.031 1.18837 -6.35993 0
M  V30 5236 N 495.163 1.55791 0.238111 0
M  V30 5237 C 496.574 1.68383 0.806472 0
M  V30 5238 C 496.925 0.634157 1.85669 0
M  V30 5239 O 496.05 -0.217913 2.153 0
M  V30 5240 C 496.645 3.05268 1.46959 0
M  V30 5241 C 495.204 3.1977 1.98555 0
M  V30 5242 C 494.351 2.64279 0.839763 0
M  V30 5243 H 497.302 1.58694 0.0137535 0
M  V30 5244 H 497.323 3.00203 2.33792 0
M  V30 5245 H 496.835 3.81643 0.704993 0
M  V30 5246 H 494.936 2.48234 2.77868 0
M  V30 5247 H 495.049 4.26788 2.17689 0
M  V30 5248 H 493.413 2.22329 1.24265 0
M  V30 5249 H 494.196 3.43187 0.0881032 0
M  V30 5250 N 496.642 -0.504142 1.49319 0
M  V30 5251 C 497.572 -1.61473 1.68667 0
M  V30 5252 C 498.553 -1.61455 0.535378 0
M  V30 5253 O 499.738 -1.78245 0.770868 0
M  V30 5254 C 496.868 -2.99971 1.75028 0
M  V30 5255 C 495.822 -3.14854 2.89916 0
M  V30 5256 C 495.148 -4.54671 2.81387 0
M  V30 5257 C 496.448 -2.95176 4.30893 0
M  V30 5258 H 498.142 -1.45535 2.61648 0
M  V30 5259 H 495.688 -0.698711 1.25913 0
M  V30 5260 H 497.641 -3.77562 1.8715 0
M  V30 5261 H 496.365 -3.1699 0.786441 0
M  V30 5262 H 495.024 -2.39687 2.77391 0
M  V30 5263 H 494.672 -4.68562 1.82917 0
M  V30 5264 H 494.372 -4.6557 3.58494 0
M  V30 5265 H 495.896 -5.34327 2.95512 0
M  V30 5266 H 497.31 -3.62538 4.44116 0
M  V30 5267 H 495.707 -3.17549 5.09198 0
M  V30 5268 H 496.777 -1.91332 4.45556 0
M  V30 5269 N 498.12 -1.38341 -0.754957 0
M  V30 5270 C 499.367 -1.34473 -1.51404 0
M  V30 5271 C 499.695 0.0656458 -1.94389 0
M  V30 5272 O 498.95 1.04244 -1.65625 0
M  V30 5273 C 499.249 -2.2452 -2.78075 0
M  V30 5274 C 498.915 -3.72512 -2.54059 0
M  V30 5275 C 497.577 -4.1284 -2.47218 0
M  V30 5276 C 499.929 -4.66197 -2.33044 0
M  V30 5277 C 497.257 -5.44945 -2.17376 0
M  V30 5278 C 499.609 -5.98558 -2.04723 0
M  V30 5279 C 498.273 -6.37972 -1.96337 0
M  V30 5280 H 497.543 -0.492072 -0.554027 0
M  V30 5281 H 500.19 -1.70687 -0.868223 0
M  V30 5282 H 498.495 -1.81357 -3.473 0
M  V30 5283 H 500.192 -2.18832 -3.36026 0
M  V30 5284 H 496.782 -3.40538 -2.60253 0
M  V30 5285 H 500.966 -4.35888 -2.37309 0
M  V30 5286 H 496.222 -5.74426 -2.09391 0
M  V30 5287 H 500.396 -6.70693 -1.87465 0
M  V30 5288 H 498.023 -7.40258 -1.72978 0
M  V30 5289 N 499.598 0.982988 -1.23187 0
M  V30 5290 C 500.846 1.72052 -1.06031 0
M  V30 5291 C 501.167 1.90769 0.404019 0
M  V30 5292 O 500.437 1.47446 1.28982 0
M  V30 5293 H 499.017 0.637499 -0.389363 0
M  V30 5294 H 501.679 1.18338 -1.54862 0
M  V30 5295 H 500.775 2.7111 -1.54615 0
M  V30 5296 N 501.076 1.04316 1.18135 0
M  V30 5297 C 502.325 0.74319 1.87509 0
M  V30 5298 C 502.638 -0.732136 1.81381 0
M  V30 5299 O 503.844 -1.14572 2.46141 0
M  V30 5300 C 502.3 1.27913 3.36402 0
M  V30 5301 C 501.908 2.78326 3.51053 0
M  V30 5302 C 503.652 1.0558 4.11161 0
M  V30 5303 C 501.559 3.25266 4.93919 0
M  V30 5304 H 500.489 0.274313 0.702331 0
M  V30 5305 H 503.14 1.25931 1.33467 0
M  V30 5306 H 501.522 0.690853 3.89927 0
M  V30 5307 H 502.696 3.42933 3.07788 0
M  V30 5308 H 501.011 2.991 2.89704 0
M  V30 5309 H 503.608 1.38161 5.16542 0
M  V30 5310 H 503.951 -0.00684729 4.16299 0
M  V30 5311 H 504.484 1.60882 3.63816 0
M  V30 5312 H 501.223 4.30922 4.9395 0
M  V30 5313 H 500.743 2.65396 5.3789 0
M  V30 5314 H 502.422 3.19433 5.62647 0
M  V30 5315 N 502.554 -1.34406 0.822964 0
M  V30 5316 C 503.504 -2.26963 0.217208 0
M  V30 5317 C 504.488 -1.48536 -0.618545 0
M  V30 5318 O 505.68 -1.7056 -0.473118 0
M  V30 5319 C 502.809 -3.37655 -0.619973 0
M  V30 5320 C 501.895 -4.23495 0.226411 0
M  V30 5321 N 502.286 -4.88876 1.29744 0
M  V30 5322 C 500.584 -4.45999 0.0107554 0
M  V30 5323 C 501.285 -5.52642 1.81553 0
M  V30 5324 N 500.261 -5.31949 1.11942 0
M  V30 5325 H 504.063 -2.75017 1.03647 0
M  V30 5326 H 501.577 -1.48126 0.665777 0
M  V30 5327 H 503.574 -4.02932 -1.07011 0
M  V30 5328 H 502.234 -2.91151 -1.43739 0
M  V30 5329 H 503.245 -4.89886 1.68024 0
M  V30 5330 H 499.922 -4.10253 -0.774495 0
M  V30 5331 H 501.312 -6.14755 2.71156 0
M  V30 5332 N 504.032 -0.577932 -1.46621 0
M  V30 5333 C 505.262 -0.0670668 -2.06491 0
M  V30 5334 C 505.67 1.24119 -1.42798 0
M  V30 5335 O 505.013 1.76016 -0.525759 0
M  V30 5336 C 505.075 0.177995 -3.59059 0
M  V30 5337 C 504.739 -1.04394 -4.44917 0
M  V30 5338 C 505.736 -1.95479 -4.81751 0
M  V30 5339 C 503.421 -1.26444 -4.86125 0
M  V30 5340 C 505.415 -3.06965 -5.58615 0
M  V30 5341 C 503.102 -2.38237 -5.62749 0
M  V30 5342 C 504.1 -3.28327 -5.98908 0
M  V30 5343 O 503.788 -4.38179 -6.73984 0
M  V30 5344 H 503.52 -0.0523159 -0.673973 0
M  V30 5345 H 506.074 -0.796966 -1.89308 0
M  V30 5346 H 504.304 0.962451 -3.74531 0
M  V30 5347 H 505.993 0.636782 -4.00874 0
M  V30 5348 H 506.759 -1.79657 -4.50498 0
M  V30 5349 H 502.638 -0.572316 -4.57434 0
M  V30 5350 H 506.182 -3.77309 -5.86757 0
M  V30 5351 H 502.079 -2.54023 -5.93416 0
M  V30 5352 H 502.847 -4.36486 -6.92403 0
M  V30 5353 N 505.51 1.54411 -0.315457 0
M  V30 5354 C 506.759 1.99599 0.290395 0
M  V30 5355 C 507.072 1.20746 1.53882 0
M  V30 5356 O 508.278 1.56272 2.22017 0
M  V30 5357 C 506.734 3.5539 0.56797 0
M  V30 5358 C 506.342 4.43068 -0.662945 0
M  V30 5359 C 508.086 4.09067 1.13422 0
M  V30 5360 C 505.993 5.90317 -0.357722 0
M  V30 5361 H 504.923 0.745592 0.112286 0
M  V30 5362 H 507.574 1.78477 -0.426418 0
M  V30 5363 H 505.956 3.72468 1.34476 0
M  V30 5364 H 507.13 4.37765 -1.43869 0
M  V30 5365 H 505.445 4.00238 -1.14884 0
M  V30 5366 H 508.042 5.16663 1.37707 0
M  V30 5367 H 508.385 3.60552 2.08106 0
M  V30 5368 H 508.918 3.95589 0.418805 0
M  V30 5369 H 505.657 6.4301 -1.27351 0
M  V30 5370 H 505.177 5.98592 0.380472 0
M  V30 5371 H 506.856 6.4699 0.0354284 0
M  V30 5372 N 506.988 0.0434614 1.5754 0
M  V30 5373 C 508.237 -0.631454 1.91561 0
M  V30 5374 C 508.55 -1.72457 0.92292 0
M  V30 5375 O 509.756 -2.45712 1.15489 0
M  V30 5376 C 508.212 -1.17447 3.40197 0
M  V30 5377 C 507.82 -0.113867 4.47855 0
M  V30 5378 C 509.564 -1.82507 3.83264 0
M  V30 5379 C 507.471 -0.669326 5.876 0
M  V30 5380 H 506.401 -0.239629 0.714908 0
M  V30 5381 H 509.052 0.111097 1.83163 0
M  V30 5382 H 507.434 -1.96909 3.43574 0
M  V30 5383 H 508.608 0.659348 4.56058 0
M  V30 5384 H 506.923 0.438821 4.14081 0
M  V30 5385 H 509.52 -2.25047 4.85034 0
M  V30 5386 H 509.863 -2.67365 3.19095 0
M  V30 5387 H 510.396 -1.09712 3.82372 0
M  V30 5388 H 507.135 0.141449 6.55347 0
M  V30 5389 H 506.655 -1.4107 5.82974 0
M  V30 5390 H 508.334 -1.15463 6.36614 0
M  V30 5391 N 508.466 -1.55915 -0.229846 0
M  V30 5392 C 509.713 -1.78542 -0.955452 0
M  V30 5393 C 510.041 -0.610785 -1.84661 0
M  V30 5394 O 509.296 0.405213 -1.91459 0
M  V30 5395 C 509.595 -3.06845 -1.8325 0
M  V30 5396 C 509.261 -4.37395 -1.09528 0
M  V30 5397 C 507.923 -4.72868 -0.891598 0
M  V30 5398 C 510.275 -5.18029 -0.574046 0
M  V30 5399 C 507.603 -5.86496 -0.154655 0
M  V30 5400 C 509.955 -6.32423 0.149513 0
M  V30 5401 C 508.619 -6.66504 0.364519 0
M  V30 5402 H 507.889 -0.653333 -0.349625 0
M  V30 5403 H 510.536 -1.90183 -0.224235 0
M  V30 5404 H 508.841 -2.90291 -2.63132 0
M  V30 5405 H 510.538 -3.21553 -2.39592 0
M  V30 5406 H 507.128 -4.09538 -1.26399 0
M  V30 5407 H 511.312 -4.91066 -0.718899 0
M  V30 5408 H 506.568 -6.11396 0.0222356 0
M  V30 5409 H 510.742 -6.94137 0.560947 0
M  V30 5410 H 508.369 -7.54397 0.937495 0
M  V30 5411 N 509.944 0.496216 -1.49584 0
M  V30 5412 C 510.892 1.61805 -1.67098 0
M  V30 5413 C 511.886 1.60667 -0.536877 0
M  V30 5414 O 513.092 1.65118 -0.716654 0
M  V30 5415 H 509.467 0.53646 -0.526986 0
M  V30 5416 H 511.438 1.44187 -2.61252 0
M  V30 5417 C 510.187 2.99912 -1.75921 0
M  V30 5418 H 509.51 3.01496 -2.62565 0
M  V30 5419 H 510.95 3.77931 -1.92209 0
M  V30 5420 C 509.409 3.33092 -0.505088 0
M  V30 5421 O 509.939 4.00019 0.367085 0
M  V30 5422 N 508.145 2.88278 -0.366599 0
M  V30 5423 H 507.692 2.33989 -1.07735 0
M  V30 5424 H 507.65 3.10846 0.47142 0
M  V30 5425 N 511.423 1.38739 0.74761 0
M  V30 5426 C 512.67 1.35274 1.50689 0
M  V30 5427 C 512.998 -0.0553359 1.94421 0
M  V30 5428 O 512.253 -1.03365 1.66175 0
M  V30 5429 C 512.552 2.25992 2.7688 0
M  V30 5430 C 512.218 3.73854 2.5208 0
M  V30 5431 C 510.88 4.14145 2.45025 0
M  V30 5432 C 513.232 4.67427 2.30568 0
M  V30 5433 C 510.56 5.4609 2.14483 0
M  V30 5434 C 512.912 5.99635 2.01545 0
M  V30 5435 C 511.576 6.39004 1.92951 0
M  V30 5436 H 510.846 0.495003 0.55141 0
M  V30 5437 H 513.493 1.71145 0.859158 0
M  V30 5438 H 511.798 1.83196 3.46333 0
M  V30 5439 H 513.495 2.20611 3.34861 0
M  V30 5440 H 510.085 3.41913 2.58444 0
M  V30 5441 H 514.269 4.3714 2.34994 0
M  V30 5442 H 509.525 5.75528 2.06342 0
M  V30 5443 H 513.699 6.71678 1.83906 0
M  V30 5444 H 511.326 7.41165 1.6905 0
M  V30 5445 N 512.901 -0.976442 1.23707 0
M  V30 5446 C 513.831 -2.08749 1.04624 0
M  V30 5447 C 514.812 -1.70057 -0.0380956 0
M  V30 5448 O 515.997 -1.93782 0.127308 0
M  V30 5449 C 513.127 -3.41335 0.640902 0
M  V30 5450 C 512.081 -3.93947 1.67302 0
M  V30 5451 C 511.407 -5.22774 1.12301 0
M  V30 5452 C 512.707 -4.22769 3.06697 0
M  V30 5453 H 514.401 -2.24972 1.97555 0
M  V30 5454 H 511.947 -1.08108 0.951247 0
M  V30 5455 H 513.9 -4.18489 0.494434 0
M  V30 5456 H 512.624 -3.24988 -0.324099 0
M  V30 5457 H 511.283 -3.18941 1.80755 0
M  V30 5458 H 510.931 -5.0278 0.148877 0
M  V30 5459 H 510.631 -5.58942 1.81267 0
M  V30 5460 H 512.155 -6.02546 0.988479 0
M  V30 5461 H 513.569 -4.90659 2.96524 0
M  V30 5462 H 511.966 -4.70147 3.72937 0
M  V30 5463 H 513.036 -3.29885 3.55392 0
M  V30 5464 N 514.379 -1.04941 -1.1758 0
M  V30 5465 C 515.79 -0.784501 -1.69418 0
M  V30 5466 C 516.141 0.693625 -1.8353 0
M  V30 5467 O 515.266 1.53925 -1.52106 0
M  V30 5468 C 515.861 -1.41746 -3.07723 0
M  V30 5469 C 514.42 -1.20066 -3.56737 0
M  V30 5470 C 513.567 -1.5026 -2.33061 0
M  V30 5471 H 516.518 -1.21469 -1.02133 0
M  V30 5472 H 516.539 -0.825381 -3.7144 0
M  V30 5473 H 516.051 -2.49325 -2.9742 0
M  V30 5474 H 514.152 -0.144006 -3.72322 0
M  V30 5475 H 514.265 -1.90384 -4.39648 0
M  V30 5476 H 512.629 -0.922598 -2.37403 0
M  V30 5477 H 513.412 -2.58967 -2.25368 0
M  V30 5478 N 515.857 1.33968 -0.830081 0
M  V30 5479 C 517.134 1.92554 -0.343858 0
M  V30 5480 C 517.514 1.7573 1.16971 0
M  V30 5481 O 516.862 1.14035 1.98011 0
M  V30 5482 C 517.072 3.40147 -0.781073 0
M  V30 5483 C 518.42 4.17299 -0.78402 0
M  V30 5484 O 519.444 3.48762 -0.724112 0
M  V30 5485 O 518.303 5.39631 -0.863739 0
M  V30 5486 H 515.397 0.821469 -0.0954827 0
M  V30 5487 H 517.943 1.42897 -0.915348 0
M  V30 5488 H 516.715 3.46225 -1.82329 0
M  V30 5489 H 516.338 3.97166 -0.18567 0
M  V30 5490 N 517.335 0.585699 1.46312 0
M  V30 5491 C 518.283 -0.158577 2.32059 0
M  V30 5492 C 519.277 -0.881427 1.44662 0
M  V30 5493 O 520.483 -0.799476 1.61271 0
M  V30 5494 H 516.858 -0.0700066 0.748734 0
M  V30 5495 H 518.829 0.583383 2.92642 0
M  V30 5496 C 517.578 -1.15701 3.27885 0
M  V30 5497 H 516.901 -0.610215 3.95116 0
M  V30 5498 H 518.341 -1.64812 3.90657 0
M  V30 5499 C 516.8 -2.21951 2.53455 0
M  V30 5500 O 517.33 -3.29352 2.29978 0
M  V30 5501 N 515.536 -1.9664 2.13965 0
M  V30 5502 H 515.083 -1.09309 2.33258 0
M  V30 5503 H 515.041 -2.6794 1.64485 0
M  V30 5504 N 518.813 -1.54241 0.323641 0
M  V30 5505 C 519.776 -2.22997 -0.529602 0
M  V30 5506 C 520.776 -1.22345 -1.04347 0
M  V30 5507 O 521.966 -1.46924 -0.935889 0
M  V30 5508 C 519.098 -2.93409 -1.73562 0
M  V30 5509 H 520.291 -2.99815 0.0714518 0
M  V30 5510 H 517.844 -1.56121 0.0747258 0
M  V30 5511 H 518.579 -2.20729 -2.37591 0
M  V30 5512 H 518.364 -3.67217 -1.37456 0
M  V30 5513 H 519.854 -3.45794 -2.34128 0
M  V30 5514 N 520.291 -0.0518155 -1.57515 0
M  V30 5515 C 521.539 0.620595 -1.92336 0
M  V30 5516 C 521.86 1.71345 -0.930907 0
M  V30 5517 O 521.13 1.95885 0.0241341 0
M  V30 5518 H 519.71 0.232226 -0.709986 0
M  V30 5519 H 522.372 -0.104969 -1.94617 0
M  V30 5520 H 521.468 1.05879 -2.93592 0
M  V30 5521 N 521.769 1.56035 0.221574 0
M  V30 5522 C 522.699 1.95434 1.2778 0
M  V30 5523 C 523.68 0.822564 1.48889 0
M  V30 5524 O 524.865 1.08486 1.61072 0
M  V30 5525 C 521.995 2.27102 2.62759 0
M  V30 5526 C 520.949 3.4277 2.56306 0
M  V30 5527 C 520.275 3.60043 3.95314 0
M  V30 5528 C 521.575 4.77742 2.11093 0
M  V30 5529 H 523.269 2.83912 0.950504 0
M  V30 5530 H 520.815 1.36596 0.455791 0
M  V30 5531 H 522.768 2.53256 3.36807 0
M  V30 5532 H 521.492 1.35478 2.97176 0
M  V30 5533 H 520.151 3.16664 1.84715 0
M  V30 5534 H 519.799 2.65794 4.27039 0
M  V30 5535 H 519.499 4.37841 3.91879 0
M  V30 5536 H 521.023 3.88545 4.71025 0
M  V30 5537 H 522.437 5.03102 2.74885 0
M  V30 5538 H 520.834 5.58823 2.18716 0
M  V30 5539 H 521.904 4.731 1.06321 0
M  V30 5540 N 523.247 -0.488276 1.49845 0
M  V30 5541 C 524.495 -1.23911 1.59657 0
M  V30 5542 C 524.816 -1.92816 0.291005 0
M  V30 5543 O 524.086 -1.83328 -0.690485 0
M  V30 5544 H 522.666 -0.460357 0.588286 0
M  V30 5545 H 525.328 -0.564794 1.86537 0
M  V30 5546 H 524.424 -1.99625 2.39909 0
M  V30 5547 N 524.725 -1.39134 -0.740242 0
M  V30 5548 C 525.974 -1.35384 -1.49512 0
M  V30 5549 C 526.287 0.04919 -1.95538 0
M  V30 5550 O 527.493 0.209257 -2.70692 0
M  V30 5551 C 525.949 -2.37812 -2.70136 0
M  V30 5552 C 525.557 -3.83804 -2.31081 0
M  V30 5553 C 527.301 -2.4313 -3.47977 0
M  V30 5554 C 525.208 -4.77886 -3.48395 0
M  V30 5555 H 524.138 -0.503297 -0.561434 0
M  V30 5556 H 526.789 -1.64754 -0.807974 0
M  V30 5557 H 525.171 -2.01505 -3.40899 0
M  V30 5558 H 526.345 -4.29123 -1.67898 0
M  V30 5559 H 524.66 -3.81732 -1.66343 0
M  V30 5560 H 527.257 -3.10614 -4.35228 0
M  V30 5561 H 527.6 -1.45423 -3.90074 0
M  V30 5562 H 528.133 -2.78304 -2.84239 0
M  V30 5563 H 524.872 -5.76836 -3.11353 0
M  V30 5564 H 524.392 -4.3725 -4.10576 0
M  V30 5565 H 526.071 -4.96538 -4.148 0
M  V30 5566 N 526.204 0.969867 -1.24223 0
M  V30 5567 C 527.62 1.23809 -1.00716 0
M  V30 5568 C 527.82 1.99469 0.285358 0
M  V30 5569 O 526.876 2.31764 1.00207 0
M  V30 5570 C 528.189 2.02734 -2.2208 0
M  V30 5571 C 529.737 2.15834 -2.26681 0
M  V30 5572 C 530.212 2.98154 -3.47661 0
M  V30 5573 N 531.703 3.05737 -3.47964 0
M  V30 5574 C 532.438 3.69785 -4.38231 0
M  V30 5575 N 531.934 4.35569 -5.3875 0
M  V30 5576 N 533.727 3.66775 -4.25949 0
M  V30 5577 H 525.878 0.463294 -2.07286 0
M  V30 5578 H 528.141 0.267348 -0.909521 0
M  V30 5579 H 527.847 1.54524 -3.15935 0
M  V30 5580 H 527.721 3.0347 -2.24021 0
M  V30 5581 H 530.108 2.63248 -1.33359 0
M  V30 5582 H 530.189 1.14453 -2.28767 0
M  V30 5583 H 529.833 2.51435 -4.41297 0
M  V30 5584 H 529.763 3.99729 -3.42818 0
M  V30 5585 H 532.254 2.58941 -2.75242 0
M  V30 5586 H 532.567 4.82251 -6.03866 0
M  V30 5587 H 530.912 4.34244 -5.42639 0
M  V30 5588 H 534.103 3.14558 -3.46657 0
M  V30 5589 H 534.276 4.16407 -4.96497 0
M  V30 5590 N 527.682 1.05563 1.17022 0
M  V30 5591 C 528.612 0.681026 2.23348 0
M  V30 5592 C 529.593 -0.322983 1.67005 0
M  V30 5593 O 530.778 -0.199746 1.9317 0
M  V30 5594 C 527.908 0.0589053 3.4725 0
M  V30 5595 C 526.862 0.988082 4.16438 0
M  V30 5596 C 526.188 0.229646 5.34207 0
M  V30 5597 C 527.488 2.31388 4.68249 0
M  V30 5598 H 529.182 1.56993 2.54938 0
M  V30 5599 H 526.728 0.756302 1.2254 0
M  V30 5600 H 528.681 -0.214982 4.20851 0
M  V30 5601 H 527.405 -0.864968 3.14938 0
M  V30 5602 H 526.064 1.24659 3.44754 0
M  V30 5603 H 525.712 -0.697111 4.98146 0
M  V30 5604 H 525.412 0.848815 5.81437 0
M  V30 5605 H 526.936 -0.0368694 6.10589 0
M  V30 5606 H 528.35 2.09964 5.33468 0
M  V30 5607 H 526.747 2.88736 5.26072 0
M  V30 5608 H 527.817 2.94982 3.84855 0
M  V30 5609 N 529.16 -1.33526 0.837174 0
M  V30 5610 C 530.571 -1.80182 0.489017 0
M  V30 5611 C 530.922 -1.69285 -0.991826 0
M  V30 5612 O 530.047 -1.24113 -1.77271 0
M  V30 5613 C 530.642 -3.27149 0.880866 0
M  V30 5614 C 529.201 -3.71828 0.584872 0
M  V30 5615 C 528.348 -2.54974 1.09011 0
M  V30 5616 H 531.299 -1.21071 1.02603 0
M  V30 5617 H 531.32 -3.80024 0.190239 0
M  V30 5618 H 530.832 -3.35048 1.95869 0
M  V30 5619 H 528.933 -3.69457 -0.48295 0
M  V30 5620 H 529.046 -4.65366 1.13892 0
M  V30 5621 H 527.41 -2.4952 0.511047 0
M  V30 5622 H 528.193 -2.65637 2.17467 0
M  V30 5623 N 530.638 -0.59345 -1.46 0
M  V30 5624 C 531.568 0.121192 -2.33185 0
M  V30 5625 C 532.549 0.872977 -1.4599 0
M  V30 5626 O 533.734 0.846321 -1.74789 0
M  V30 5627 C 530.864 1.12844 -3.28456 0
M  V30 5628 C 529.818 0.4908 -4.25177 0
M  V30 5629 C 529.144 1.60529 -5.10034 0
M  V30 5630 C 530.444 -0.578949 -5.19081 0
M  V30 5631 H 532.138 -0.606767 -2.93187 0
M  V30 5632 H 529.684 -0.293242 -1.40983 0
M  V30 5633 H 531.637 1.63684 -3.88311 0
M  V30 5634 H 530.361 1.88681 -2.66584 0
M  V30 5635 H 529.02 0.00339328 -3.666 0
M  V30 5636 H 528.668 2.35359 -4.44539 0
M  V30 5637 H 528.368 1.18422 -5.75543 0
M  V30 5638 H 529.892 2.11623 -5.72755 0
M  V30 5639 H 531.306 -0.155199 -5.7309 0
M  V30 5640 H 529.703 -0.920947 -5.92991 0
M  V30 5641 H 530.773 -1.46109 -4.62364 0
M  V30 5642 N 532.116 1.54067 -0.331816 0
M  V30 5643 C 533.026 2.28322 0.539104 0
M  V30 5644 C 534.042 1.32985 1.1221 0
M  V30 5645 O 535.218 1.6601 1.1403 0
M  V30 5646 C 532.283 3.03277 1.68 0
M  V30 5647 C 531.344 4.14216 1.12798 0
M  V30 5648 C 530.577 4.85588 2.2145 0
M  V30 5649 O 530.8 4.56536 3.41952 0
M  V30 5650 O 529.734 5.72309 1.86404 0
M  V30 5651 H 533.56 3.03632 -0.0641692 0
M  V30 5652 H 531.145 1.49083 -0.0972365 0
M  V30 5653 H 533.027 3.50189 2.34405 0
M  V30 5654 H 531.702 2.30834 2.2693 0
M  V30 5655 H 530.609 3.71635 0.428782 0
M  V30 5656 H 531.942 4.88727 0.583698 0
M  V30 5657 N 533.594 0.0601682 1.57485 0
M  V30 5658 C 534.524 -0.90889 2.15085 0
M  V30 5659 C 535.505 -1.31838 1.07484 0
M  V30 5660 O 536.69 -1.3915 1.35466 0
M  V30 5661 C 533.82 -2.18059 2.7031 0
M  V30 5662 C 532.774 -1.91088 3.82974 0
M  V30 5663 C 532.1 -3.24789 4.24754 0
M  V30 5664 C 533.4 -1.22535 5.07723 0
M  V30 5665 H 535.094 -0.429093 2.96309 0
M  V30 5666 H 532.64 -0.204952 1.42534 0
M  V30 5667 H 534.593 -2.86258 3.09248 0
M  V30 5668 H 533.317 -2.6826 1.8629 0
M  V30 5669 H 531.976 -1.25297 3.44523 0
M  V30 5670 H 531.624 -3.72809 3.37672 0
M  V30 5671 H 531.324 -3.07538 5.00694 0
M  V30 5672 H 532.848 -3.94205 4.66299 0
M  V30 5673 H 534.262 -1.80783 5.4405 0
M  V30 5674 H 532.659 -1.1558 5.88864 0
M  V30 5675 H 533.729 -0.202692 4.84476 0
M  V30 5676 N 535.072 -1.5615 -0.213296 0
M  V30 5677 C 536.32 -1.79191 -0.934612 0
M  V30 5678 C 536.641 -0.630112 -1.84539 0
M  V30 5679 O 535.911 0.35257 -1.92701 0
M  V30 5680 H 534.491 -0.660937 -0.348097 0
M  V30 5681 H 537.153 -1.93618 -0.22317 0
M  V30 5682 H 536.249 -2.71656 -1.53654 0
M  V30 5683 N 536.55 0.480323 -1.50102 0
M  V30 5684 C 537.48 1.58769 -1.71215 0
M  V30 5685 C 538.461 1.60583 -0.560997 0
M  V30 5686 O 539.646 1.76996 -0.799127 0
M  V30 5687 C 536.776 2.97148 -1.79778 0
M  V30 5688 C 535.73 3.10201 -2.94888 0
M  V30 5689 C 535.056 4.50137 -2.88584 0
M  V30 5690 C 536.356 2.88283 -4.35534 0
M  V30 5691 H 538.05 1.41354 -2.6393 0
M  V30 5692 H 535.596 0.678591 -1.27008 0
M  V30 5693 H 537.549 3.74536 -1.93133 0
M  V30 5694 H 536.273 3.15699 -0.836772 0
M  V30 5695 H 534.932 2.35244 -2.81169 0
M  V30 5696 H 534.58 4.65593 -1.90349 0
M  V30 5697 H 534.28 4.59808 -3.65856 0
M  V30 5698 H 535.804 5.29558 -3.03976 0
M  V30 5699 H 537.218 3.55427 -4.49827 0
M  V30 5700 H 535.615 3.09408 -5.14186 0
M  V30 5701 H 536.685 1.84219 -4.48544 0
M  V30 5702 N 538.028 1.39524 0.732853 0
M  V30 5703 C 539.276 1.36594 1.48951 0
M  V30 5704 C 539.597 -0.0367507 1.94965 0
M  V30 5705 O 538.867 -0.988391 1.69138 0
M  V30 5706 H 537.447 0.502673 0.552566 0
M  V30 5707 H 540.109 1.74411 0.869869 0
M  V30 5708 H 539.205 2.03 2.3706 0
M  V30 5709 N 539.506 -0.963266 1.24736 0
M  V30 5710 C 540.731 -1.74699 1.11781 0
M  V30 5711 C 541.156 -1.85267 -0.325258 0
M  V30 5712 O 540.514 -1.32681 -1.23553 0
M  V30 5713 C 540.562 -3.14322 1.76731 0
M  V30 5714 O 539.666 -3.99043 1.04109 0
M  V30 5715 H 539.007 -0.53684 0.390767 0
M  V30 5716 H 541.537 -1.20801 1.65131 0
M  V30 5717 H 541.547 -3.64824 1.82668 0
M  V30 5718 H 540.222 -3.05946 2.81726 0
M  V30 5719 H 538.799 -3.5752 1.05991 0
M  V30 5720 N 540.985 -1.06182 -1.16461 0
M  V30 5721 C 542.232 -0.777863 -1.86964 0
M  V30 5722 C 542.56 0.695602 -1.81636 0
M  V30 5723 O 541.815 1.52532 -1.22607 0
M  V30 5724 C 542.114 -1.21633 -3.36066 0
M  V30 5725 C 541.78 -2.69371 -3.61594 0
M  V30 5726 C 540.442 -3.09727 -3.6827 0
M  V30 5727 C 542.794 -3.64791 -3.7226 0
M  V30 5728 C 540.122 -4.44345 -3.83112 0
M  V30 5729 C 542.474 -4.99155 -3.88623 0
M  V30 5730 C 541.138 -5.39149 -3.93541 0
M  V30 5731 H 540.408 -0.28464 -0.68415 0
M  V30 5732 H 543.055 -1.33071 -1.37711 0
M  V30 5733 H 541.36 -0.582651 -3.87443 0
M  V30 5734 H 543.057 -0.973682 -3.88999 0
M  V30 5735 H 539.647 -2.37124 -3.57029 0
M  V30 5736 H 543.831 -3.34746 -3.66413 0
M  V30 5737 H 539.087 -4.74819 -3.85172 0
M  V30 5738 H 543.261 -5.72976 -3.95817 0
M  V30 5739 H 540.888 -6.43464 -4.04794 0
M  V30 5740 N 542.463 1.3308 -0.844243 0
M  V30 5741 C 543.395 2.27954 -0.238671 0
M  V30 5742 C 544.408 1.51978 0.583665 0
M  V30 5743 O 545.597 1.73731 0.409857 0
M  V30 5744 C 542.697 3.31963 0.682185 0
M  V30 5745 C 541.87 4.37281 -0.101998 0
M  V30 5746 C 540.929 5.20928 0.743022 0
M  V30 5747 O 539.955 5.68914 0.180285 0
M  V30 5748 N 541.157 5.42738 2.0595 0
M  V30 5749 H 543.922 2.8056 -1.05386 0
M  V30 5750 H 541.483 1.4583 -0.70322 0
M  V30 5751 H 543.475 3.84828 1.25259 0
M  V30 5752 H 542.045 2.79594 1.39808 0
M  V30 5753 H 541.265 3.84843 -0.853802 0
M  V30 5754 H 542.553 5.04746 -0.641015 0
M  V30 5755 H 541.951 5.05463 2.54016 0
M  V30 5756 H 540.508 5.98639 2.57827 0
M  V30 5757 N 543.941 0.601185 1.45683 0
M  V30 5758 C 545.189 0.0936957 2.01883 0
M  V30 5759 C 545.51 -1.2779 1.47291 0
M  V30 5760 O 544.78 -1.84279 0.664691 0
M  V30 5761 H 543.36 0.0316466 0.746329 0
M  V30 5762 H 546.022 0.781137 1.78562 0
M  V30 5763 H 545.118 0.0386297 3.12076 0
M  V30 5764 N 545.419 -1.53889 0.339982 0
M  V30 5765 C 546.666 -2.00855 -0.257621 0
M  V30 5766 C 546.994 -1.22788 -1.50842 0
M  V30 5767 O 546.249 -0.302567 -1.93347 0
M  V30 5768 C 546.548 -3.51968 -0.620735 0
M  V30 5769 C 546.214 -4.47741 0.532771 0
M  V30 5770 C 544.876 -4.73645 0.849339 0
M  V30 5771 C 547.228 -5.04551 1.3068 0
M  V30 5772 C 544.556 -5.53614 1.94237 0
M  V30 5773 C 546.908 -5.85713 2.39005 0
M  V30 5774 C 545.572 -6.09912 2.71225 0
M  V30 5775 H 544.842 -0.734979 -0.0942703 0
M  V30 5776 H 547.489 -1.85714 0.467159 0
M  V30 5777 H 545.794 -3.64921 -1.42618 0
M  V30 5778 H 547.491 -3.85762 -1.09495 0
M  V30 5779 H 544.081 -4.27711 0.275973 0
M  V30 5780 H 548.265 -4.84507 1.07549 0
M  V30 5781 H 543.521 -5.7059 2.19628 0
M  V30 5782 H 547.695 -6.28748 2.99415 0
M  V30 5783 H 545.322 -6.71665 3.56047 0
M  V30 5784 N 546.897 -0.0685191 -1.57451 0
M  V30 5785 C 548.146 0.600898 -1.92541 0
M  V30 5786 C 548.459 1.70967 -0.950239 0
M  V30 5787 O 549.665 2.43844 -1.19384 0
M  V30 5788 C 548.121 1.12019 -3.42023 0
M  V30 5789 C 547.729 0.0426028 -4.4798 0
M  V30 5790 C 549.473 1.76386 -3.86119 0
M  V30 5791 C 547.38 0.575759 -5.88591 0
M  V30 5792 H 546.31 0.228225 -0.71863 0
M  V30 5793 H 548.961 -0.140223 -1.82963 0
M  V30 5794 H 547.343 1.91418 -3.46663 0
M  V30 5795 H 548.517 -0.73182 -4.54952 0
M  V30 5796 H 546.832 -0.504642 -4.13331 0
M  V30 5797 H 549.429 2.17302 -4.88553 0
M  V30 5798 H 549.772 2.62255 -3.23308 0
M  V30 5799 H 550.305 1.03615 -3.84069 0
M  V30 5800 H 547.044 -0.245691 -6.55039 0
M  V30 5801 H 546.564 1.31778 -5.85145 0
M  V30 5802 H 548.243 1.0532 -6.3837 0
M  V30 5803 N 548.375 1.56261 0.205012 0
M  V30 5804 C 549.621 1.80306 0.9283 0
M  V30 5805 C 549.954 0.640932 1.83319 0
M  V30 5806 O 549.229 -0.359032 1.91158 0
M  V30 5807 C 549.512 3.14547 1.75306 0
M  V30 5808 C 549.365 4.41236 0.873562 0
M  V30 5809 C 550.684 3.45382 2.72762 0
M  V30 5810 H 547.803 0.655929 0.336044 0
M  V30 5811 H 550.445 1.88984 0.196211 0
M  V30 5812 H 548.595 3.0728 2.37721 0
M  V30 5813 H 550.267 4.60539 0.264887 0
M  V30 5814 H 548.51 4.33427 0.179773 0
M  V30 5815 H 549.181 5.31639 1.48541 0
M  V30 5816 H 551.657 3.52884 2.20481 0
M  V30 5817 H 550.533 4.40449 3.2756 0
M  V30 5818 H 550.794 2.68377 3.51321 0
M  V30 5819 N 549.853 -0.472356 1.50355 0
M  V30 5820 C 550.816 -1.5529 1.68576 0
M  V30 5821 C 551.816 -1.50863 0.556511 0
M  V30 5822 O 553.006 -1.53505 0.823516 0
M  V30 5823 C 550.138 -2.94921 1.70981 0
M  V30 5824 H 551.331 -1.40451 2.64978 0
M  V30 5825 H 548.884 -0.698645 1.39816 0
M  V30 5826 H 549.619 -3.15204 0.762675 0
M  V30 5827 H 549.404 -2.99541 2.53017 0
M  V30 5828 H 550.894 -3.73372 1.87037 0
M  V30 5829 N 551.331 -1.39911 -0.725443 0
M  V30 5830 C 552.58 -1.36963 -1.48068 0
M  V30 5831 C 552.893 0.0284478 -1.95579 0
M  V30 5832 O 554.099 0.180535 -2.70899 0
M  V30 5833 C 552.555 -2.40664 -2.67598 0
M  V30 5834 C 552.163 -3.86234 -2.26997 0
M  V30 5835 C 553.907 -2.46807 -3.45379 0
M  V30 5836 C 551.814 -4.81554 -3.43307 0
M  V30 5837 H 550.744 -0.509223 -0.556065 0
M  V30 5838 H 553.395 -1.65602 -0.790454 0
M  V30 5839 H 551.777 -2.05109 -3.38742 0
M  V30 5840 H 552.951 -4.3088 -1.63337 0
M  V30 5841 H 551.266 -3.83475 -1.62284 0
M  V30 5842 H 553.863 -3.15213 -4.31909 0
M  V30 5843 H 554.206 -1.49552 -3.8851 0
M  V30 5844 H 554.739 -2.81303 -2.81271 0
M  V30 5845 H 551.478 -5.80106 -3.05217 0
M  V30 5846 H 550.998 -4.4158 -4.05915 0
M  V30 5847 H 552.677 -5.0091 -4.0951 0
M  V30 5848 N 552.809 0.956637 -1.25245 0
M  V30 5849 C 553.739 2.07058 -1.07931 0
M  V30 5850 C 554.72 1.70096 0.0110361 0
M  V30 5851 O 555.905 1.93555 -0.158121 0
M  V30 5852 C 553.035 3.40272 -0.695124 0
M  V30 5853 C 551.989 3.91235 -1.73549 0
M  V30 5854 C 551.315 5.20921 -1.20604 0
M  V30 5855 C 552.615 4.17837 -3.13385 0
M  V30 5856 H 554.309 2.218 -2.01109 0
M  V30 5857 H 551.855 1.06581 -0.968326 0
M  V30 5858 H 553.808 4.1765 -0.560949 0
M  V30 5859 H 552.532 3.25462 0.272355 0
M  V30 5860 H 551.191 3.16025 -1.85807 0
M  V30 5861 H 550.839 5.02479 -0.228846 0
M  V30 5862 H 550.539 5.55987 -1.90136 0
M  V30 5863 H 552.063 6.00897 -1.08421 0
M  V30 5864 H 553.477 4.8588 -3.04292 0
M  V30 5865 H 551.874 4.64154 -3.80369 0
M  V30 5866 H 552.944 3.2419 -3.60595 0
M  V30 5867 N 554.287 1.06798 1.15896 0
M  V30 5868 C 555.517 0.807522 1.90165 0
M  V30 5869 C 555.925 -0.642417 1.7796 0
M  V30 5870 O 555.268 -1.45193 1.12537 0
M  V30 5871 C 555.33 1.12939 3.41299 0
M  V30 5872 C 554.994 2.57879 3.7729 0
M  V30 5873 C 555.991 3.56118 3.78782 0
M  V30 5874 C 553.676 2.93311 4.07767 0
M  V30 5875 C 555.67 4.87827 4.10248 0
M  V30 5876 C 553.357 4.25219 4.38899 0
M  V30 5877 C 554.355 5.22287 4.4012 0
M  V30 5878 O 554.043 6.51826 4.70508 0
M  V30 5879 H 553.775 0.291946 0.609708 0
M  V30 5880 H 556.329 1.42627 1.47806 0
M  V30 5881 H 554.559 0.45359 3.84031 0
M  V30 5882 H 556.248 0.852363 3.9685 0
M  V30 5883 H 557.014 3.30086 3.55342 0
M  V30 5884 H 552.893 2.18409 4.05979 0
M  V30 5885 H 556.437 5.63586 4.11116 0
M  V30 5886 H 552.334 4.51006 4.61805 0
M  V30 5887 H 553.102 6.56893 4.88298 0
M  V30 5888 N 555.766 -1.3263 0.851289 0
M  V30 5889 C 557.006 -1.99174 0.459266 0
M  V30 5890 C 557.37 -1.65913 -0.966273 0
M  V30 5891 O 558.571 -2.2552 -1.46267 0
M  V30 5892 C 556.842 -3.50721 0.687698 0
M  V30 5893 S 558.401 -4.37039 0.392746 0
M  V30 5894 H 555.219 -0.689832 0.172199 0
M  V30 5895 H 557.821 -1.61395 1.10327 0
M  V30 5896 H 556.525 -3.72417 1.72435 0
M  V30 5897 H 556.056 -3.93389 0.0299949 0
M  V30 5898 H 558.071 -4.8999 -0.782578 0
M  V30 5899 N 557.244 -0.608902 -1.45362 0
M  V30 5900 C 558.491 -0.104607 -2.0223 0
M  V30 5901 C 558.819 1.26534 -1.47714 0
M  V30 5902 O 558.074 1.84855 -0.642435 0
M  V30 5903 C 558.373 -0.0167296 -3.57396 0
M  V30 5904 C 558.039 -1.32251 -4.31069 0
M  V30 5905 C 556.701 -1.68019 -4.50914 0
M  V30 5906 C 559.053 -2.18542 -4.73169 0
M  V30 5907 C 556.381 -2.89828 -5.10114 0
M  V30 5908 C 558.733 -3.39602 -5.33717 0
M  V30 5909 C 557.397 -3.7562 -5.51784 0
M  V30 5910 H 556.667 -0.0382785 -0.740011 0
M  V30 5911 H 559.314 -0.790782 -1.7441 0
M  V30 5912 H 557.619 0.752715 -3.84502 0
M  V30 5913 H 559.316 0.389634 -3.99103 0
M  V30 5914 H 555.906 -1.03411 -4.15938 0
M  V30 5915 H 560.09 -1.92208 -4.5757 0
M  V30 5916 H 555.346 -3.17839 -5.22291 0
M  V30 5917 H 559.52 -4.06716 -5.65292 0
M  V30 5918 H 557.147 -4.70093 -5.97425 0
M  V30 5919 N 558.722 1.53707 -0.348139 0
M  V30 5920 C 559.652 2.28111 0.498766 0
M  V30 5921 C 560.633 1.29851 1.09876 0
M  V30 5922 O 561.818 1.587 1.11928 0
M  V30 5923 C 558.948 3.05735 1.64753 0
M  V30 5924 C 557.902 4.11537 1.17565 0
M  V30 5925 C 557.228 4.77142 2.4133 0
M  V30 5926 C 558.528 5.21587 0.272844 0
M  V30 5927 H 560.222 2.99152 -0.121934 0
M  V30 5928 H 557.768 1.43875 -0.0600842 0
M  V30 5929 H 559.721 3.56526 2.24649 0
M  V30 5930 H 558.445 2.32354 2.2952 0
M  V30 5931 H 557.104 3.61665 0.599483 0
M  V30 5932 H 556.752 4.0035 3.04514 0
M  V30 5933 H 556.452 5.48626 2.10436 0
M  V30 5934 H 557.976 5.30719 3.01943 0
M  V30 5935 H 559.39 5.67986 0.778779 0
M  V30 5936 H 557.787 6.00074 0.0555849 0
M  V30 5937 H 558.857 4.79969 -0.689785 0
M  V30 5938 N 560.2 0.0768682 1.57412 0
M  V30 5939 C 561.148 -0.906229 2.1422 0
M  V30 5940 C 562.142 -1.30477 1.08037 0
M  V30 5941 O 563.348 -1.28143 1.2641 0
M  V30 5942 H 559.723 -0.310207 0.685037 0
M  V30 5943 H 561.694 -0.402228 2.95677 0
M  V30 5944 C 560.443 -2.16245 2.72274 0
M  V30 5945 H 559.766 -1.86463 3.53655 0
M  V30 5946 H 561.206 -2.83134 3.15613 0
M  V30 5947 C 559.665 -2.92437 1.67279 0
M  V30 5948 O 560.195 -3.86322 1.10081 0
M  V30 5949 N 558.401 -2.55637 1.38195 0
M  V30 5950 H 557.948 -1.79363 1.84897 0
M  V30 5951 H 557.906 -3.06919 0.681787 0
M  V30 5952 N 561.678 -1.56367 -0.196722 0
M  V30 5953 C 562.61 -1.90941 -1.26784 0
M  V30 5954 C 563.623 -0.799928 -1.41792 0
M  V30 5955 O 564.812 -1.07833 -1.42247 0
M  V30 5956 C 561.912 -2.12477 -2.6402 0
M  V30 5957 C 561.085 -3.43616 -2.70641 0
M  V30 5958 C 560.144 -3.54284 -3.89062 0
M  V30 5959 O 559.17 -4.2712 -3.76241 0
M  V30 5960 N 560.372 -2.87252 -5.04447 0
M  V30 5961 H 563.137 -2.83417 -0.974417 0
M  V30 5962 H 560.698 -1.57215 -0.386649 0
M  V30 5963 H 562.69 -2.16904 -3.41665 0
M  V30 5964 H 561.26 -1.26508 -2.85857 0
M  V30 5965 H 560.48 -3.51072 -1.79283 0
M  V30 5966 H 561.768 -4.29958 -2.72054 0
M  V30 5967 H 561.166 -2.27901 -5.17762 0
M  V30 5968 H 559.723 -2.97308 -5.80044 0
M  V30 5969 N 563.156 0.464375 -1.50603 0
M  V30 5970 C 564.066 1.58723 -1.72754 0
M  V30 5971 C 565.082 1.62925 -0.610844 0
M  V30 5972 O 566.258 1.8067 -0.889963 0
M  V30 5973 C 563.323 2.94897 -1.82309 0
M  V30 5974 C 562.384 3.0103 -3.06071 0
M  V30 5975 C 561.617 4.30708 -3.1516 0
M  V30 5976 O 561.84 5.2159 -2.30868 0
M  V30 5977 O 560.774 4.42571 -4.0794 0
M  V30 5978 H 564.6 1.42954 -2.67951 0
M  V30 5979 H 562.185 0.644579 -1.3478 0
M  V30 5980 H 564.067 3.75764 -1.90735 0
M  V30 5981 H 562.742 3.10851 -0.902967 0
M  V30 5982 H 561.649 2.19217 -3.03142 0
M  V30 5983 H 562.982 2.90014 -3.97684 0
M  V30 5984 N 564.634 1.40294 0.718013 0
M  V30 5985 C 565.88 1.38645 1.48005 0
M  V30 5986 C 566.213 -0.0121202 1.94196 0
M  V30 5987 O 565.488 -0.980309 1.67989 0
M  V30 5988 C 565.771 2.37379 2.70782 0
M  V30 5989 C 565.624 3.8625 2.30501 0
M  V30 5990 C 566.943 2.33685 3.72933 0
M  V30 5991 H 564.062 0.504928 0.536858 0
M  V30 5992 H 566.704 1.71411 0.819649 0
M  V30 5993 H 564.854 2.09568 3.27129 0
M  V30 5994 H 566.526 4.24879 1.79655 0
M  V30 5995 H 564.769 4.02202 1.6253 0
M  V30 5996 H 565.44 4.50847 3.18498 0
M  V30 5997 H 567.916 2.58314 3.2621 0
M  V30 5998 H 566.792 3.0482 4.56482 0
M  V30 5999 H 567.053 1.34765 4.21059 0
M  V30 6000 N 566.112 -0.949982 1.2575 0
M  V30 6001 C 567.528 -1.22191 1.02672 0
M  V30 6002 C 567.728 -1.99898 -0.253588 0
M  V30 6003 O 566.784 -2.33329 -0.965076 0
M  V30 6004 C 568.097 -1.99175 2.25277 0
M  V30 6005 C 569.645 -2.12201 2.30087 0
M  V30 6006 C 570.12 -2.92586 3.5236 0
M  V30 6007 N 571.611 -3.00163 3.52784 0
M  V30 6008 C 572.346 -3.62766 4.44059 0
M  V30 6009 N 571.842 -4.26943 5.45611 0
M  V30 6010 N 573.635 -3.59953 4.3173 0
M  V30 6011 H 565.786 -0.430258 2.07996 0
M  V30 6012 H 568.049 -0.252844 0.91366 0
M  V30 6013 H 567.755 -1.49479 3.18354 0
M  V30 6014 H 567.629 -2.99868 2.28821 0
M  V30 6015 H 570.016 -2.61093 1.3753 0
M  V30 6016 H 570.097 -1.10799 2.30559 0
M  V30 6017 H 569.741 -2.44383 4.45241 0
M  V30 6018 H 569.671 -3.94224 3.49134 0
M  V30 6019 H 572.162 -2.54529 2.79327 0
M  V30 6020 H 572.475 -4.72583 6.11461 0
M  V30 6021 H 570.82 -4.25557 5.49478 0
M  V30 6022 H 574.011 -3.09003 3.51617 0
M  V30 6023 H 574.184 -4.08455 5.03059 0
M  V30 6024 N 567.59 -1.07411 -1.15328 0
M  V30 6025 C 568.818 -0.818782 -1.90009 0
M  V30 6026 C 569.233 0.628072 -1.78047 0
M  V30 6027 O 568.59 1.43085 -1.13282 0
M  V30 6028 C 568.641 -1.21874 -3.40337 0
M  V30 6029 O 568.362 -2.60883 -3.51954 0
M  V30 6030 C 569.863 -0.992796 -4.3204 0
M  V30 6031 H 567.083 -0.296007 -0.60218 0
M  V30 6032 H 569.627 -1.43073 -1.46117 0
M  V30 6033 H 567.782 -0.651103 -3.81889 0
M  V30 6034 H 568.196 -2.77216 -4.45255 0
M  V30 6035 H 569.67 -1.32215 -5.35932 0
M  V30 6036 H 570.147 0.0708331 -4.39143 0
M  V30 6037 H 570.753 -1.54537 -3.9623 0
M  V30 6038 N 569.068 1.32177 -0.85831 0
M  V30 6039 C 569.978 2.32561 -0.308606 0
M  V30 6040 C 570.994 1.64209 0.575462 0
M  V30 6041 O 572.17 1.95719 0.474961 0
M  V30 6042 C 569.235 3.43207 0.490909 0
M  V30 6043 C 568.296 4.27243 -0.419733 0
M  V30 6044 C 567.529 5.32605 0.341719 0
M  V30 6045 O 567.752 5.48332 1.57125 0
M  V30 6046 O 566.686 6.0118 -0.294379 0
M  V30 6047 H 570.512 2.81477 -1.14037 0
M  V30 6048 H 568.097 1.35866 -0.621349 0
M  V30 6049 H 569.979 4.10677 0.944574 0
M  V30 6050 H 568.654 2.96474 1.29941 0
M  V30 6051 H 567.561 3.62569 -0.921652 0
M  V30 6052 H 568.894 4.7751 -1.19352 0
M  V30 6053 N 570.547 0.616602 1.45037 0
M  V30 6054 C 571.796 0.112861 2.01384 0
M  V30 6055 C 572.109 -1.26758 1.48969 0
M  V30 6056 O 573.315 -1.86454 1.9735 0
M  V30 6057 C 571.771 0.151057 3.59583 0
M  V30 6058 C 571.379 1.53191 4.20995 0
M  V30 6059 C 573.123 -0.296974 4.2346 0
M  V30 6060 C 571.03 1.526 5.71373 0
M  V30 6061 H 569.96 0.0384254 0.75302 0
M  V30 6062 H 572.611 0.773262 1.66412 0
M  V30 6063 H 570.993 -0.57617 3.91786 0
M  V30 6064 H 572.167 2.28156 4.00352 0
M  V30 6065 H 570.482 1.92279 3.69348 0
M  V30 6066 H 573.079 -0.320712 5.33737 0
M  V30 6067 H 573.422 -1.32145 3.9477 0
M  V30 6068 H 573.955 0.377279 3.96007 0
M  V30 6069 H 570.694 2.52837 6.04776 0
M  V30 6070 H 570.214 0.819064 5.94181 0
M  V30 6071 H 571.893 1.25357 6.3474 0
M  V30 6072 N 572.025 -1.5352 0.356285 0
M  V30 6073 C 573.25 -2.06007 -0.239961 0
M  V30 6074 C 573.675 -1.22872 -1.42422 0
M  V30 6075 O 573.033 -0.245516 -1.7963 0
M  V30 6076 C 573.081 -3.5522 -0.620587 0
M  V30 6077 O 572.185 -3.74864 -1.71902 0
M  V30 6078 H 571.526 -0.662961 -0.0371377 0
M  V30 6079 H 574.056 -1.98033 0.514194 0
M  V30 6080 H 574.066 -3.98081 -0.894197 0
M  V30 6081 H 572.741 -4.15175 0.245407 0
M  V30 6082 H 571.318 -3.43904 -1.44169 0
M  V30 6083 N 573.503 -0.0852151 -1.57369 0
M  V30 6084 C 574.919 0.271436 -1.57275 0
M  V30 6085 C 575.119 1.69109 -1.09565 0
M  V30 6086 O 574.175 2.40549 -0.767611 0
M  V30 6087 C 575.488 0.0688638 -3.00621 0
M  V30 6088 C 577.036 0.137373 -3.12698 0
M  V30 6089 C 577.511 -0.0370832 -4.57985 0
M  V30 6090 N 579.002 0.0180794 -4.63196 0
M  V30 6091 C 579.737 -0.0922953 -5.73326 0
M  V30 6092 N 579.233 -0.256948 -6.92323 0
M  V30 6093 N 581.026 -0.0342702 -5.6209 0
M  V30 6094 H 573.177 -1.01288 -1.86693 0
M  V30 6095 H 575.44 -0.396138 -0.861266 0
M  V30 6096 H 575.146 -0.911277 -3.39689 0
M  V30 6097 H 575.02 0.815442 -3.6828 0
M  V30 6098 H 577.407 1.10801 -2.73509 0
M  V30 6099 H 577.488 -0.640532 -2.47651 0
M  V30 6100 H 577.132 -1.00455 -4.97867 0
M  V30 6101 H 577.062 0.760392 -5.21081 0
M  V30 6102 H 579.553 0.143202 -3.77629 0
M  V30 6103 H 579.866 -0.332949 -7.72082 0
M  V30 6104 H 578.211 -0.292487 -6.94384 0
M  V30 6105 H 581.402 0.0931605 -4.68007 0
M  V30 6106 H 581.575 -0.12374 -6.47882 0
M  V30 6107 N 574.981 1.5647 0.188427 0
M  V30 6108 C 575.928 1.95073 1.23349 0
M  V30 6109 C 576.898 0.812238 1.44886 0
M  V30 6110 O 578.083 1.07095 1.57909 0
M  V30 6111 C 575.223 2.30124 2.57171 0
M  V30 6112 C 574.336 3.57069 2.43157 0
M  V30 6113 C 573.471 3.81411 3.69729 0
M  V30 6114 C 572.51 5.0176 3.50575 0
M  V30 6115 N 571.647 5.22321 4.69175 0
M  V30 6116 H 576.487 2.84171 0.89728 0
M  V30 6117 H 574.024 1.40623 0.431683 0
M  V30 6118 H 575.982 2.48463 3.35145 0
M  V30 6119 H 574.612 1.44159 2.88822 0
M  V30 6120 H 573.664 3.4674 1.56447 0
M  V30 6121 H 574.976 4.452 2.24942 0
M  V30 6122 H 574.13 4.00026 4.56141 0
M  V30 6123 H 572.869 2.91624 3.90905 0
M  V30 6124 H 571.874 4.83061 2.62549 0
M  V30 6125 H 573.099 5.93063 3.30837 0
M  V30 6126 H 571.045 4.35483 4.90602 0
M  V30 6127 H 570.962 6.04643 4.53809 0
M  V30 6128 H 572.23 5.45401 5.56919 0
M  V30 6129 N 576.459 -0.456382 1.50847 0
M  V30 6130 C 577.705 -1.20618 1.63777 0
M  V30 6131 C 578.06 -1.8936 0.340677 0
M  V30 6132 O 577.353 -1.79786 -0.662378 0
M  V30 6133 C 577.547 -2.26336 2.76599 0
M  V30 6134 C 577.376 -1.67968 4.17153 0
M  V30 6135 C 576.146 -1.47293 4.83356 0
M  V30 6136 C 578.344 -1.16643 5.00898 0
M  V30 6137 N 576.326 -0.843222 6.08081 0
M  V30 6138 C 577.697 -0.660843 6.16468 0
M  V30 6139 C 579.752 -1.05637 4.86565 0
M  V30 6140 C 578.455 -0.0560365 7.19278 0
M  V30 6141 C 580.481 -0.465485 5.89565 0
M  V30 6142 C 579.843 0.0296516 7.04394 0
M  V30 6143 H 575.942 -0.429725 0.653345 0
M  V30 6144 H 578.526 -0.505784 1.88016 0
M  V30 6145 H 576.697 -2.93785 2.54056 0
M  V30 6146 H 578.429 -2.9334 2.78808 0
M  V30 6147 H 575.184 -1.72934 4.40898 0
M  V30 6148 H 575.608 -0.546357 6.74792 0
M  V30 6149 H 580.25 -1.42508 3.98059 0
M  V30 6150 H 577.968 0.324845 8.07447 0
M  V30 6151 H 581.554 -0.382493 5.80541 0
M  V30 6152 H 580.434 0.479705 7.82731 0
M  V30 6153 N 577.937 -1.40673 -0.710563 0
M  V30 6154 C 578.887 -1.37812 -1.81636 0
M  V30 6155 C 579.871 -0.254853 -1.58869 0
M  V30 6156 O 581.063 -0.494356 -1.69956 0
M  V30 6157 C 578.192 -1.24802 -3.19811 0
M  V30 6158 C 577.278 -2.41931 -3.48325 0
M  V30 6159 N 577.669 -3.67411 -3.47625 0
M  V30 6160 C 575.967 -2.35419 -3.78806 0
M  V30 6161 C 576.668 -4.45008 -3.74623 0
M  V30 6162 N 575.644 -3.74916 -3.93623 0
M  V30 6163 H 579.446 -2.32766 -1.79436 0
M  V30 6164 H 576.96 -1.34516 -0.909909 0
M  V30 6165 H 578.957 -1.20835 -3.99004 0
M  V30 6166 H 577.617 -0.308202 -3.23234 0
M  V30 6167 H 578.628 -4.00503 -3.28356 0
M  V30 6168 H 575.305 -1.4983 -3.89689 0
M  V30 6169 H 576.695 -5.53884 -3.80344 0
M  V30 6170 N 579.415 0.9433 -1.26252 0
M  V30 6171 C 580.663 1.68592 -1.11451 0
M  V30 6172 C 580.984 1.91957 0.343123 0
M  V30 6173 O 580.254 1.51475 1.24226 0
M  V30 6174 H 578.834 0.624789 -0.409448 0
M  V30 6175 H 581.496 1.13351 -1.58548 0
M  V30 6176 H 580.592 2.66054 -1.63162 0
M  V30 6177 N 580.893 1.08022 1.14757 0
M  V30 6178 C 581.843 0.676345 2.17737 0
M  V30 6179 C 582.827 -0.302018 1.5804 0
M  V30 6180 O 584.019 -0.11466 1.76628 0
M  V30 6181 C 581.148 0.082984 3.432 0
M  V30 6182 C 580.234 1.0869 4.09936 0
M  V30 6183 N 580.625 2.26891 4.52055 0
M  V30 6184 C 578.923 0.921768 4.36371 0
M  V30 6185 C 579.624 2.90636 5.0389 0
M  V30 6186 N 578.6 2.18266 4.97856 0
M  V30 6187 H 582.402 1.5765 2.4804 0
M  V30 6188 H 579.916 0.954374 1.31398 0
M  V30 6189 H 581.913 -0.224289 4.16296 0
M  V30 6190 H 580.573 -0.812206 3.14378 0
M  V30 6191 H 581.584 2.6457 4.45223 0
M  V30 6192 H 578.261 0.0800499 4.17423 0
M  V30 6193 H 579.651 3.9104 5.46386 0
M  V30 6194 N 582.371 -1.3172 0.865308 0
M  V30 6195 C 583.648 -1.91574 0.394789 0
M  V30 6196 C 584.028 -1.78769 -1.12271 0
M  V30 6197 O 583.376 -1.19245 -1.94918 0
M  V30 6198 C 583.586 -3.37957 0.870982 0
M  V30 6199 C 584.934 -4.15073 0.894384 0
M  V30 6200 O 585.958 -3.4672 0.816325 0
M  V30 6201 O 584.817 -5.37151 1.00651 0
M  V30 6202 H 581.911 -0.818649 0.117229 0
M  V30 6203 H 584.457 -1.4042 0.952913 0
M  V30 6204 H 583.229 -3.41269 1.91444 0
M  V30 6205 H 582.852 -3.96534 0.290907 0
M  V30 6206 N 583.85 -0.624285 -1.44708 0
M  V30 6207 C 585.26 -0.2092 -1.85524 0
M  V30 6208 C 585.611 1.23783 -1.52225 0
M  V30 6209 O 584.736 1.94089 -0.956986 0
M  V30 6210 C 585.332 -0.372897 -3.36742 0
M  V30 6211 C 583.891 -0.012374 -3.76398 0
M  V30 6212 C 583.038 -0.68951 -2.68591 0
M  V30 6213 H 585.989 -0.829894 -1.35272 0
M  V30 6214 H 586.01 0.390134 -3.78495 0
M  V30 6215 H 585.522 -1.42615 -3.60947 0
M  V30 6216 H 583.623 1.03941 -3.57809 0
M  V30 6217 H 583.736 -0.417663 -4.77276 0
M  V30 6218 H 582.1 -0.125484 -2.54391 0
M  V30 6219 H 582.883 -1.74522 -2.9563 0
M  V30 6220 N 585.328 1.53329 -0.364422 0
M  V30 6221 C 586.238 2.29414 0.490552 0
M  V30 6222 C 587.254 1.35335 1.09363 0
M  V30 6223 O 588.43 1.68391 1.10483 0
M  V30 6224 C 585.495 3.06772 1.61529 0
M  V30 6225 C 584.556 4.16516 1.03986 0
M  V30 6226 C 583.789 4.90176 2.111 0
M  V30 6227 O 584.012 4.63687 3.32191 0
M  V30 6228 O 582.946 5.76134 1.74222 0
M  V30 6229 H 586.772 3.03428 -0.12856 0
M  V30 6230 H 584.357 1.48843 -0.128837 0
M  V30 6231 H 586.239 3.55082 2.26924 0
M  V30 6232 H 584.914 2.35596 2.21983 0
M  V30 6233 H 583.821 3.7246 0.349856 0
M  V30 6234 H 585.154 4.89855 0.4799 0
M  V30 6235 N 586.806 0.0935595 1.57322 0
M  V30 6236 C 587.736 -0.863062 2.16964 0
M  V30 6237 C 588.717 -1.29528 1.10256 0
M  V30 6238 O 589.902 -1.36245 1.38387 0
M  V30 6239 C 587.032 -2.12276 2.74875 0
M  V30 6240 C 585.986 -1.82921 3.86942 0
M  V30 6241 C 585.312 -3.15707 4.31548 0
M  V30 6242 C 586.612 -1.11737 5.10208 0
M  V30 6243 H 588.306 -0.366145 2.97153 0
M  V30 6244 H 585.852 -0.174673 1.42937 0
M  V30 6245 H 587.805 -2.79634 3.1525 0
M  V30 6246 H 586.529 -2.64248 1.91938 0
M  V30 6247 H 585.188 -1.17961 3.47103 0
M  V30 6248 H 584.836 -3.65563 3.45504 0
M  V30 6249 H 584.536 -2.96849 5.07104 0
M  V30 6250 H 586.06 -3.84226 4.74555 0
M  V30 6251 H 587.474 -1.69203 5.47762 0
M  V30 6252 H 585.871 -1.03064 5.91183 0
M  V30 6253 H 586.941 -0.0998818 4.84797 0
M  V30 6254 N 588.284 -1.56567 -0.180126 0
M  V30 6255 C 589.214 -1.98753 -1.22553 0
M  V30 6256 C 590.195 -0.86175 -1.46656 0
M  V30 6257 O 591.38 -1.12719 -1.58139 0
M  V30 6258 C 588.51 -2.33988 -2.56645 0
M  V30 6259 C 587.464 -3.49445 -2.47128 0
M  V30 6260 C 586.79 -3.70397 -3.8563 0
M  V30 6261 C 588.09 -4.83171 -1.98352 0
M  V30 6262 H 589.784 -2.86332 -0.874896 0
M  V30 6263 H 587.33 -1.37757 -0.419414 0
M  V30 6264 H 589.283 -2.62097 -3.29974 0
M  V30 6265 H 588.007 -1.43309 -2.93479 0
M  V30 6266 H 586.666 -3.2145 -1.76254 0
M  V30 6267 H 586.314 -2.77023 -4.19842 0
M  V30 6268 H 586.014 -4.48077 -3.80132 0
M  V30 6269 H 587.538 -4.00897 -4.60558 0
M  V30 6270 H 588.952 -5.10213 -2.61449 0
M  V30 6271 H 587.349 -5.64425 -2.03823 0
M  V30 6272 H 588.419 -4.75753 -0.937402 0
M  V30 6273 N 589.762 0.448376 -1.51087 0
M  V30 6274 C 591.173 1.0286 -1.5581 0
M  V30 6275 C 591.524 1.92583 -0.374989 0
M  V30 6276 O 590.649 2.10316 0.509533 0
M  V30 6277 C 591.244 1.87223 -2.8237 0
M  V30 6278 C 589.803 2.40314 -2.897 0
M  V30 6279 C 588.95 1.19238 -2.50355 0
M  V30 6280 H 591.901 0.230075 -1.57023 0
M  V30 6281 H 591.922 2.72553 -2.6551 0
M  V30 6282 H 591.434 1.21894 -3.68461 0
M  V30 6283 H 589.535 3.09129 -2.08014 0
M  V30 6284 H 589.648 2.73866 -3.93108 0
M  V30 6285 H 588.012 1.53428 -2.03303 0
M  V30 6286 H 588.795 0.555367 -3.38778 0
M  V30 6287 N 591.24 1.41047 0.703093 0
M  V30 6288 C 592.203 1.42036 1.79884 0
M  V30 6289 C 593.203 0.312153 1.57741 0
M  V30 6290 O 594.393 0.571672 1.64553 0
M  V30 6291 C 591.525 1.22437 3.18154 0
M  V30 6292 H 592.718 2.39572 1.80403 0
M  V30 6293 H 590.271 1.27079 0.909977 0
M  V30 6294 H 591.006 0.257112 3.23279 0
M  V30 6295 H 590.791 2.02723 3.35627 0
M  V30 6296 H 592.281 1.25946 3.98155 0
M  V30 6297 N 592.718 -0.936591 1.26751 0
M  V30 6298 C 593.964 -1.68625 1.13741 0
M  V30 6299 C 594.319 -1.898 -0.315221 0
M  V30 6300 O 593.612 -1.47088 -1.22783 0
M  V30 6301 C 593.806 -3.06099 1.84494 0
M  V30 6302 C 593.635 -2.98338 3.36488 0
M  V30 6303 C 592.405 -3.01104 4.05789 0
M  V30 6304 C 594.603 -2.78128 4.32608 0
M  V30 6305 N 592.585 -2.8369 5.4442 0
M  V30 6306 C 593.956 -2.69329 5.58446 0
M  V30 6307 C 596.011 -2.62946 4.22804 0
M  V30 6308 C 594.714 -2.46899 6.75598 0
M  V30 6309 C 596.74 -2.41892 5.39669 0
M  V30 6310 C 596.102 -2.33829 6.64457 0
M  V30 6311 H 592.201 -0.624227 0.471025 0
M  V30 6312 H 594.785 -1.10798 1.601 0
M  V30 6313 H 592.956 -3.62057 1.40604 0
M  V30 6314 H 594.688 -3.69951 1.64067 0
M  V30 6315 H 591.443 -3.10992 3.57185 0
M  V30 6316 H 591.867 -2.78138 6.17226 0
M  V30 6317 H 596.509 -2.67944 3.27056 0
M  V30 6318 H 594.227 -2.40642 7.71438 0
M  V30 6319 H 597.813 -2.31043 5.33957 0
M  V30 6320 H 596.693 -2.17754 7.53361 0
M  V30 6321 N 594.196 -1.08629 -1.14182 0
M  V30 6322 C 595.612 -0.814363 -1.3726 0
M  V30 6323 C 595.812 0.575271 -1.93114 0
M  V30 6324 O 594.868 1.33165 -2.1453 0
M  V30 6325 C 596.181 -1.8989 -2.33157 0
M  V30 6326 C 597.729 -1.92518 -2.46791 0
M  V30 6327 C 598.204 -3.00092 -3.45989 0
M  V30 6328 N 599.695 -2.99279 -3.53534 0
M  V30 6329 C 600.43 -3.79158 -4.30147 0
M  V30 6330 N 599.926 -4.68923 -5.09983 0
M  V30 6331 N 601.719 -3.67451 -4.25366 0
M  V30 6332 H 593.87 -1.98232 -0.762758 0
M  V30 6333 H 596.133 -0.860383 -0.398051 0
M  V30 6334 H 595.839 -2.89809 -1.99257 0
M  V30 6335 H 595.713 -1.77013 -3.33086 0
M  V30 6336 H 598.1 -0.932425 -2.79982 0
M  V30 6337 H 598.181 -2.09473 -1.46816 0
M  V30 6338 H 597.825 -3.99575 -3.13532 0
M  V30 6339 H 597.755 -2.80382 -4.45751 0
M  V30 6340 H 600.246 -2.3422 -2.96563 0
M  V30 6341 H 600.559 -5.26475 -5.65724 0
M  V30 6342 H 598.904 -4.72964 -5.09244 0
M  V30 6343 H 602.095 -2.9669 -3.62067 0
M  V30 6344 H 602.268 -4.29944 -4.84822 0
M  V30 6345 N 595.674 1.31259 -0.872281 0
M  V30 6346 C 596.902 2.00795 -0.498907 0
M  V30 6347 C 597.317 1.65464 0.909238 0
M  V30 6348 O 596.674 0.885073 1.59602 0
M  V30 6349 C 596.725 3.55625 -0.649092 0
M  V30 6350 O 596.446 3.89692 -2.00179 0
M  V30 6351 C 597.947 4.42434 -0.277034 0
M  V30 6352 H 595.167 0.642299 -0.194145 0
M  V30 6353 H 597.711 1.67438 -1.17408 0
M  V30 6354 H 595.866 3.87394 -0.0214402 0
M  V30 6355 H 596.28 4.84407 -2.01122 0
M  V30 6356 H 597.754 5.50299 -0.433064 0
M  V30 6357 H 598.231 4.32146 0.783989 0
M  V30 6358 H 598.837 4.16086 -0.880483 0
M  V30 6359 N 597.152 0.631951 1.44375 0
M  V30 6360 C 598.568 0.297642 1.568 0
M  V30 6361 C 598.768 -1.19916 1.61934 0
M  V30 6362 O 597.824 -1.98324 1.56281 0
M  V30 6363 C 599.137 0.990286 2.83926 0
M  V30 6364 C 600.685 0.968507 2.97639 0
M  V30 6365 C 601.16 1.64163 4.27568 0
M  V30 6366 N 602.651 1.60826 4.34384 0
M  V30 6367 C 603.386 2.09802 5.33639 0
M  V30 6368 N 602.882 2.66973 6.39294 0
M  V30 6369 N 604.675 2.00426 5.25153 0
M  V30 6370 H 596.826 1.60353 1.39286 0
M  V30 6371 H 599.089 0.673142 0.667521 0
M  V30 6372 H 598.795 2.04519 2.8612 0
M  V30 6373 H 598.669 0.528563 3.73478 0
M  V30 6374 H 601.056 -0.0779247 2.94997 0
M  V30 6375 H 601.137 1.46873 2.09433 0
M  V30 6376 H 600.781 2.68752 4.3097 0
M  V30 6377 H 600.711 1.11624 5.14634 0
M  V30 6378 H 603.202 1.19087 3.58646 0
M  V30 6379 H 603.515 3.02074 7.11316 0
M  V30 6380 H 601.86 2.71024 6.39977 0
M  V30 6381 H 605.051 1.55483 4.41523 0
M  V30 6382 H 605.224 2.38906 6.02352 0
M  V30 6383 N 598.631 -1.53133 0.372548 0
M  V30 6384 C 599.594 -2.24569 -0.458389 0
M  V30 6385 C 600.594 -1.25603 -1.00402 0
M  V30 6386 O 601.784 -1.49827 -0.888672 0
M  V30 6387 C 598.916 -2.98783 -1.6414 0
M  V30 6388 H 600.109 -2.99436 0.166799 0
M  V30 6389 H 597.662 -1.55805 0.124357 0
M  V30 6390 H 598.397 -2.28176 -2.30448 0
M  V30 6391 H 598.182 -3.71404 -1.25704 0
M  V30 6392 H 599.672 -3.53068 -2.23008 0
M  V30 6393 N 600.109 -0.101901 -1.5727 0
M  V30 6394 C 601.056 0.854577 -2.14396 0
M  V30 6395 C 602.026 1.27521 -1.06432 0
M  V30 6396 O 603.211 1.35575 -1.34253 0
M  V30 6397 C 600.351 2.10576 -2.73408 0
M  V30 6398 C 599.464 1.73504 -3.95626 0
M  V30 6399 C 598.599 2.9346 -4.42781 0
M  V30 6400 C 597.638 2.52547 -5.57572 0
M  V30 6401 N 596.775 3.65359 -5.99547 0
M  V30 6402 H 601.615 0.360578 -2.9581 0
M  V30 6403 H 599.152 0.166303 -1.46157 0
M  V30 6404 H 601.11 2.83859 -3.05745 0
M  V30 6405 H 599.74 2.57463 -1.94711 0
M  V30 6406 H 598.792 0.901622 -3.6956 0
M  V30 6407 H 600.104 1.39426 -4.78917 0
M  V30 6408 H 599.258 3.74988 -4.76937 0
M  V30 6409 H 597.997 3.30753 -3.58404 0
M  V30 6410 H 597.002 1.69446 -5.23037 0
M  V30 6411 H 598.227 2.1639 -6.43702 0
M  V30 6412 H 596.173 4.02358 -5.18116 0
M  V30 6413 H 596.09 3.35148 -6.77652 0
M  V30 6414 H 597.358 4.47378 -6.38336 0
M  V30 6415 N 601.587 1.56661 0.17182 0
M  V30 6416 C 602.833 1.8313 0.88516 0
M  V30 6417 C 603.188 0.682376 1.79893 0
M  V30 6418 O 602.481 -0.321215 1.88888 0
M  V30 6419 C 602.675 3.13435 1.71736 0
M  V30 6420 C 602.504 4.40892 0.885659 0
M  V30 6421 C 601.274 5.02177 0.560939 0
M  V30 6422 C 603.472 5.13797 0.227454 0
M  V30 6423 N 601.454 6.13229 -0.286953 0
M  V30 6424 C 602.825 6.18127 -0.481625 0
M  V30 6425 C 604.88 4.97687 0.145567 0
M  V30 6426 C 603.583 7.08092 -1.26482 0
M  V30 6427 C 605.609 5.88096 -0.624298 0
M  V30 6428 C 604.971 6.91888 -1.32174 0
M  V30 6429 H 601.07 0.721107 0.302536 0
M  V30 6430 H 603.654 1.94104 0.152178 0
M  V30 6431 H 601.825 3.03653 2.42176 0
M  V30 6432 H 603.557 3.27903 2.37196 0
M  V30 6433 H 600.312 4.65145 0.890902 0
M  V30 6434 H 600.736 6.73359 -0.701193 0
M  V30 6435 H 605.378 4.17451 0.670426 0
M  V30 6436 H 603.096 7.87774 -1.80103 0
M  V30 6437 H 606.682 5.77702 -0.689321 0
M  V30 6438 H 605.562 7.60637 -1.90791 0
M  V30 6439 N 603.065 -0.440357 1.51323 0
M  V30 6440 C 604.293 -1.21255 1.67645 0
M  V30 6441 C 604.708 -1.85088 0.37252 0
M  V30 6442 O 604.065 -1.70582 -0.648683 0
M  V30 6443 C 604.116 -2.29881 2.78993 0
M  V30 6444 O 603.837 -1.68659 4.04334 0
M  V30 6445 C 605.338 -3.20214 3.06558 0
M  V30 6446 H 602.558 -0.36558 0.562666 0
M  V30 6447 H 605.102 -0.52214 1.97722 0
M  V30 6448 H 603.257 -2.94643 2.51524 0
M  V30 6449 H 603.671 -2.40426 4.6615 0
M  V30 6450 H 605.145 -3.92575 3.88058 0
M  V30 6451 H 605.622 -3.80794 2.18844 0
M  V30 6452 H 606.228 -2.61156 3.35675 0
M  V30 6453 N 604.543 -1.41418 -0.695603 0
M  V30 6454 C 605.771 -1.4413 -1.48439 0
M  V30 6455 C 606.186 -0.0465698 -1.88743 0
M  V30 6456 O 605.543 0.934117 -1.56782 0
M  V30 6457 C 605.594 -2.34998 -2.74696 0
M  V30 6458 O 605.315 -3.69043 -2.36091 0
M  V30 6459 C 606.816 -2.46513 -3.68438 0
M  V30 6460 H 604.036 -0.490905 -0.457442 0
M  V30 6461 H 606.58 -1.85702 -0.856454 0
M  V30 6462 H 604.735 -1.96735 -3.33728 0
M  V30 6463 H 605.149 -4.17505 -3.17474 0
M  V30 6464 H 606.623 -3.1426 -4.53811 0
M  V30 6465 H 607.1 -1.49638 -4.12922 0
M  V30 6466 H 607.706 -2.85412 -3.1531 0
M  V30 6467 N 606.021 0.929856 -1.27246 0
M  V30 6468 C 607.432 1.49223 -1.12203 0
M  V30 6469 C 607.783 1.93989 0.293731 0
M  V30 6470 O 606.908 1.80978 1.18642 0
M  V30 6471 C 607.503 2.71198 -2.0307 0
M  V30 6472 C 606.062 3.23666 -1.92139 0
M  V30 6473 C 605.209 1.96409 -1.95752 0
M  V30 6474 H 608.16 0.744181 -1.4017 0
M  V30 6475 H 608.181 3.45905 -1.58524 0
M  V30 6476 H 607.693 2.38585 -3.06102 0
M  V30 6477 H 605.794 3.61042 -0.920834 0
M  V30 6478 H 605.907 3.90006 -2.78267 0
M  V30 6479 H 604.271 2.12806 -1.39949 0
M  V30 6480 H 605.054 1.66113 -3.00436 0
M  V30 6481 N 607.499 1.09233 1.13605 0
M  V30 6482 C 608.724 0.849067 1.89224 0
M  V30 6483 C 609.149 -0.593875 1.78479 0
M  V30 6484 O 608.507 -1.41703 1.13092 0
M  V30 6485 C 608.555 1.28642 3.36873 0
M  V30 6486 O 607.659 0.44363 4.10007 0
M  V30 6487 H 607 0.30767 0.588417 0
M  V30 6488 H 609.53 1.45595 1.43748 0
M  V30 6489 H 609.54 1.27096 3.87699 0
M  V30 6490 H 608.215 2.33729 3.44011 0
M  V30 6491 H 606.792 0.523241 3.69211 0
M  V30 6492 N 608.977 -1.30795 0.87923 0
M  V30 6493 C 610.393 -1.48981 0.57243 0
M  V30 6494 C 610.593 -1.80719 -0.891236 0
M  V30 6495 O 609.649 -1.89136 -1.67283 0
M  V30 6496 C 610.962 -2.61721 1.48063 0
M  V30 6497 C 612.51 -2.75603 1.48365 0
M  V30 6498 C 612.985 -3.91449 2.37763 0
M  V30 6499 N 614.476 -3.98751 2.35695 0
M  V30 6500 C 615.211 -4.87684 3.01583 0
M  V30 6501 N 614.707 -5.81454 3.76674 0
M  V30 6502 N 616.5 -4.81005 2.90844 0
M  V30 6503 H 608.651 -1.08465 1.82617 0
M  V30 6504 H 610.914 -0.536813 0.781368 0
M  V30 6505 H 610.62 -2.45073 2.52254 0
M  V30 6506 H 610.494 -3.58071 1.18596 0
M  V30 6507 H 612.881 -2.9166 0.44927 0
M  V30 6508 H 612.962 -1.79891 1.81859 0
M  V30 6509 H 612.606 -3.76149 3.41283 0
M  V30 6510 H 612.536 -4.86487 2.01589 0
M  V30 6511 H 615.027 -3.31668 1.81121 0
M  V30 6512 H 615.34 -6.46063 4.24054 0
M  V30 6513 H 613.685 -5.81403 3.80782 0
M  V30 6514 H 616.876 -4.06728 2.31711 0
M  V30 6515 H 617.049 -5.50107 3.42471 0
M  V30 6516 N 610.455 -0.639598 -1.44038 0
M  V30 6517 C 611.68 -0.153117 -2.06834 0
M  V30 6518 C 612.105 1.16676 -1.47541 0
M  V30 6519 O 611.463 1.71769 -0.580093 0
M  V30 6520 C 611.511 -0.0609169 -3.60549 0
M  V30 6521 O 610.615 0.98071 -4.00569 0
M  V30 6522 H 609.956 -0.0886402 -0.658057 0
M  V30 6523 H 612.486 -0.878674 -1.84771 0
M  V30 6524 H 612.496 0.126892 -4.07803 0
M  V30 6525 H 611.171 -1.0245 -4.03084 0
M  V30 6526 H 609.748 0.766789 -3.64931 0
M  V30 6527 N 611.933 1.52934 -0.380664 0
M  V30 6528 C 612.896 2.24809 0.446473 0
M  V30 6529 C 613.896 1.26133 0.997347 0
M  V30 6530 O 615.086 1.50297 0.880714 0
M  V30 6531 C 612.218 2.99649 1.62553 0
M  V30 6532 H 613.411 2.99343 -0.182677 0
M  V30 6533 H 610.964 1.55736 -0.132618 0
M  V30 6534 H 611.699 2.29395 2.29235 0
M  V30 6535 H 611.484 3.72066 1.23732 0
M  V30 6536 H 612.974 3.54246 2.21133 0
M  V30 6537 N 613.412 0.11024 1.57214 0
M  V30 6538 C 614.375 -0.828808 2.1369 0
M  V30 6539 C 615.375 -1.20059 1.06969 0
M  V30 6540 O 616.565 -1.12754 1.32786 0
M  V30 6541 C 613.697 -2.11959 2.66994 0
M  V30 6542 H 614.89 -0.338146 2.97988 0
M  V30 6543 H 612.443 -0.138913 1.55681 0
M  V30 6544 H 613.178 -2.65476 1.8626 0
M  V30 6545 H 612.963 -1.86258 3.45037 0
M  V30 6546 H 614.453 -2.79105 3.10629 0
M  V30 6547 N 614.89 -1.56749 -0.16351 0
M  V30 6548 C 615.837 -1.97011 -1.2023 0
M  V30 6549 C 616.807 -0.835186 -1.43575 0
M  V30 6550 O 617.992 -1.09594 -1.56185 0
M  V30 6551 C 615.132 -2.34186 -2.53478 0
M  V30 6552 C 614.245 -3.60893 -2.37446 0
M  V30 6553 C 613.38 -3.87245 -3.63614 0
M  V30 6554 C 612.419 -5.07274 -3.42548 0
M  V30 6555 N 611.556 -5.29719 -4.60806 0
M  V30 6556 H 616.396 -2.85562 -0.851958 0
M  V30 6557 H 613.933 -1.41292 -0.409257 0
M  V30 6558 H 615.891 -2.53764 -3.31149 0
M  V30 6559 H 614.521 -1.48736 -2.86492 0
M  V30 6560 H 613.573 -3.49185 -1.50911 0
M  V30 6561 H 614.885 -4.48722 -2.1783 0
M  V30 6562 H 614.039 -4.07232 -4.49719 0
M  V30 6563 H 612.778 -2.97806 -3.86216 0
M  V30 6564 H 611.783 -4.87177 -2.5483 0
M  V30 6565 H 613.008 -5.98251 -3.2136 0
M  V30 6566 H 610.954 -4.43233 -4.83612 0
M  V30 6567 H 610.871 -6.11786 -4.44132 0
M  V30 6568 H 612.139 -5.54192 -5.48171 0
M  V30 6569 N 616.368 0.432326 -1.51554 0
M  V30 6570 C 617.614 1.18309 -1.64714 0
M  V30 6571 C 617.947 1.90745 -0.364696 0
M  V30 6572 O 617.222 1.8381 0.635936 0
M  V30 6573 C 617.505 2.1961 -2.85383 0
M  V30 6574 C 617.358 1.51223 -4.23617 0
M  V30 6575 C 618.677 3.20538 -3.01569 0
M  V30 6576 H 615.796 0.428751 -0.599451 0
M  V30 6577 H 618.438 0.471689 -1.84052 0
M  V30 6578 H 616.588 2.8028 -2.69027 0
M  V30 6579 H 618.26 0.938516 -4.51652 0
M  V30 6580 H 616.503 0.814501 -4.26085 0
M  V30 6581 H 617.174 2.25024 -5.04052 0
M  V30 6582 H 619.65 2.69926 -3.16669 0
M  V30 6583 H 618.526 3.88706 -3.87555 0
M  V30 6584 H 618.787 3.86933 -2.13859 0
M  V30 6585 N 617.846 1.41785 0.688094 0
M  V30 6586 C 618.776 1.47 1.8142 0
M  V30 6587 C 619.757 0.327881 1.6691 0
M  V30 6588 O 620.942 0.540362 1.86531 0
M  V30 6589 C 618.072 1.35876 3.19617 0
M  V30 6590 C 617.026 2.47976 3.48844 0
M  V30 6591 C 616.352 2.21915 4.86475 0
M  V30 6592 C 617.652 3.90309 3.47068 0
M  V30 6593 H 619.346 2.41247 1.77314 0
M  V30 6594 H 616.892 1.16116 0.851651 0
M  V30 6595 H 618.845 1.38134 3.98117 0
M  V30 6596 H 617.569 0.38116 3.24368 0
M  V30 6597 H 616.228 2.45013 2.72698 0
M  V30 6598 H 615.876 1.2248 4.8786 0
M  V30 6599 H 615.576 2.97037 5.06994 0
M  V30 6600 H 617.1 2.25901 5.67275 0
M  V30 6601 H 618.514 3.94947 4.1556 0
M  V30 6602 H 616.911 4.65175 3.7912 0
M  V30 6603 H 617.981 4.17927 2.45896 0
M  V30 6604 N 619.324 -0.923095 1.27737 0
M  V30 6605 C 620.552 -1.70525 1.17171 0
M  V30 6606 C 620.967 -1.86847 -0.270881 0
M  V30 6607 O 620.324 -1.38879 -1.18401 0
M  V30 6608 C 620.375 -3.10242 1.85559 0
M  V30 6609 O 620.096 -2.94683 3.24182 0
M  V30 6610 C 621.597 -4.04586 1.81176 0
M  V30 6611 H 618.817 -0.533347 0.407163 0
M  V30 6612 H 621.361 -1.15599 1.68692 0
M  V30 6613 H 619.516 -3.62014 1.3793 0
M  V30 6614 H 619.93 -3.83045 3.58297 0
M  V30 6615 H 621.404 -5.00119 2.33633 0
M  V30 6616 H 621.881 -4.3218 0.782099 0
M  V30 6617 H 622.487 -3.58741 2.2844 0
M  V30 6618 N 620.802 -1.09834 -1.13024 0
M  V30 6619 C 622.027 -0.85909 -1.88771 0
M  V30 6620 C 622.452 0.584402 -1.78791 0
M  V30 6621 O 621.81 1.41101 -1.13842 0
M  V30 6622 C 621.858 -1.30427 -3.36186 0
M  V30 6623 O 620.962 -0.465368 -4.09766 0
M  V30 6624 H 620.303 -0.310786 -0.586778 0
M  V30 6625 H 622.833 -1.46355 -1.42973 0
M  V30 6626 H 622.843 -1.2915 -3.8702 0
M  V30 6627 H 621.518 -2.3555 -3.42767 0
M  V30 6628 H 620.095 -0.542814 -3.68928 0
M  V30 6629 N 622.28 1.30327 -0.886154 0
M  V30 6630 C 623.213 2.26241 -0.298407 0
M  V30 6631 C 624.191 1.51839 0.581704 0
M  V30 6632 O 625.375 1.80851 0.531536 0
M  V30 6633 C 622.502 3.33768 0.575888 0
M  V30 6634 C 621.548 4.25852 -0.235057 0
M  V30 6635 S 622.381 5.10277 -1.62411 0
M  V30 6636 C 623.537 6.21313 -0.756368 0
M  V30 6637 H 623.77 2.75744 -1.11141 0
M  V30 6638 H 621.303 1.38341 -0.685651 0
M  V30 6639 H 623.261 3.96186 1.07458 0
M  V30 6640 H 621.922 2.82986 1.363 0
M  V30 6641 H 621.115 5.02143 0.432198 0
M  V30 6642 H 620.717 3.68015 -0.666409 0
M  V30 6643 H 623.009 6.77495 0.0261451 0
M  V30 6644 H 623.952 6.92226 -1.49093 0
M  V30 6645 H 624.36 5.63611 -0.316749 0
M  V30 6646 N 623.758 0.647228 1.43697 0
M  V30 6647 C 624.998 0.16171 2.03759 0
M  V30 6648 C 625.362 -1.19951 1.49919 0
M  V30 6649 O 626.563 -1.77808 2.01588 0
M  V30 6650 C 624.834 0.16505 3.57019 0
M  V30 6651 S 626.393 -0.253497 4.38067 0
M  V30 6652 H 623.211 0.0689985 0.707644 0
M  V30 6653 H 625.813 0.854224 1.7585 0
M  V30 6654 H 624.517 1.15858 3.93707 0
M  V30 6655 H 624.048 -0.548194 3.89562 0
M  V30 6656 H 626.063 -1.49385 4.73179 0
M  V30 6657 O 625.275 -1.52523 0.530952 0
M  V30 6658 H 625.966 -1.93688 0.0212942 0
M  V30 END ATOM
M  V30 BEGIN BOND
M  V30 END BOND
M  V30 END CTAB
M  END
$$$$
