drugbank_target|Q02760 Cytochrome c1 (DB03152; DB08690)
 OpenBabel12092120433D

  0  0  0     0  0            999 V3000
M  V30 BEGIN CTAB
M  V30 COUNTS 4231 4287 0 0 0
M  V30 BEGIN ATOM
M  V30 1 H -0.908 1.98254 -0.117106 0
M  V30 2 N 0 1.576 0 0
M  V30 3 C 0.933 2.03868 1.02534 0
M  V30 4 C 1.911 0.928543 1.3348 0
M  V30 5 O 3.095 1.19667 1.45644 0
M  V30 6 C 0.222 2.43627 2.35294 0
M  V30 7 C -0.732 3.65373 2.2001 0
M  V30 8 S 0.101 5.13292 1.52614 0
M  V30 9 C 1.257 5.56322 2.86805 0
M  V30 10 H 1.49 2.90518 0.631377 0
M  V30 11 H -0.977 1.52953 0.210867 0
M  V30 12 H 0.981 2.67203 3.11629 0
M  V30 13 H -0.358 1.57376 2.7183 0
M  V30 14 H -1.165 3.90944 3.18086 0
M  V30 15 H -1.563 3.418 1.51819 0
M  V30 16 H 0.729 5.58782 3.83104 0
M  V30 17 H 1.672 6.56266 2.65933 0
M  V30 18 H 2.08 4.83886 2.90714 0
M  V30 19 N 1.4781 -0.272755 1.55222 0
M  V30 20 C 2.7271 -1.00211 1.75045 0
M  V30 21 C 3.0401 -1.87441 0.559046 0
M  V30 22 O 4.2461 -2.63856 0.639698 0
M  V30 23 C 2.7021 -1.83165 3.09804 0
M  V30 24 C 2.3101 -1.008 4.36513 0
M  V30 25 C 4.0541 -2.55529 3.38977 0
M  V30 26 C 1.9611 -1.83194 5.62311 0
M  V30 27 H 0.8911 -0.377878 0.652476 0
M  V30 28 H 3.5421 -0.257776 1.8168 0
M  V30 29 H 1.9241 -2.61694 2.97207 0
M  V30 30 H 3.0981 -0.266855 4.60027 0
M  V30 31 H 1.4131 -0.398897 4.14485 0
M  V30 32 H 4.0101 -3.17578 4.30172 0
M  V30 33 H 4.3531 -3.25825 2.59121 0
M  V30 34 H 4.8861 -1.84029 3.52673 0
M  V30 35 H 1.6251 -1.17318 6.44916 0
M  V30 36 H 1.1451 -2.54905 5.4294 0
M  V30 37 H 2.8241 -2.40552 6.00619 0
M  V30 38 N 2.9562 -1.48159 -0.537278 0
M  V30 39 C 4.3722 -1.34118 -0.865129 0
M  V30 40 C 4.5722 -0.346678 -1.98495 0
M  V30 41 O 3.6282 0.234715 -2.51407 0
M  V30 42 C 4.9412 -2.73963 -1.23954 0
M  V30 43 C 6.4892 -2.82397 -1.34984 0
M  V30 44 C 6.9642 -4.22928 -1.75772 0
M  V30 45 N 8.4552 -4.25566 -1.82887 0
M  V30 46 C 9.1902 -5.31235 -2.15817 0
M  V30 47 N 8.6862 -6.47189 -2.47222 0
M  V30 48 N 10.4792 -5.18624 -2.16761 0
M  V30 49 H 2.6302 -2.1144 0.201715 0
M  V30 50 H 4.8932 -0.947598 0.0275949 0
M  V30 51 H 4.5992 -3.48264 -0.490381 0
M  V30 52 H 4.4732 -3.0702 -2.19132 0
M  V30 53 H 6.8602 -2.08356 -2.08978 0
M  V30 54 H 6.9412 -2.5297 -0.379448 0
M  V30 55 H 6.5852 -4.97482 -1.02341 0
M  V30 56 H 6.5152 -4.49794 -2.73848 0
M  V30 57 H 9.0062 -3.41924 -1.60924 0
M  V30 58 H 9.3192 -7.23564 -2.71433 0
M  V30 59 H 7.6642 -6.50476 -2.44757 0
M  V30 60 H 10.8552 -4.27056 -1.91679 0
M  V30 61 H 11.0282 -6.01078 -2.42093 0
M  V30 62 N 4.4343 0.785586 -1.36625 0
M  V30 63 C 5.3813 1.89838 -1.31264 0
M  V30 64 C 6.3513 1.65115 -0.180633 0
M  V30 65 O 7.5363 1.87222 -0.36777 0
M  V30 66 C 4.6763 3.26706 -1.11163 0
M  V30 67 C 3.7893 3.63476 -2.33472 0
M  V30 68 C 2.9243 4.89481 -2.06353 0
M  V30 69 C 1.9633 5.18941 -3.24602 0
M  V30 70 N 1.1003 6.36131 -2.97123 0
M  V30 71 H 5.9403 1.93756 -2.26413 0
M  V30 72 H 3.4773 0.947454 -1.12524 0
M  V30 73 H 5.4353 4.05639 -0.975337 0
M  V30 74 H 4.0653 3.222 -0.196674 0
M  V30 75 H 3.1173 2.79636 -2.57891 0
M  V30 76 H 4.4293 3.81193 -3.21704 0
M  V30 77 H 3.5833 5.76288 -1.89675 0
M  V30 78 H 2.3223 4.73841 -1.15437 0
M  V30 79 H 1.3273 4.30615 -3.41834 0
M  V30 80 H 2.5523 5.36498 -4.16349 0
M  V30 81 H 0.4983 6.21875 -2.08823 0
M  V30 82 H 0.4153 6.54198 -3.78894 0
M  V30 83 H 1.6833 7.2591 -2.84033 0
M  V30 84 N 5.9124 1.20967 1.01018 0
M  V30 85 C 6.8424 0.988272 2.11555 0
M  V30 86 C 7.8234 -0.0849778 1.69888 0
M  V30 87 O 9.0084 0.0738202 1.9406 0
M  V30 88 C 6.1384 0.546528 3.42973 0
M  V30 89 C 5.0924 1.56375 3.9841 0
M  V30 90 C 4.4184 0.97842 5.25672 0
M  V30 91 C 5.7184 2.94922 4.31066 0
M  V30 92 H 7.4124 1.91276 2.30334 0
M  V30 93 H 4.9584 0.921073 1.1069 0
M  V30 94 H 6.9114 0.378839 4.19694 0
M  V30 95 H 5.6354 -0.413598 3.23971 0
M  V30 96 H 4.2944 1.71891 3.23804 0
M  V30 97 H 3.9424 0.0101688 5.02999 0
M  V30 98 H 3.6424 1.65784 5.63728 0
M  V30 99 H 5.1664 0.821939 6.05043 0
M  V30 100 H 6.5804 2.8288 4.9865 0
M  V30 101 H 4.9774 3.5983 4.80253 0
M  V30 102 H 6.0474 3.4616 3.39561 0
M  V30 103 N 7.3905 -1.2043 1.01659 0
M  V30 104 C 8.6185 -1.93777 0.725132 0
M  V30 105 C 9.0335 -1.74772 -0.714166 0
M  V30 106 O 8.3905 -1.06169 -1.4844 0
M  V30 107 C 8.4415 -3.45876 1.05129 0
M  V30 108 O 8.1625 -3.6426 2.43406 0
M  V30 109 C 9.6635 -4.36368 0.780891 0
M  V30 110 H 6.8835 -0.615901 0.266284 0
M  V30 111 H 9.4275 -1.52922 1.35776 0
M  V30 112 H 7.5825 -3.8461 0.464065 0
M  V30 113 H 7.9965 -4.58246 2.55169 0
M  V30 114 H 9.4705 -5.41743 1.05918 0
M  V30 115 H 9.9475 -4.38275 -0.284937 0
M  V30 116 H 10.5535 -4.03296 1.35027 0
M  V30 117 N 8.8686 -0.792821 -1.36206 0
M  V30 118 C 9.7986 -0.207853 -2.32573 0
M  V30 119 C 10.7796 0.659055 -1.56813 0
M  V30 120 O 11.9646 0.592176 -1.84951 0
M  V30 121 C 9.0946 0.655449 -3.41059 0
M  V30 122 C 8.0486 -0.111842 -4.27854 0
M  V30 123 C 7.3746 0.872274 -5.27537 0
M  V30 124 C 8.6746 -1.30299 -5.05786 0
M  V30 125 H 10.3686 -1.01294 -2.81744 0
M  V30 126 H 7.9146 -0.48854 -1.3546 0
M  V30 127 H 9.8676 1.07464 -4.07467 0
M  V30 128 H 8.5916 1.49328 -2.90463 0
M  V30 129 H 7.2506 -0.512053 -3.63006 0
M  V30 130 H 6.8986 1.70523 -4.73214 0
M  V30 131 H 6.5986 0.363291 -5.86476 0
M  V30 132 H 8.1226 1.28996 -5.96818 0
M  V30 133 H 9.5366 -0.959379 -5.65216 0
M  V30 134 H 7.9336 -1.7455 -5.74154 0
M  V30 135 H 9.0036 -2.09663 -4.37229 0
M  V30 136 N 10.3467 1.47872 -0.545128 0
M  V30 137 C 11.5747 2.06889 -0.021084 0
M  V30 138 C 11.9897 1.39955 1.2672 0
M  V30 139 O 11.3467 0.492036 1.75742 0
M  V30 140 C 11.3977 3.60996 0.190817 0
M  V30 141 O 11.1187 4.25419 -1.04644 0
M  V30 142 C 12.6197 4.36849 0.753521 0
M  V30 143 H 9.8397 0.669785 -0.0403635 0
M  V30 144 H 12.3837 1.90049 -0.755095 0
M  V30 145 H 10.5387 3.77391 0.87492 0
M  V30 146 H 10.9527 5.17785 -0.836611 0
M  V30 147 H 12.4267 5.45399 0.851139 0
M  V30 148 H 12.9037 4.02306 1.762 0
M  V30 149 H 13.5097 4.25169 0.105503 0
M  V30 150 N 11.8248 0.280983 1.55075 0
M  V30 151 C 12.7878 -0.590896 2.21452 0
M  V30 152 C 13.7878 -1.07682 1.19421 0
M  V30 153 O 14.9778 -0.97605 1.44288 0
M  V30 154 C 12.1098 -1.81587 2.88511 0
M  V30 155 H 13.3028 -0.0112554 2.99898 0
M  V30 156 H 10.8558 0.0316438 1.56268 0
M  V30 157 H 11.5908 -2.43587 2.14093 0
M  V30 158 H 11.3758 -1.4753 3.63287 0
M  V30 159 H 12.8658 -2.43575 3.39206 0
M  V30 160 N 13.3029 -1.57598 0.00835791 0
M  V30 161 C 14.2659 -2.07884 -0.965242 0
M  V30 162 C 15.2659 -0.989825 -1.26725 0
M  V30 163 O 16.4559 -1.25218 -1.21104 0
M  V30 164 C 13.5879 -2.52731 -2.28779 0
M  V30 165 H 14.7809 -2.95178 -0.530112 0
M  V30 166 H 12.3339 -1.54458 -0.239283 0
M  V30 167 H 13.0689 -1.68705 -2.76964 0
M  V30 168 H 12.8539 -3.32272 -2.08177 0
M  V30 169 H 14.3439 -2.91933 -2.98605 0
M  V30 170 N 14.781 0.264519 -1.55364 0
M  V30 171 C 16.009 1.013 -1.80405 0
M  V30 172 C 16.424 1.79618 -0.581622 0
M  V30 173 O 15.781 1.76879 0.449468 0
M  V30 174 C 15.832 1.96487 -3.03439 0
M  V30 175 O 15.553 1.21341 -4.20961 0
M  V30 176 C 17.054 2.83079 -3.41147 0
M  V30 177 H 14.274 0.298875 -0.600762 0
M  V30 178 H 16.818 0.292736 -2.02394 0
M  V30 179 H 14.973 2.63965 -2.83551 0
M  V30 180 H 15.387 1.85573 -4.90574 0
M  V30 181 H 16.861 3.4565 -4.30384 0
M  V30 182 H 17.338 3.53286 -2.60932 0
M  V30 183 H 17.944 2.2108 -3.63323 0
M  V30 184 N 16.2591 1.48442 0.529413 0
M  V30 185 C 17.2221 1.62524 1.61612 0
M  V30 186 C 18.2221 0.498509 1.52877 0
M  V30 187 O 19.4121 0.76431 1.56537 0
M  V30 188 C 16.5441 1.59597 3.01233 0
M  V30 189 H 17.7371 2.59423 1.50465 0
M  V30 190 H 15.2901 1.37047 0.751514 0
M  V30 191 H 16.0251 0.641781 3.17886 0
M  V30 192 H 15.8101 2.41397 3.08982 0
M  V30 193 H 17.3001 1.72646 3.80241 0
M  V30 194 N 17.7372 -0.778329 1.37039 0
M  V30 195 C 18.6672 -1.90546 1.34962 0
M  V30 196 C 19.6482 -1.68681 0.219274 0
M  V30 197 O 20.8332 -1.89634 0.418624 0
M  V30 198 C 17.9632 -3.27734 1.14925 0
M  V30 199 C 16.9172 -3.64147 2.24902 0
M  V30 200 C 16.2432 -4.99806 1.89996 0
M  V30 201 C 17.5432 -3.71579 3.67051 0
M  V30 202 H 19.2372 -1.92541 2.29277 0
M  V30 203 H 16.7832 -0.924948 1.10366 0
M  V30 204 H 18.7362 -4.06215 1.12104 0
M  V30 205 H 17.4602 -3.26154 0.170631 0
M  V30 206 H 16.1192 -2.8797 2.26868 0
M  V30 207 H 15.7672 -4.94759 0.906796 0
M  V30 208 H 15.4672 -5.25139 2.63634 0
M  V30 209 H 16.9912 -5.80694 1.88749 0
M  V30 210 H 18.4052 -4.40227 3.67251 0
M  V30 211 H 16.8022 -4.08405 4.39688 0
M  V30 212 H 17.8722 -2.72404 4.01154 0
M  V30 213 N 19.2153 -1.21501 -1.00376 0
M  V30 214 C 20.1783 -0.976927 -2.07337 0
M  V30 215 C 21.1783 0.0525322 -1.60714 0
M  V30 216 O 22.3683 -0.184869 -1.73216 0
M  V30 217 C 19.5003 -0.473423 -3.37597 0
M  V30 218 H 20.6933 -1.92587 -2.29892 0
M  V30 219 H 18.2463 -1.03217 -1.17371 0
M  V30 220 H 18.9813 0.480379 -3.20722 0
M  V30 221 H 18.7663 -1.216 -3.72768 0
M  V30 222 H 20.2563 -0.32675 -4.1632 0
M  V30 223 N 20.6934 1.19889 -1.02296 0
M  V30 224 C 21.6234 2.25141 -0.619174 0
M  V30 225 C 22.6044 1.66051 0.368915 0
M  V30 226 O 23.7894 1.92546 0.252941 0
M  V30 227 C 20.9194 3.4728 0.0368783 0
M  V30 228 C 19.8734 4.19005 -0.872865 0
M  V30 229 C 19.1994 5.34637 -0.0822402 0
M  V30 230 C 20.4994 4.74452 -2.18387 0
M  V30 231 H 22.1934 2.59171 -1.49903 0
M  V30 232 H 19.7394 1.24579 -0.722222 0
M  V30 233 H 21.6924 4.20098 0.330958 0
M  V30 234 H 20.4164 3.12433 0.95149 0
M  V30 235 H 19.0754 3.48061 -1.15105 0
M  V30 236 H 18.7234 4.96034 0.83422 0
M  V30 237 H 18.4234 5.83557 -0.688149 0
M  V30 238 H 19.9474 6.10255 0.205238 0
M  V30 239 H 21.3614 5.39055 -1.95172 0
M  V30 240 H 19.7584 5.33834 -2.74119 0
M  V30 241 H 20.8284 3.92844 -2.84257 0
M  V30 242 N 22.1715 0.800033 1.35784 0
M  V30 243 C 23.3965 0.388511 2.03729 0
M  V30 244 C 23.8215 -0.990481 1.5991 0
M  V30 245 O 23.1795 -1.64013 0.772612 0
M  V30 246 C 23.2275 0.4726 3.5749 0
M  V30 247 O 22.3315 -0.51646 4.09153 0
M  V30 248 H 21.6725 0.163271 0.643614 0
M  V30 249 H 24.2025 1.0841 1.73518 0
M  V30 250 H 24.2125 0.34003 4.06581 0
M  V30 251 H 22.8875 1.47848 3.88734 0
M  V30 252 H 21.4645 -0.344673 3.71304 0
M  V30 253 N 23.6496 -1.47581 0.552962 0
M  V30 254 C 24.8976 -2.02082 0.0272703 0
M  V30 255 C 25.2186 -1.4301 -1.32563 0
M  V30 256 O 24.4886 -0.603745 -1.86365 0
M  V30 257 H 23.0686 -0.746966 0.00709182 0
M  V30 258 H 25.7306 -1.81033 0.722008 0
M  V30 259 H 24.8266 -3.12034 -0.0639951 0
M  V30 260 N 25.1277 -0.289203 -1.54924 0
M  V30 261 C 26.3757 0.322879 -1.99504 0
M  V30 262 C 26.6967 1.55313 -1.1791 0
M  V30 263 O 25.9667 1.94001 -0.272097 0
M  V30 264 H 24.5467 0.122291 -0.736922 0
M  V30 265 H 27.2087 -0.397802 -1.90797 0
M  V30 266 H 26.3047 0.603061 -3.06218 0
M  V30 267 N 26.6058 1.57591 -0.0167156 0
M  V30 268 C 27.5688 2.08393 0.954204 0
M  V30 269 C 28.5688 0.996531 1.26198 0
M  V30 270 O 29.7588 1.25858 1.20438 0
M  V30 271 C 26.8908 2.5394 2.27436 0
M  V30 272 H 28.0838 2.95455 0.514451 0
M  V30 273 H 25.6368 1.54582 0.231089 0
M  V30 274 H 26.3718 1.70171 2.76066 0
M  V30 275 H 26.1568 3.33371 2.06412 0
M  V30 276 H 27.6468 2.93512 2.97053 0
M  V30 277 N 28.0839 -0.256276 1.55502 0
M  V30 278 C 29.0469 -1.30047 1.88734 0
M  V30 279 C 30.0469 -1.4154 0.763086 0
M  V30 280 O 31.2369 -1.40403 1.03115 0
M  V30 281 C 28.3689 -2.67953 2.10747 0
M  V30 282 H 29.5619 -1.01802 2.82093 0
M  V30 283 H 27.1149 -0.495134 1.4825 0
M  V30 284 H 27.8499 -3.01351 1.19825 0
M  V30 285 H 27.6349 -2.60993 2.92617 0
M  V30 286 H 29.1249 -3.43368 2.37673 0
M  V30 287 N 29.562 -1.4872 -0.521534 0
M  V30 288 C 30.495 -1.58451 -1.64221 0
M  V30 289 C 31.473 -0.434513 -1.56687 0
M  V30 290 O 32.657 -0.647275 -1.77038 0
M  V30 291 C 29.784 -1.52037 -3.02659 0
M  V30 292 C 28.83 -2.71981 -3.28525 0
M  V30 293 S 29.663 -4.33869 -3.13876 0
M  V30 294 C 30.819 -4.30067 -4.54745 0
M  V30 295 H 31.052 -2.53256 -1.55719 0
M  V30 296 H 28.585 -1.37358 -0.705143 0
M  V30 297 H 30.543 -1.49023 -3.82495 0
M  V30 298 H 29.204 -0.585541 -3.08594 0
M  V30 299 H 28.397 -2.63656 -4.29536 0
M  V30 300 H 27.999 -2.72302 -2.56374 0
M  V30 301 H 30.291 -4.00521 -5.46433 0
M  V30 302 H 31.234 -5.31287 -4.68123 0
M  V30 303 H 31.642 -3.60419 -4.34463 0
M  V30 304 N 31.0401 0.771051 -1.3745 0
M  V30 305 C 32.0031 1.86598 -1.33093 0
M  V30 306 C 33.0031 1.59076 -0.234845 0
M  V30 307 O 34.1931 1.67145 -0.490732 0
M  V30 308 C 31.3251 3.23747 -1.06773 0
M  V30 309 H 32.5181 1.91873 -2.30488 0
M  V30 310 H 30.0711 0.970876 -1.2249 0
M  V30 311 H 30.8061 3.24148 -0.099129 0
M  V30 312 H 30.5911 3.45115 -1.86112 0
M  V30 313 H 32.0811 4.03824 -1.06377 0
M  V30 314 N 32.5182 1.22032 0.997298 0
M  V30 315 C 33.4812 0.987909 2.06816 0
M  V30 316 C 34.4812 -0.0440084 1.6074 0
M  V30 317 O 35.6712 0.194053 1.73116 0
M  V30 318 C 32.8032 0.49132 3.37341 0
M  V30 319 H 33.9962 1.93803 2.28868 0
M  V30 320 H 31.5492 1.03838 1.16822 0
M  V30 321 H 32.2842 -0.463364 3.20973 0
M  V30 322 H 32.0692 1.23575 3.72118 0
M  V30 323 H 33.5592 0.348824 4.16141 0
M  V30 324 N 33.9963 -1.19345 1.0293 0
M  V30 325 C 35.2443 -1.88665 0.724574 0
M  V30 326 C 35.5653 -1.80036 -0.749144 0
M  V30 327 O 34.8353 -1.2111 -1.53978 0
M  V30 328 H 33.4153 -0.698406 0.265025 0
M  V30 329 H 36.0773 -1.44885 1.30362 0
M  V30 330 H 35.1733 -2.94987 1.01926 0
M  V30 331 N 35.4744 -0.807222 -1.35358 0
M  V30 332 C 36.7224 -0.387122 -1.98358 0
M  V30 333 C 37.0434 1.04942 -1.64354 0
M  V30 334 O 36.3134 1.72615 -0.926339 0
M  V30 335 H 34.8934 -0.140154 -0.733734 0
M  V30 336 H 37.5554 -1.0332 -1.6526 0
M  V30 337 H 36.6514 -0.493352 -3.08176 0
M  V30 338 N 36.9525 1.47285 -0.560781 0
M  V30 339 C 38.2005 2.02064 -0.0379868 0
M  V30 340 C 38.5215 1.43711 1.31803 0
M  V30 341 O 37.7915 0.61362 1.86042 0
M  V30 342 H 36.3715 0.746918 -0.0110531 0
M  V30 343 H 39.0335 1.80648 -0.731598 0
M  V30 344 H 38.1295 3.12064 0.0474463 0
M  V30 345 N 38.4306 0.297415 1.54768 0
M  V30 346 C 39.3806 -0.595275 2.20092 0
M  V30 347 C 40.3646 -1.10163 1.17273 0
M  V30 348 O 41.5566 -1.043 1.43006 0
M  V30 349 C 38.6856 -1.7684 2.94249 0
M  V30 350 C 37.7716 -1.27818 4.0438 0
M  V30 351 N 38.1626 -0.505695 5.03266 0
M  V30 352 C 36.4606 -1.55923 4.17857 0
M  V30 353 C 37.1616 -0.245094 5.81183 0
M  V30 354 N 36.1376 -0.823881 5.3732 0
M  V30 355 H 39.9396 0.00250837 2.939 0
M  V30 356 H 37.4536 0.102007 1.62079 0
M  V30 357 H 39.4506 -2.41944 3.39513 0
M  V30 358 H 38.1106 -2.36992 2.21957 0
M  V30 359 H 39.1216 -0.150928 5.1768 0
M  V30 360 H 35.7986 -2.16849 3.56767 0
M  V30 361 H 37.1886 0.375084 6.70852 0
M  V30 362 N 39.9087 -1.5758 0.0250728 0
M  V30 363 C 41.1547 -1.91917 -0.655413 0
M  V30 364 C 41.4877 -0.901433 -1.72011 0
M  V30 365 O 40.7627 0.0764069 -1.9435 0
M  V30 366 C 41.0457 -3.36751 -1.27558 0
M  V30 367 C 40.8987 -4.49258 -0.220719 0
M  V30 368 C 42.2177 -3.81469 -2.19475 0
M  V30 369 H 39.3367 -0.697925 -0.23679 0
M  V30 370 H 41.9787 -1.89825 0.0815036 0
M  V30 371 H 40.1287 -3.38664 -1.90365 0
M  V30 372 H 41.8007 -4.59478 0.409601 0
M  V30 373 H 40.0437 -4.31415 0.454264 0
M  V30 374 H 40.7147 -5.47618 -0.694175 0
M  V30 375 H 43.1907 -3.81266 -1.66659 0
M  V30 376 H 42.0667 -4.83512 -2.59822 0
M  V30 377 H 42.3277 -3.16744 -3.08424 0
M  V30 378 N 41.3868 0.248026 -1.55636 0
M  V30 379 C 42.2968 1.32859 -1.93354 0
M  V30 380 C 43.3128 1.52719 -0.833838 0
M  V30 381 O 44.4888 1.66363 -1.13513 0
M  V30 382 C 41.5538 2.66337 -2.21958 0
M  V30 383 C 40.6148 2.55008 -3.45354 0
M  V30 384 C 39.8478 3.82121 -3.72584 0
M  V30 385 O 40.0708 4.83951 -3.01907 0
M  V30 386 O 39.0048 3.80822 -4.6611 0
M  V30 387 H 42.8308 1.03862 -2.85388 0
M  V30 388 H 40.4158 0.448686 -1.42503 0
M  V30 389 H 42.2978 3.45216 -2.4167 0
M  V30 390 H 40.9728 2.95068 -1.33103 0
M  V30 391 H 39.8798 1.7442 -3.30951 0
M  V30 392 H 41.2128 2.31222 -4.34508 0
M  V30 393 N 42.8649 1.48995 0.513639 0
M  V30 394 C 44.1419 1.48338 1.27495 0
M  V30 395 C 44.5219 0.204065 2.10111 0
M  V30 396 O 43.8699 -0.813881 2.13514 0
M  V30 397 C 44.0799 2.75498 2.14247 0
M  V30 398 C 45.4279 3.24484 2.73852 0
M  V30 399 O 46.4519 2.76528 2.24523 0
M  V30 400 O 45.3109 4.07974 3.6362 0
M  V30 401 H 42.4049 0.593149 0.576284 0
M  V30 402 H 44.9509 1.61246 0.528948 0
M  V30 403 H 43.7229 3.60109 1.53092 0
M  V30 404 H 43.3459 2.6539 2.96064 0
M  V30 405 N 44.343 -0.763751 1.37857 0
M  V30 406 C 45.589 -1.52483 1.33704 0
M  V30 407 C 45.922 -1.94051 -0.0759612 0
M  V30 408 O 45.197 -1.64675 -1.03501 0
M  V30 409 C 45.48 -2.78441 2.28348 0
M  V30 410 C 45.333 -2.43075 3.78463 0
M  V30 411 C 46.652 -3.80415 2.21298 0
M  V30 412 H 43.771 -0.553169 0.487005 0
M  V30 413 H 46.413 -0.875562 1.68624 0
M  V30 414 H 44.563 -3.33842 1.987 0
M  V30 415 H 46.235 -1.93527 4.18742 0
M  V30 416 H 44.478 -1.75666 3.96641 0
M  V30 417 H 45.149 -3.33149 4.40132 0
M  V30 418 H 47.625 -3.34527 2.47449 0
M  V30 419 H 46.501 -4.66257 2.89647 0
M  V30 420 H 46.762 -4.25262 1.20849 0
M  V30 421 N 45.8211 -1.22559 -0.990812 0
M  V30 422 C 47.2321 -1.04791 -1.54518 0
M  V30 423 C 47.5831 0.387998 -1.92325 0
M  V30 424 O 46.7081 1.27328 -1.74976 0
M  V30 425 C 47.3031 -1.896 -2.80779 0
M  V30 426 C 45.8621 -1.76124 -3.32652 0
M  V30 427 C 45.0091 -1.8594 -2.05722 0
M  V30 428 H 47.9601 -1.36374 -0.811662 0
M  V30 429 H 47.9811 -1.41464 -3.53225 0
M  V30 430 H 47.4931 -2.94101 -2.53231 0
M  V30 431 H 45.5941 -0.743643 -3.65104 0
M  V30 432 H 45.7071 -2.58913 -4.03114 0
M  V30 433 H 44.0711 -1.29403 -2.19379 0
M  V30 434 H 44.8541 -2.91976 -1.80568 0
M  V30 435 N 47.2992 1.18797 -1.03562 0
M  V30 436 C 48.5462 1.8865 -0.736023 0
M  V30 437 C 48.8742 1.80041 0.735889 0
M  V30 438 O 48.1292 1.19179 1.55225 0
M  V30 439 C 48.4282 3.38692 -1.14117 0
M  V30 440 C 48.0942 3.67504 -2.6125 0
M  V30 441 C 46.7562 3.75078 -3.01447 0
M  V30 442 C 49.1082 3.80293 -3.56408 0
M  V30 443 C 46.4362 3.92915 -4.35701 0
M  V30 444 C 48.7882 3.99645 -4.90374 0
M  V30 445 C 47.4522 4.05453 -5.30249 0
M  V30 446 H 46.7222 0.690321 -0.26933 0
M  V30 447 H 49.3692 1.40641 -1.29971 0
M  V30 448 H 47.6742 3.88645 -0.496202 0
M  V30 449 H 49.3712 3.91072 -0.886789 0
M  V30 450 H 45.9612 3.62223 -2.29113 0
M  V30 451 H 50.1452 3.73779 -3.26501 0
M  V30 452 H 45.4012 3.95653 -4.66121 0
M  V30 453 H 49.5752 4.08482 -5.64017 0
M  V30 454 H 47.2022 4.19027 -6.34288 0
M  V30 455 N 48.7773 0.814389 1.34928 0
M  V30 456 C 50.0023 0.410097 2.03305 0
M  V30 457 C 50.4273 -0.973464 1.60951 0
M  V30 458 O 49.7853 -1.63185 0.789964 0
M  V30 459 C 49.8333 0.51049 3.56968 0
M  V30 460 O 48.9373 -0.473035 4.09678 0
M  V30 461 H 48.2783 0.170088 0.641846 0
M  V30 462 H 50.8083 1.10244 1.72358 0
M  V30 463 H 50.8183 0.383135 4.06197 0
M  V30 464 H 49.4933 1.51963 3.87144 0
M  V30 465 H 48.0703 -0.305272 3.71648 0
M  V30 466 N 50.2554 -1.46986 0.568584 0
M  V30 467 C 51.5024 -2.02441 0.0487986 0
M  V30 468 C 51.8304 -1.44169 -1.30559 0
M  V30 469 O 51.0854 -0.591213 -1.86556 0
M  V30 470 C 51.3844 -3.57306 -0.081836 0
M  V30 471 C 51.0504 -4.34552 1.20313 0
M  V30 472 C 49.7124 -4.55376 1.5552 0
M  V30 473 C 52.0644 -4.79016 2.05411 0
M  V30 474 C 49.3924 -5.17913 2.7565 0
M  V30 475 C 51.7444 -5.42879 3.24754 0
M  V30 476 C 50.4084 -5.61933 3.60261 0
M  V30 477 H 49.6784 -0.740785 0.0178567 0
M  V30 478 H 52.3254 -1.76525 0.742384 0
M  V30 479 H 50.6304 -3.8228 -0.858463 0
M  V30 480 H 52.3274 -3.97876 -0.499546 0
M  V30 481 H 48.9174 -4.18631 0.919014 0
M  V30 482 H 53.1014 -4.62696 1.79516 0
M  V30 483 H 48.3574 -5.30858 3.03315 0
M  V30 484 H 52.5314 -5.76293 3.90973 0
M  V30 485 H 50.1584 -6.10161 4.53439 0
M  V30 486 N 51.7335 -0.305618 -1.54608 0
M  V30 487 C 52.6435 0.57778 -2.27374 0
M  V30 488 C 53.6595 1.14451 -1.31061 0
M  V30 489 O 54.8355 1.16831 -1.6405 0
M  V30 490 C 51.9005 1.73123 -3.00382 0
M  V30 491 C 50.9615 1.19812 -4.12242 0
M  V30 492 C 50.1945 2.2966 -4.81759 0
M  V30 493 O 50.4175 3.49651 -4.50666 0
M  V30 494 O 49.3515 1.96091 -5.69062 0
M  V30 495 H 53.1775 -0.012624 -3.03697 0
M  V30 496 H 50.7625 -0.0719184 -1.49227 0
M  V30 497 H 52.6445 2.40315 -3.4616 0
M  V30 498 H 51.3195 2.30815 -2.26949 0
M  V30 499 H 50.2265 0.491798 -3.70853 0
M  V30 500 H 51.5595 0.666566 -4.87666 0
M  V30 501 N 53.2116 1.57565 -0.0334293 0
M  V30 502 C 54.4596 1.91598 0.642999 0
M  V30 503 C 54.7806 0.910847 1.7242 0
M  V30 504 O 54.0506 -0.0469931 1.95844 0
M  V30 505 H 52.6306 0.707228 0.240496 0
M  V30 506 H 55.2926 1.94726 -0.0822488 0
M  V30 507 H 54.3886 2.92336 1.09298 0
M  V30 508 N 54.6897 -0.239769 1.55765 0
M  V30 509 C 56.1007 -0.808263 1.68297 0
M  V30 510 C 56.4517 -1.85736 0.632181 0
M  V30 511 O 55.5767 -2.15277 -0.220204 0
M  V30 512 C 56.1717 -1.47284 3.05111 0
M  V30 513 C 54.7307 -1.98895 3.19559 0
M  V30 514 C 53.8777 -0.842575 2.64189 0
M  V30 515 H 56.8287 -0.0154422 1.58692 0
M  V30 516 H 56.8497 -2.34111 2.99954 0
M  V30 517 H 56.3617 -0.709053 3.81568 0
M  V30 518 H 54.4627 -2.78132 2.47938 0
M  V30 519 H 54.5757 -2.18143 4.26556 0
M  V30 520 H 52.9397 -1.24501 2.22197 0
M  V30 521 H 53.7227 -0.0917552 3.43177 0
M  V30 522 N 56.1678 -1.49265 -0.50573 0
M  V30 523 C 57.4148 -1.58513 -1.26015 0
M  V30 524 C 57.7428 -0.26972 -1.92621 0
M  V30 525 O 56.9978 0.741997 -1.81088 0
M  V30 526 C 57.2968 -2.69008 -2.35308 0
M  V30 527 C 56.9628 -4.10662 -1.86192 0
M  V30 528 C 55.6248 -4.49212 -1.72516 0
M  V30 529 C 57.9768 -4.99336 -1.49375 0
M  V30 530 C 55.3048 -5.74214 -1.20394 0
M  V30 531 C 57.6568 -6.24852 -0.987072 0
M  V30 532 C 56.3208 -6.62236 -0.836669 0
M  V30 533 H 55.5908 -0.580041 -0.461122 0
M  V30 534 H 58.2378 -1.83078 -0.561665 0
M  V30 535 H 56.5428 -2.38396 -3.10926 0
M  V30 536 H 58.2398 -2.73373 -2.93374 0
M  V30 537 H 54.8298 -3.8023 -1.97795 0
M  V30 538 H 59.0138 -4.70212 -1.5879 0
M  V30 539 H 54.2698 -6.01883 -1.07458 0
M  V30 540 H 58.4438 -6.92944 -0.692983 0
M  V30 541 H 56.0708 -7.58979 -0.430607 0
M  V30 542 N 57.6459 0.756429 -1.3826 0
M  V30 543 C 58.8939 1.51248 -1.34047 0
M  V30 544 C 59.2149 1.94875 0.0698372 0
M  V30 545 O 58.4849 1.67436 1.01696 0
M  V30 546 H 57.0649 0.561018 -0.493222 0
M  V30 547 H 59.7269 0.899347 -1.7291 0
M  V30 548 H 58.8229 2.40472 -1.98947 0
M  V30 549 N 59.124 1.23083 0.984299 0
M  V30 550 C 60.352 1.08714 1.76037 0
M  V30 551 C 60.767 -0.361691 1.85303 0
M  V30 552 O 60.124 -1.25034 1.32939 0
M  V30 553 C 60.175 1.70206 3.18923 0
M  V30 554 O 59.896 3.09423 3.10144 0
M  V30 555 C 61.397 1.61227 4.12941 0
M  V30 556 H 58.617 0.380664 0.552572 0
M  V30 557 H 61.161 1.62853 1.23689 0
M  V30 558 H 59.316 1.20109 3.6831 0
M  V30 559 H 59.73 3.39188 4.00065 0
M  V30 560 H 61.204 2.08962 5.10919 0
M  V30 561 H 61.681 0.570375 4.35481 0
M  V30 562 H 62.287 2.10671 3.69456 0
M  V30 563 N 60.6021 -1.18246 1.0419 0
M  V30 564 C 61.8491 -1.88257 0.746017 0
M  V30 565 C 62.1771 -1.80429 -0.726331 0
M  V30 566 O 61.4321 -1.2 -1.54591 0
M  V30 567 C 61.7311 -3.38082 1.15911 0
M  V30 568 C 61.3971 -3.66114 2.63195 0
M  V30 569 C 60.0591 -3.73474 3.03432 0
M  V30 570 C 62.4111 -3.78398 3.5842 0
M  V30 571 C 59.7391 -3.90599 4.37778 0
M  V30 572 C 62.0911 -3.97039 4.92487 0
M  V30 573 C 60.7551 -4.02635 5.32392 0
M  V30 574 H 60.0251 -0.688883 0.272987 0
M  V30 575 H 62.6721 -1.3995 1.30715 0
M  V30 576 H 60.9771 -3.88377 0.516806 0
M  V30 577 H 62.6741 -3.90596 0.907516 0
M  V30 578 H 59.2641 -3.61003 2.3103 0
M  V30 579 H 63.4481 -3.72042 3.28479 0
M  V30 580 H 58.7041 -3.93175 4.68213 0
M  V30 581 H 62.8781 -4.05486 5.66175 0
M  V30 582 H 60.5051 -4.15657 6.36501 0
M  V30 583 N 62.0802 -0.821533 -1.34494 0
M  V30 584 C 63.3572 -0.33159 -1.92769 0
M  V30 585 C 63.7372 1.18088 -1.74981 0
M  V30 586 O 63.0852 1.98733 -1.12772 0
M  V30 587 C 63.2952 -0.759398 -3.40638 0
M  V30 588 C 64.6432 -0.757433 -4.1779 0
M  V30 589 O 65.6672 -0.70189 -3.49216 0
M  V30 590 O 64.5262 -0.829361 -5.4017 0
M  V30 591 H 61.6202 -0.0902502 -0.822061 0
M  V30 592 H 64.1662 -0.906231 -1.43477 0
M  V30 593 H 62.9382 -1.8012 -3.47379 0
M  V30 594 H 62.5612 -0.160378 -3.97276 0
M  V30 595 N 63.5583 1.46682 -0.576371 0
M  V30 596 C 64.4903 2.28341 0.198231 0
M  V30 597 C 65.5033 1.38141 0.861453 0
M  V30 598 O 66.6923 1.62797 0.732082 0
M  V30 599 C 63.7923 3.12986 1.29972 0
M  V30 600 C 62.9653 4.31271 0.729639 0
M  V30 601 C 62.0243 4.97363 1.71803 0
M  V30 602 O 61.0503 5.55156 1.25658 0
M  V30 603 N 62.2523 4.93796 3.05198 0
M  V30 604 H 65.0173 2.9546 -0.502324 0
M  V30 605 H 62.5783 1.56525 -0.413715 0
M  V30 606 H 64.5703 3.54066 1.96008 0
M  V30 607 H 63.1403 2.47984 1.90323 0
M  V30 608 H 62.3603 3.94052 -0.108012 0
M  V30 609 H 63.6483 5.07739 0.328438 0
M  V30 610 H 63.0463 4.48077 3.45317 0
M  V30 611 H 61.6033 5.38837 3.6674 0
M  V30 612 N 65.0364 0.313813 1.54444 0
M  V30 613 C 65.9864 -0.571898 2.20711 0
M  V30 614 C 66.9704 -1.08913 1.18435 0
M  V30 615 O 68.1624 -1.02777 1.44104 0
M  V30 616 C 65.2914 -1.7371 2.96108 0
M  V30 617 C 64.3774 -1.23522 4.05713 0
M  V30 618 N 64.7684 -0.452288 5.03774 0
M  V30 619 C 63.0664 -1.51482 4.19487 0
M  V30 620 C 63.7674 -0.183438 5.81411 0
M  V30 621 N 62.7434 -0.766845 5.38164 0
M  V30 622 H 66.5454 0.0336802 2.93881 0
M  V30 623 H 64.0594 0.119192 1.61962 0
M  V30 624 H 66.0564 -2.38329 3.4206 0
M  V30 625 H 64.7164 -2.34625 2.24458 0
M  V30 626 H 65.7274 -0.0960131 5.17811 0
M  V30 627 H 62.4044 -2.13053 3.59047 0
M  V30 628 H 63.7944 0.446216 6.70417 0
M  V30 629 N 66.5145 -1.57545 0.0417849 0
M  V30 630 C 67.4465 -2.07904 -0.964799 0
M  V30 631 C 68.4595 -1.00497 -1.28079 0
M  V30 632 O 69.6485 -1.28087 -1.24322 0
M  V30 633 C 66.7485 -2.49928 -2.28887 0
M  V30 634 C 65.9215 -3.80562 -2.15619 0
M  V30 635 C 64.9805 -4.08999 -3.31069 0
M  V30 636 O 64.0065 -4.79061 -3.0739 0
M  V30 637 N 65.2085 -3.6017 -4.55256 0
M  V30 638 H 67.9735 -2.94886 -0.535029 0
M  V30 639 H 65.5345 -1.61252 -0.144681 0
M  V30 640 H 67.5265 -2.66034 -3.04972 0
M  V30 641 H 66.0965 -1.68245 -2.63463 0
M  V30 642 H 65.3165 -3.74129 -1.24183 0
M  V30 643 H 66.6045 -4.66126 -2.03971 0
M  V30 644 H 66.0025 -3.03512 -4.77386 0
M  V30 645 H 64.5595 -3.81532 -5.28466 0
M  V30 646 N 67.9926 0.231505 -1.5589 0
M  V30 647 C 68.9226 1.29022 -1.94617 0
M  V30 648 C 69.9036 1.4941 -0.813067 0
M  V30 649 O 71.0886 1.6176 -1.07459 0
M  V30 650 C 68.2186 2.64199 -2.25424 0
M  V30 651 C 67.1726 2.58484 -3.41131 0
M  V30 652 C 66.4986 3.97599 -3.57518 0
M  V30 653 C 67.7986 2.1413 -4.76388 0
M  V30 654 H 69.4926 0.968563 -2.83301 0
M  V30 655 H 67.0386 0.464479 -1.36303 0
M  V30 656 H 68.9916 3.38413 -2.51107 0
M  V30 657 H 67.7156 2.98032 -1.33583 0
M  V30 658 H 66.3746 1.86727 -3.15481 0
M  V30 659 H 66.0226 4.28723 -2.6307 0
M  V30 660 H 65.7226 3.94659 -4.35337 0
M  V30 661 H 67.2466 4.7349 -3.85538 0
M  V30 662 H 68.6606 2.78083 -5.01341 0
M  V30 663 H 67.0576 2.2227 -5.57419 0
M  V30 664 H 68.1276 1.09331 -4.72414 0
M  V30 665 N 69.4707 1.49531 0.497807 0
M  V30 666 C 70.4027 1.62559 1.61578 0
M  V30 667 C 71.4157 0.508134 1.54667 0
M  V30 668 O 72.6047 0.780309 1.60541 0
M  V30 669 C 69.7047 1.56925 3.00379 0
M  V30 670 C 68.8777 2.84257 3.3244 0
M  V30 671 C 67.9367 2.71632 4.50669 0
M  V30 672 O 66.9627 3.4557 4.52294 0
M  V30 673 N 68.1647 1.83391 5.5077 0
M  V30 674 H 70.9297 2.58981 1.50828 0
M  V30 675 H 68.4907 1.4666 0.685743 0
M  V30 676 H 70.4827 1.46129 3.77397 0
M  V30 677 H 69.0527 0.683483 3.05037 0
M  V30 678 H 68.2727 3.09381 2.44289 0
M  V30 679 H 69.5607 3.68666 3.5066 0
M  V30 680 H 68.9587 1.22583 5.52259 0
M  V30 681 H 67.5157 1.78515 6.26878 0
M  V30 682 N 70.9488 -0.749086 1.3866 0
M  V30 683 C 72.3648 -1.05276 1.19955 0
M  V30 684 C 72.5648 -2.01435 0.05134 0
M  V30 685 O 71.6208 -2.45232 -0.60147 0
M  V30 686 C 72.9338 -1.62853 2.52783 0
M  V30 687 C 74.4818 -1.75002 2.59506 0
M  V30 688 C 74.9568 -2.35991 3.92521 0
M  V30 689 N 76.4478 -2.43416 3.94085 0
M  V30 690 C 77.1828 -2.91511 4.9377 0
M  V30 691 N 76.6788 -3.39608 6.03853 0
M  V30 692 N 78.4718 -2.90592 4.81157 0
M  V30 693 H 70.6228 -0.111066 2.12109 0
M  V30 694 H 72.8858 -0.111901 0.941373 0
M  V30 695 H 72.5918 -0.99664 3.37283 0
M  V30 696 H 72.4658 -2.61854 2.715 0
M  V30 697 H 74.8528 -2.37317 1.75398 0
M  V30 698 H 74.9338 -0.74693 2.44652 0
M  V30 699 H 74.5778 -1.74308 4.77053 0
M  V30 700 H 74.5078 -3.3695 4.04688 0
M  V30 701 H 76.9988 -2.09405 3.14576 0
M  V30 702 H 77.3118 -3.74775 6.75843 0
M  V30 703 H 75.6568 -3.37653 6.07466 0
M  V30 704 H 78.8478 -2.52332 3.94267 0
M  V30 705 H 79.0208 -3.27762 5.58996 0
M  V30 706 N 72.4269 -1.23603 -0.977757 0
M  V30 707 C 73.6749 -1.06759 -1.71601 0
M  V30 708 C 73.9959 0.395929 -1.90938 0
M  V30 709 O 73.2659 1.28356 -1.47992 0
M  V30 710 H 71.8459 -0.392062 -0.635843 0
M  V30 711 H 74.5079 -1.55362 -1.1768 0
M  V30 712 H 73.6039 -1.55763 -2.70452 0
M  V30 713 N 73.905 1.17692 -1.04816 0
M  V30 714 C 74.835 2.23777 -0.666791 0
M  V30 715 C 75.816 1.66796 0.33361 0
M  V30 716 O 77.001 1.93039 0.212042 0
M  V30 717 C 74.131 3.47281 -0.0367933 0
M  V30 718 C 73.085 4.17059 -0.961546 0
M  V30 719 C 72.411 5.34342 -0.195626 0
M  V30 720 C 73.711 4.69713 -2.28402 0
M  V30 721 H 75.405 2.55933 -1.55367 0
M  V30 722 H 72.951 1.23019 -0.748484 0
M  V30 723 H 74.904 4.20706 0.241775 0
M  V30 724 H 73.628 3.14381 0.885004 0
M  V30 725 H 72.287 3.45541 -1.22462 0
M  V30 726 H 71.935 4.97692 0.728816 0
M  V30 727 H 71.635 5.81966 -0.811775 0
M  V30 728 H 73.159 6.10553 0.0757473 0
M  V30 729 H 74.573 5.34794 -2.06563 0
M  V30 730 H 72.97 5.279 -2.8538 0
M  V30 731 H 74.04 3.86726 -2.92525 0
M  V30 732 N 75.3831 0.828654 1.34056 0
M  V30 733 C 76.3151 0.212052 2.28217 0
M  V30 734 C 77.3281 -0.601362 1.51286 0
M  V30 735 O 78.5171 -0.430104 1.73241 0
M  V30 736 C 75.6171 -0.72088 3.31144 0
M  V30 737 C 74.7901 0.0509587 4.3737 0
M  V30 738 C 73.8491 -0.803766 5.20025 0
M  V30 739 O 72.8751 -0.246667 5.68665 0
M  V30 740 N 74.0771 -2.1227 5.40298 0
M  V30 741 H 76.8421 1.02105 2.81771 0
M  V30 742 H 74.4031 0.686153 1.46641 0
M  V30 743 H 76.3951 -1.29742 3.8334 0
M  V30 744 H 74.9651 -1.43061 2.77943 0
M  V30 745 H 74.1851 0.808831 3.85813 0
M  V30 746 H 75.4731 0.582065 5.0546 0
M  V30 747 H 74.8711 -2.59898 5.02464 0
M  V30 748 H 73.4281 -2.64796 5.95589 0
M  V30 749 N 76.8612 -1.46375 0.584142 0
M  V30 750 C 78.1072 -2.02678 0.0703716 0
M  V30 751 C 78.4402 -1.4545 -1.28678 0
M  V30 752 O 77.7152 -0.62014 -1.84349 0
M  V30 753 C 77.9982 -3.60099 0.00614674 0
M  V30 754 C 77.8512 -4.27709 1.3923 0
M  V30 755 C 79.1702 -4.34598 -0.693742 0
M  V30 756 H 76.2892 -0.736504 0.027047 0
M  V30 757 H 78.9312 -1.74501 0.751615 0
M  V30 758 H 77.0812 -3.84236 -0.574009 0
M  V30 759 H 78.7532 -4.14832 2.01773 0
M  V30 760 H 76.9962 -3.87016 1.95962 0
M  V30 761 H 77.6672 -5.36478 1.29982 0
M  V30 762 H 80.1432 -4.15615 -0.200869 0
M  V30 763 H 79.0192 -5.44318 -0.707714 0
M  V30 764 H 79.2802 -4.05759 -1.75533 0
M  V30 765 N 78.3393 -0.321999 -1.54275 0
M  V30 766 C 79.5693 0.282642 -2.04658 0
M  V30 767 C 79.9773 1.46453 -1.19784 0
M  V30 768 O 79.3203 1.82367 -0.220932 0
M  V30 769 C 79.3823 0.781857 -3.50895 0
M  V30 770 C 79.0463 -0.277517 -4.56157 0
M  V30 771 C 80.0433 -1.11307 -5.07845 0
M  V30 772 C 77.7283 -0.425256 -5.00497 0
M  V30 773 C 79.7223 -2.08211 -6.02434 0
M  V30 774 C 77.4093 -1.39771 -5.94901 0
M  V30 775 C 78.4073 -2.2246 -6.45756 0
M  V30 776 O 78.0953 -3.18054 -7.38307 0
M  V30 777 H 77.8273 0.0622636 -0.673126 0
M  V30 778 H 80.3813 -0.465792 -2.00049 0
M  V30 779 H 78.6113 1.58118 -3.52896 0
M  V30 780 H 80.3003 1.30467 -3.84361 0
M  V30 781 H 81.0663 -1.00991 -4.74369 0
M  V30 782 H 76.9453 0.20847 -4.60528 0
M  V30 783 H 80.4893 -2.72791 -6.42052 0
M  V30 784 H 76.3863 -1.50152 -6.27794 0
M  V30 785 H 77.1543 -3.13275 -7.56175 0
M  V30 786 N 79.8174 1.5752 -0.0501392 0
M  V30 787 C 81.0454 1.96963 0.633492 0
M  V30 788 C 81.4604 0.927631 1.6444 0
M  V30 789 O 80.8174 -0.0882665 1.82286 0
M  V30 790 C 80.8684 3.36487 1.32132 0
M  V30 791 O 80.5894 4.36693 0.350894 0
M  V30 792 C 82.0904 3.90682 2.09481 0
M  V30 793 H 79.3104 0.648244 0.173266 0
M  V30 794 H 81.8544 2.0417 -0.116134 0
M  V30 795 H 80.0094 3.30434 2.02218 0
M  V30 796 H 80.4234 5.17702 0.841735 0
M  V30 797 H 81.8974 4.90591 2.5303 0
M  V30 798 H 82.3744 3.26053 2.94255 0
M  V30 799 H 82.9804 4.00069 1.44307 0
M  V30 800 N 81.2955 -0.223234 1.56011 0
M  V30 801 C 82.2055 -1.29766 1.95443 0
M  V30 802 C 83.2215 -1.51373 0.858028 0
M  V30 803 O 84.3975 -1.64536 1.16146 0
M  V30 804 C 81.4625 -2.62772 2.26167 0
M  V30 805 C 80.5235 -2.49482 3.49367 0
M  V30 806 C 79.7565 -3.76145 3.78616 0
M  V30 807 O 79.9795 -4.79087 3.09568 0
M  V30 808 O 78.9135 -3.73358 4.72109 0
M  V30 809 H 82.7395 -0.99309 2.87004 0
M  V30 810 H 80.3245 -0.425958 1.43199 0
M  V30 811 H 82.2065 -3.41327 2.47131 0
M  V30 812 H 80.8815 -2.92913 1.37781 0
M  V30 813 H 79.7885 -1.69133 3.33684 0
M  V30 814 H 81.1215 -2.2428 4.38131 0
M  V30 815 N 82.7736 -1.49793 -0.48987 0
M  V30 816 C 84.0196 -1.60078 -1.24511 0
M  V30 817 C 84.3526 -0.291608 -1.91998 0
M  V30 818 O 83.6276 0.705647 -1.81248 0
M  V30 819 C 83.9106 -2.76791 -2.30345 0
M  V30 820 C 83.7636 -4.17535 -1.67286 0
M  V30 821 C 85.0826 -2.89111 -3.31817 0
M  V30 822 H 82.2016 -0.582645 -0.451324 0
M  V30 823 H 84.8436 -1.82117 -0.541612 0
M  V30 824 H 82.9936 -2.5813 -2.90346 0
M  V30 825 H 84.6656 -4.4774 -1.11026 0
M  V30 826 H 82.9086 -4.22665 -0.976577 0
M  V30 827 H 83.5796 -4.95094 -2.44103 0
M  V30 828 H 86.0556 -3.06133 -2.81819 0
M  V30 829 H 84.9316 -3.72433 -4.03219 0
M  V30 830 H 85.1926 -1.9893 -3.94815 0
M  V30 831 N 84.2517 0.741722 -1.39055 0
M  V30 832 C 85.4917 1.51385 -1.37338 0
M  V30 833 C 85.8557 1.91972 0.0330513 0
M  V30 834 O 87.0567 2.68229 0.175174 0
M  V30 835 C 85.3277 2.72481 -2.31276 0
M  V30 836 S 86.8867 3.62211 -2.47687 0
M  V30 837 H 83.7047 0.517906 -0.487129 0
M  V30 838 H 86.3067 0.86969 -1.7509 0
M  V30 839 H 85.0107 2.40793 -3.32336 0
M  V30 840 H 84.5417 3.41832 -1.94716 0
M  V30 841 H 86.5567 4.65812 -1.70978 0
M  V30 842 N 85.7298 1.2412 0.971189 0
M  V30 843 C 86.6928 1.03156 2.04674 0
M  V30 844 C 87.6928 -0.00990322 1.60797 0
M  V30 845 O 88.8828 0.230729 1.72665 0
M  V30 846 C 86.0148 0.562765 3.36223 0
M  V30 847 H 87.2078 1.98614 2.24705 0
M  V30 848 H 84.7608 1.06293 1.14593 0
M  V30 849 H 85.4958 -0.395176 3.21883 0
M  V30 850 H 85.2808 1.31441 3.69413 0
M  V30 851 H 86.7708 0.437015 4.15307 0
M  V30 852 N 87.2079 -1.17134 1.05439 0
M  V30 853 C 88.1709 -2.19439 0.661764 0
M  V30 854 C 89.1709 -1.58199 -0.288042 0
M  V30 855 O 90.3609 -1.74053 -0.0715803 0
M  V30 856 C 87.4929 -3.40889 -0.0276209 0
M  V30 857 H 88.6859 -2.55688 1.56728 0
M  V30 858 H 86.2389 -1.31259 0.848567 0
M  V30 859 H 86.9739 -3.10187 -0.94629 0
M  V30 860 H 86.7589 -3.86586 0.655238 0
M  V30 861 H 88.2489 -4.16603 -0.288342 0
M  V30 862 N 88.686 -0.835752 -1.33615 0
M  V30 863 C 89.926 -0.43599 -1.99696 0
M  V30 864 C 90.29 0.98557 -1.64774 0
M  V30 865 O 91.491 1.48889 -2.23798 0
M  V30 866 C 89.762 -0.646721 -3.515 0
M  V30 867 S 91.321 -0.341715 -4.37467 0
M  V30 868 H 88.139 -0.164136 -0.691795 0
M  V30 869 H 90.741 -1.08436 -1.62671 0
M  V30 870 H 89.445 -1.68077 -3.74404 0
M  V30 871 H 88.976 0.0159173 -3.93397 0
M  V30 872 H 90.991 0.839708 -4.89043 0
M  V30 873 N 90.1641 1.46063 -0.591896 0
M  V30 874 C 91.1141 2.27458 0.157172 0
M  V30 875 C 92.0981 1.3641 0.853301 0
M  V30 876 O 93.2901 1.60517 0.74588 0
M  V30 877 C 90.4191 3.22956 1.16423 0
M  V30 878 C 89.5051 4.2149 0.469742 0
M  V30 879 N 89.8961 5.03519 -0.479839 0
M  V30 880 C 88.1941 4.40161 0.719319 0
M  V30 881 C 88.8951 5.74904 -0.886591 0
M  V30 882 N 87.8711 5.43097 -0.233731 0
M  V30 883 H 91.6731 2.88272 -0.572392 0
M  V30 884 H 89.1871 1.57024 -0.414375 0
M  V30 885 H 91.1841 3.79986 1.71513 0
M  V30 886 H 89.8441 2.63701 1.89451 0
M  V30 887 H 90.8551 5.1078 -0.855823 0
M  V30 888 H 87.5321 3.92046 1.43548 0
M  V30 889 H 88.9221 6.50844 -1.66888 0
M  V30 890 N 91.6422 0.330177 1.54103 0
M  V30 891 C 92.8902 -0.269871 2.0029 0
M  V30 892 C 93.2112 -1.52133 1.21986 0
M  V30 893 O 92.4812 -1.93212 0.323438 0
M  V30 894 H 91.0612 -0.10271 0.739905 0
M  V30 895 H 93.7232 0.448249 1.89675 0
M  V30 896 H 92.8192 -0.52166 3.07709 0
M  V30 897 N 93.1203 -1.57491 0.0584922 0
M  V30 898 C 94.0533 -2.07533 -0.948969 0
M  V30 899 C 95.0313 -0.977444 -1.29942 0
M  V30 900 O 96.2153 -1.2499 -1.41102 0
M  V30 901 C 93.3423 -2.52192 -2.2609 0
M  V30 902 C 92.3883 -3.73287 -2.06298 0
M  V30 903 S 93.2213 -5.18603 -1.33459 0
M  V30 904 C 94.3773 -5.66583 -2.65959 0
M  V30 905 H 94.6103 -2.92662 -0.523118 0
M  V30 906 H 92.1433 -1.53631 -0.153954 0
M  V30 907 H 94.1013 -2.78585 -3.01498 0
M  V30 908 H 92.7623 -1.67356 -2.65802 0
M  V30 909 H 91.9553 -4.0248 -3.03357 0
M  V30 910 H 91.5573 -3.47199 -1.39029 0
M  V30 911 H 93.8493 -5.72616 -3.62101 0
M  V30 912 H 94.7923 -6.65684 -2.41393 0
M  V30 913 H 95.2003 -4.94342 -2.72554 0
M  V30 914 N 94.5984 0.214957 -1.56127 0
M  V30 915 C 95.5454 1.26642 -1.92952 0
M  V30 916 C 96.5154 1.46244 -0.78753 0
M  V30 917 O 97.7004 1.59704 -1.04399 0
M  V30 918 C 94.8404 2.6104 -2.25726 0
M  V30 919 C 93.9534 2.49183 -3.52891 0
M  V30 920 C 93.0884 3.76149 -3.7508 0
M  V30 921 C 92.1274 3.59041 -4.95738 0
M  V30 922 N 91.2644 4.77972 -5.14283 0
M  V30 923 H 96.1044 0.945384 -2.82607 0
M  V30 924 H 93.6414 0.455489 -1.3987 0
M  V30 925 H 95.5994 3.39313 -2.42739 0
M  V30 926 H 94.2294 2.91227 -1.39236 0
M  V30 927 H 93.2814 1.6231 -3.44034 0
M  V30 928 H 94.5934 2.32466 -4.41318 0
M  V30 929 H 93.7474 4.62865 -3.92226 0
M  V30 930 H 92.4864 3.95799 -2.84947 0
M  V30 931 H 91.4914 2.7071 -4.78535 0
M  V30 932 H 92.7164 3.40856 -5.87362 0
M  V30 933 H 90.6624 4.97923 -4.27093 0
M  V30 934 H 90.5794 4.64006 -5.96853 0
M  V30 935 H 91.8474 5.66096 -5.35869 0
M  V30 936 N 96.0765 1.50051 0.48192 0
M  V30 937 C 97.3235 1.60498 1.23477 0
M  V30 938 C 97.6515 0.300331 1.92167 0
M  V30 939 O 96.9065 -0.713094 1.82246 0
M  V30 940 C 97.2055 2.72717 2.30998 0
M  V30 941 C 96.8715 4.13572 1.79636 0
M  V30 942 C 95.5335 4.519 1.65348 0
M  V30 943 C 97.8855 5.01649 1.41412 0
M  V30 944 C 95.2135 5.76057 1.11244 0
M  V30 945 C 97.5655 6.26343 0.887538 0
M  V30 946 C 96.2295 6.63483 0.731207 0
M  V30 947 H 95.4995 0.587303 0.451836 0
M  V30 948 H 98.1465 1.83948 0.532468 0
M  V30 949 H 96.4515 2.43312 3.07094 0
M  V30 950 H 98.1485 2.78006 2.88988 0
M  V30 951 H 94.7385 3.83329 1.91721 0
M  V30 952 H 98.9225 4.72679 1.51289 0
M  V30 953 H 94.1785 6.03516 0.978686 0
M  V30 954 H 98.3525 6.93958 0.582654 0
M  V30 955 H 95.9795 7.59568 0.309806 0
M  V30 956 N 97.5546 -0.734337 1.39446 0
M  V30 957 C 98.8006 -1.49613 1.36908 0
M  V30 958 C 99.1336 -1.94169 -0.0347829 0
M  V30 959 O 98.4086 -1.66833 -0.999847 0
M  V30 960 C 98.6916 -2.73534 2.34203 0
M  V30 961 C 98.5446 -2.34993 3.83534 0
M  V30 962 C 99.8636 -3.75635 2.29317 0
M  V30 963 H 96.9826 -0.542714 0.498629 0
M  V30 964 H 99.6246 -0.839597 1.70443 0
M  V30 965 H 97.7746 -3.29553 2.05736 0
M  V30 966 H 99.4466 -1.84601 4.22753 0
M  V30 967 H 97.6896 -1.67213 4.00278 0
M  V30 968 H 98.3606 -3.23738 4.47099 0
M  V30 969 H 100.837 -3.29203 2.54489 0
M  V30 970 H 99.7126 -4.60008 2.99472 0
M  V30 971 H 99.9736 -4.22603 1.29842 0
M  V30 972 N 99.0327 -1.24633 -0.964593 0
M  V30 973 C 100.444 -1.08045 -1.5226 0
M  V30 974 C 100.795 0.347116 -1.93105 0
M  V30 975 O 99.9197 1.23588 -1.77637 0
M  V30 976 C 100.515 -1.95514 -2.76695 0
M  V30 977 C 99.0737 -1.8314 -3.28841 0
M  V30 978 C 98.2207 -1.90262 -2.01732 0
M  V30 979 H 101.172 -1.38064 -0.782553 0
M  V30 980 H 101.193 -1.48925 -3.50145 0
M  V30 981 H 100.705 -2.99407 -2.46936 0
M  V30 982 H 98.8057 -0.82092 -3.63444 0
M  V30 983 H 98.9187 -2.67406 -3.97531 0
M  V30 984 H 97.2827 -1.34027 -2.16584 0
M  V30 985 H 98.0657 -2.9574 -1.74334 0
M  V30 986 N 100.511 1.16574 -1.06058 0
M  V30 987 C 101.76 1.86385 -0.770944 0
M  V30 988 C 102.073 1.82448 0.705129 0
M  V30 989 O 103.279 2.47815 1.10905 0
M  V30 990 C 101.735 3.34466 -1.32893 0
M  V30 991 C 101.343 3.46883 -2.83507 0
M  V30 992 C 103.087 4.09548 -1.11672 0
M  V30 993 C 100.994 4.89036 -3.32562 0
M  V30 994 H 99.9238 0.698181 -0.284709 0
M  V30 995 H 102.575 1.31583 -1.27899 0
M  V30 996 H 100.957 3.88859 -0.748662 0
M  V30 997 H 102.131 3.02663 -3.47465 0
M  V30 998 H 100.446 2.85232 -3.03368 0
M  V30 999 H 103.043 5.14434 -1.45814 0
M  V30 1000 H 103.386 4.16264 -0.0549535 0
M  V30 1001 H 103.919 3.61387 -1.66265 0
M  V30 1002 H 100.658 4.87499 -4.38207 0
M  V30 1003 H 100.178 5.3389 -2.73351 0
M  V30 1004 H 101.857 5.57843 -3.2775 0
M  V30 1005 N 101.989 0.842826 1.3317 0
M  V30 1006 C 103.405 0.531128 1.50503 0
M  V30 1007 C 103.605 -0.940734 1.78192 0
M  V30 1008 O 102.661 -1.72436 1.84451 0
M  V30 1009 C 103.974 1.40789 2.65705 0
M  V30 1010 C 105.522 1.40708 2.79589 0
M  V30 1011 C 105.997 2.26878 3.97857 0
M  V30 1012 N 107.488 2.24609 4.05099 0
M  V30 1013 C 108.223 2.88019 4.95815 0
M  V30 1014 N 107.719 3.60496 5.9162 0
M  V30 1015 N 109.512 2.77469 4.88843 0
M  V30 1016 H 101.663 1.79557 1.1346 0
M  V30 1017 H 103.926 0.766267 0.558156 0
M  V30 1018 H 103.632 2.454 2.51936 0
M  V30 1019 H 103.506 1.08677 3.61205 0
M  V30 1020 H 105.893 0.368668 2.92788 0
M  V30 1021 H 105.974 1.76829 1.84838 0
M  V30 1022 H 105.618 3.3078 3.85418 0
M  V30 1023 H 105.548 1.88096 4.91861 0
M  V30 1024 H 108.039 1.71906 3.36536 0
M  V30 1025 H 108.352 4.06076 6.57512 0
M  V30 1026 H 106.697 3.64604 5.91683 0
M  V30 1027 H 109.888 2.20406 4.12963 0
M  V30 1028 H 110.061 3.2717 5.59342 0
M  V30 1029 N 103.467 -1.45747 0.599634 0
M  V30 1030 C 104.692 -2.07178 0.0960198 0
M  V30 1031 C 105.117 -1.44268 -1.207 0
M  V30 1032 O 104.475 -0.532503 -1.73303 0
M  V30 1033 C 104.523 -3.60579 -0.0385348 0
M  V30 1034 O 103.627 -3.97713 -1.0908 0
M  V30 1035 H 102.968 -0.660251 0.0704593 0
M  V30 1036 H 105.498 -1.87124 0.827385 0
M  V30 1037 H 105.508 -4.07298 -0.239304 0
M  V30 1038 H 104.183 -4.05756 0.912947 0
M  V30 1039 H 102.76 -3.62678 -0.867135 0
M  V30 1040 N 104.945 -0.338344 -1.53925 0
M  V30 1041 C 105.875 0.51328 -2.27789 0
M  V30 1042 C 106.856 1.107 -1.29149 0
M  V30 1043 O 108.041 1.12937 -1.57984 0
M  V30 1044 C 105.171 1.66697 -3.04679 0
M  V30 1045 C 104.125 1.20183 -4.1078 0
M  V30 1046 C 103.451 2.44363 -4.75595 0
M  V30 1047 C 104.751 0.30605 -5.21403 0
M  V30 1048 H 106.445 -0.102883 -2.99223 0
M  V30 1049 H 103.991 -0.0509219 -1.4391 0
M  V30 1050 H 105.944 2.26915 -3.55088 0
M  V30 1051 H 104.668 2.30995 -2.30887 0
M  V30 1052 H 103.327 0.622499 -3.61276 0
M  V30 1053 H 102.975 3.07057 -3.98403 0
M  V30 1054 H 102.675 2.13925 -5.47275 0
M  V30 1055 H 104.199 3.05317 -5.28786 0
M  V30 1056 H 105.613 0.814929 -5.67478 0
M  V30 1057 H 104.01 0.0937929 -6.00027 0
M  V30 1058 H 105.08 -0.65921 -4.80398 0
M  V30 1059 N 106.423 1.57458 -0.0668435 0
M  V30 1060 C 107.648 1.9804 0.616027 0
M  V30 1061 C 108.073 0.944771 1.62652 0
M  V30 1062 O 107.431 -0.0902094 1.81075 0
M  V30 1063 C 107.479 3.37665 1.26549 0
M  V30 1064 O 106.583 3.36701 2.38131 0
M  V30 1065 H 105.924 0.644719 0.158849 0
M  V30 1066 H 108.454 2.04121 -0.139891 0
M  V30 1067 H 108.464 3.7474 1.6135 0
M  V30 1068 H 107.139 4.12573 0.525016 0
M  V30 1069 H 105.716 3.1139 2.0516 0
M  V30 1070 N 107.901 -0.206675 1.56239 0
M  V30 1071 C 108.811 -1.27686 1.96808 0
M  V30 1072 C 109.827 -1.50455 0.874035 0
M  V30 1073 O 111.003 -1.63295 1.17884 0
M  V30 1074 C 108.068 -2.60358 2.28942 0
M  V30 1075 C 107.129 -2.45762 3.51994 0
M  V30 1076 C 106.362 -3.72108 3.82585 0
M  V30 1077 O 106.585 -4.75776 3.14631 0
M  V30 1078 O 105.519 -3.6833 4.76043 0
M  V30 1079 H 109.345 -0.962593 2.88041 0
M  V30 1080 H 106.93 -0.410746 1.43643 0
M  V30 1081 H 108.812 -3.38687 2.50737 0
M  V30 1082 H 107.487 -2.91435 1.4088 0
M  V30 1083 H 106.394 -1.65584 3.35459 0
M  V30 1084 H 107.727 -2.19621 4.40486 0
M  V30 1085 N 109.379 -1.50304 -0.473955 0
M  V30 1086 C 110.79 -1.54042 -1.0549 0
M  V30 1087 C 111.141 -0.342248 -1.93192 0
M  V30 1088 O 110.266 0.545157 -2.09421 0
M  V30 1089 C 110.861 -2.79152 -1.91989 0
M  V30 1090 C 109.42 -2.8558 -2.45196 0
M  V30 1091 C 108.567 -2.48295 -1.2347 0
M  V30 1092 H 111.518 -1.5661 -0.256693 0
M  V30 1093 H 111.539 -2.60845 -2.7702 0
M  V30 1094 H 111.051 -3.66339 -1.28131 0
M  V30 1095 H 109.152 -2.02738 -3.12615 0
M  V30 1096 H 109.265 -3.88403 -2.80499 0
M  V30 1097 H 107.629 -2.00669 -1.56856 0
M  V30 1098 H 108.412 -3.37787 -0.612789 0
M  V30 1099 N 110.857 0.726932 -1.39834 0
M  V30 1100 C 112.105 1.4837 -1.37225 0
M  V30 1101 C 112.426 1.94979 0.0284857 0
M  V30 1102 O 111.696 1.69555 0.981213 0
M  V30 1103 H 110.276 0.55043 -0.505011 0
M  V30 1104 H 112.938 0.862468 -1.74778 0
M  V30 1105 H 112.034 2.36198 -2.04003 0
M  V30 1106 N 112.336 1.25143 0.95797 0
M  V30 1107 C 113.584 1.09476 1.69881 0
M  V30 1108 C 113.905 -0.365502 1.91544 0
M  V30 1109 O 113.175 -1.25985 1.50015 0
M  V30 1110 H 111.755 0.402128 0.629525 0
M  V30 1111 H 114.417 1.57214 1.15194 0
M  V30 1112 H 113.513 1.60046 2.6794 0
M  V30 1113 N 113.814 -1.1601 1.06675 0
M  V30 1114 C 115.225 -1.68235 0.809565 0
M  V30 1115 C 115.576 -1.8454 -0.666303 0
M  V30 1116 O 114.701 -1.54374 -1.5165 0
M  V30 1117 C 115.296 -3.05585 1.46299 0
M  V30 1118 C 113.855 -3.54915 1.25349 0
M  V30 1119 C 113.002 -2.30804 1.53703 0
M  V30 1120 H 115.953 -1.00318 1.22971 0
M  V30 1121 H 115.974 -3.70174 0.880431 0
M  V30 1122 H 115.486 -2.93686 2.53713 0
M  V30 1123 H 113.587 -3.72067 0.199261 0
M  V30 1124 H 113.7 -4.36774 1.9689 0
M  V30 1125 H 112.064 -2.36007 0.957739 0
M  V30 1126 H 112.847 -2.21499 2.62284 0
M  V30 1127 N 115.292 -0.849877 -1.32721 0
M  V30 1128 C 116.202 -0.293791 -2.32753 0
M  V30 1129 C 117.218 0.585906 -1.63839 0
M  V30 1130 O 118.394 0.487413 -1.95413 0
M  V30 1131 C 115.459 0.512752 -3.42887 0
M  V30 1132 C 114.52 -0.39252 -4.27502 0
M  V30 1133 C 113.753 0.375625 -5.32377 0
M  V30 1134 O 113.976 1.60613 -5.4732 0
M  V30 1135 O 112.91 -0.256094 -6.01355 0
M  V30 1136 H 116.736 -1.12242 -2.82197 0
M  V30 1137 H 114.321 -0.612685 -1.36259 0
M  V30 1138 H 116.203 0.970704 -4.10067 0
M  V30 1139 H 114.878 1.31826 -2.95641 0
M  V30 1140 H 113.785 -0.898547 -3.63149 0
M  V30 1141 H 115.118 -1.16309 -4.7826 0
M  V30 1142 N 116.77 1.45427 -0.607355 0
M  V30 1143 C 117.7 2.3329 0.0989352 0
M  V30 1144 C 118.681 1.46816 0.859007 0
M  V30 1145 O 119.866 1.75588 0.829604 0
M  V30 1146 C 116.996 3.29518 1.09705 0
M  V30 1147 C 115.95 4.25626 0.450206 0
M  V30 1148 C 115.276 5.11542 1.55655 0
M  V30 1149 C 116.576 5.18505 -0.628455 0
M  V30 1150 H 118.27 2.92595 -0.634716 0
M  V30 1151 H 115.816 1.40696 -0.306681 0
M  V30 1152 H 117.769 3.89855 1.59971 0
M  V30 1153 H 116.493 2.68372 1.86129 0
M  V30 1154 H 115.152 3.66586 -0.0315886 0
M  V30 1155 H 114.8 4.46765 2.31107 0
M  V30 1156 H 114.5 5.76647 1.12925 0
M  V30 1157 H 116.024 5.74748 2.06148 0
M  V30 1158 H 117.438 5.72916 -0.209877 0
M  V30 1159 H 115.835 5.92085 -0.977489 0
M  V30 1160 H 116.905 4.60948 -1.50514 0
M  V30 1161 N 118.248 0.346503 1.53744 0
M  V30 1162 C 119.659 -0.136779 1.86198 0
M  V30 1163 C 120.01 -1.49749 1.26766 0
M  V30 1164 O 119.135 -2.08417 0.582355 0
M  V30 1165 C 119.73 -0.254966 3.37839 0
M  V30 1166 C 118.289 -0.682482 3.70161 0
M  V30 1167 C 117.436 0.181981 2.76702 0
M  V30 1168 H 120.387 0.565994 1.48264 0
M  V30 1169 H 120.408 -1.08195 3.64793 0
M  V30 1170 H 119.92 0.735526 3.81066 0
M  V30 1171 H 118.021 -1.68189 3.3248 0
M  V30 1172 H 118.134 -0.470326 4.76786 0
M  V30 1173 H 116.498 -0.34615 2.52337 0
M  V30 1174 H 117.281 1.16966 3.2276 0
M  V30 1175 N 119.726 -1.57421 0.075193 0
M  V30 1176 C 120.636 -2.1642 -0.905511 0
M  V30 1177 C 121.652 -1.12828 -1.32461 0
M  V30 1178 O 122.828 -1.45109 -1.39661 0
M  V30 1179 C 119.893 -2.71693 -2.15369 0
M  V30 1180 C 118.954 -3.90171 -1.79068 0
M  V30 1181 C 118.187 -4.42798 -2.97936 0
M  V30 1182 O 118.41 -3.94416 -4.12058 0
M  V30 1183 O 117.344 -5.34085 -2.77555 0
M  V30 1184 H 121.17 -3.00588 -0.433626 0
M  V30 1185 H 118.755 -1.48664 -0.148067 0
M  V30 1186 H 120.637 -3.07104 -2.88557 0
M  V30 1187 H 119.312 -1.90582 -2.61649 0
M  V30 1188 H 118.219 -3.59606 -1.03122 0
M  V30 1189 H 119.552 -4.72584 -1.37569 0
M  V30 1190 N 121.204 0.198386 -1.56346 0
M  V30 1191 C 122.481 0.944982 -1.71258 0
M  V30 1192 C 122.861 2.0151 -0.629048 0
M  V30 1193 O 122.209 2.25639 0.360473 0
M  V30 1194 C 122.419 1.5344 -3.1346 0
M  V30 1195 C 123.767 2.01778 -3.73591 0
M  V30 1196 O 124.791 1.63288 -3.16568 0
M  V30 1197 O 123.65 2.72594 -4.73661 0
M  V30 1198 H 120.744 0.442939 -0.69838 0
M  V30 1199 H 123.29 0.188342 -1.68652 0
M  V30 1200 H 122.062 0.762869 -3.83792 0
M  V30 1201 H 121.685 2.35596 -3.20282 0
M  V30 1202 N 122.682 1.50554 0.465978 0
M  V30 1203 C 123.614 1.65949 1.58093 0
M  V30 1204 C 124.627 0.540827 1.53554 0
M  V30 1205 O 125.816 0.814187 1.5885 0
M  V30 1206 C 122.916 1.63261 2.96983 0
M  V30 1207 C 122.089 2.91245 3.26336 0
M  V30 1208 C 121.148 2.8113 4.44806 0
M  V30 1209 O 120.174 3.55086 4.44862 0
M  V30 1210 N 121.376 1.95032 5.46756 0
M  V30 1211 H 124.141 2.62122 1.45301 0
M  V30 1212 H 121.702 1.48082 0.65448 0
M  V30 1213 H 123.694 1.54101 3.74212 0
M  V30 1214 H 122.264 0.748032 3.03518 0
M  V30 1215 H 121.484 3.14493 2.37672 0
M  V30 1216 H 122.772 3.76022 3.42761 0
M  V30 1217 H 122.17 1.3427 5.49534 0
M  V30 1218 H 120.727 1.91772 6.2295 0
M  V30 1219 N 124.16 -0.719506 1.40217 0
M  V30 1220 C 125.406 -1.48152 1.38488 0
M  V30 1221 C 125.739 -1.94195 -0.0141867 0
M  V30 1222 O 125.014 -1.67884 -0.982096 0
M  V30 1223 C 125.297 -2.71035 2.37091 0
M  V30 1224 C 125.15 -2.30912 3.86005 0
M  V30 1225 C 126.469 -3.73182 2.33288 0
M  V30 1226 H 123.588 -0.537395 0.504357 0
M  V30 1227 H 126.23 -0.821472 1.71324 0
M  V30 1228 H 124.38 -3.27352 2.0922 0
M  V30 1229 H 126.052 -1.80107 4.24687 0
M  V30 1230 H 124.295 -1.62958 4.02029 0
M  V30 1231 H 124.966 -3.18978 4.50508 0
M  V30 1232 H 127.442 -3.26485 2.57966 0
M  V30 1233 H 126.318 -4.56806 3.04334 0
M  V30 1234 H 126.579 -4.21202 1.34317 0
M  V30 1235 N 125.638 -1.25649 -0.95132 0
M  V30 1236 C 127.054 -1.02542 -1.223 0
M  V30 1237 C 127.254 0.255715 -1.99871 0
M  V30 1238 O 126.31 0.967558 -2.33226 0
M  V30 1239 C 127.623 -2.25065 -1.99415 0
M  V30 1240 C 129.171 -2.29861 -2.12446 0
M  V30 1241 C 129.646 -3.52048 -2.92961 0
M  V30 1242 N 131.137 -3.52465 -3.00538 0
M  V30 1243 C 131.872 -4.43672 -3.63239 0
M  V30 1244 N 131.368 -5.45157 -4.27523 0
M  V30 1245 N 133.161 -4.31346 -3.60412 0
M  V30 1246 H 125.312 -2.07951 -0.432471 0
M  V30 1247 H 127.575 -0.91339 -0.253816 0
M  V30 1248 H 127.281 -3.18194 -1.49817 0
M  V30 1249 H 127.155 -2.28502 -3.00111 0
M  V30 1250 H 129.542 -1.37252 -2.61239 0
M  V30 1251 H 129.623 -2.3044 -1.11044 0
M  V30 1252 H 129.267 -4.44981 -2.44856 0
M  V30 1253 H 129.197 -3.48715 -3.94596 0
M  V30 1254 H 131.688 -2.79056 -2.54826 0
M  V30 1255 H 132.001 -6.10958 -4.73234 0
M  V30 1256 H 130.346 -5.49025 -4.26141 0
M  V30 1257 H 133.537 -3.51288 -3.09377 0
M  V30 1258 H 133.71 -5.02624 -4.0899 0
M  V30 1259 N 127.117 1.15442 -1.07289 0
M  V30 1260 C 128.08 2.18358 -0.696591 0
M  V30 1261 C 129.08 1.58637 0.262837 0
M  V30 1262 O 130.27 1.74145 0.0438809 0
M  V30 1263 C 127.402 3.4089 -0.0266151 0
M  V30 1264 H 128.595 2.53162 -1.60776 0
M  V30 1265 H 126.148 1.29893 -0.869342 0
M  V30 1266 H 126.883 3.11653 0.896822 0
M  V30 1267 H 126.668 3.85495 -0.716657 0
M  V30 1268 H 128.158 4.17009 0.222028 0
M  V30 1269 N 128.595 0.856903 1.32268 0
M  V30 1270 C 129.825 0.47475 2.01071 0
M  V30 1271 C 130.233 -0.933746 1.64553 0
M  V30 1272 O 129.576 -1.62114 0.863989 0
M  V30 1273 C 129.638 0.536746 3.55471 0
M  V30 1274 C 129.302 1.90453 4.15423 0
M  V30 1275 C 130.299 2.87029 4.33486 0
M  V30 1276 C 127.984 2.20229 4.51447 0
M  V30 1277 C 129.978 4.11532 4.86744 0
M  V30 1278 C 127.665 3.44984 5.0441 0
M  V30 1279 C 128.663 4.40452 5.22007 0
M  V30 1280 O 128.351 5.62998 5.73837 0
M  V30 1281 H 128.083 0.184778 0.650256 0
M  V30 1282 H 130.637 1.15615 1.69771 0
M  V30 1283 H 128.867 -0.20152 3.86175 0
M  V30 1284 H 130.556 0.169875 4.05544 0
M  V30 1285 H 131.322 2.6533 4.05986 0
M  V30 1286 H 127.201 1.46705 4.37034 0
M  V30 1287 H 130.745 4.86056 5.00395 0
M  V30 1288 H 126.642 3.66532 5.31342 0
M  V30 1289 H 127.41 5.64987 5.92226 0
M  V30 1290 N 130.073 -1.45103 0.615059 0
M  V30 1291 C 131.036 -2.29025 -0.0895485 0
M  V30 1292 C 132.036 -1.40174 -0.787906 0
M  V30 1293 O 133.226 -1.62217 -0.634933 0
M  V30 1294 C 130.358 -3.21376 -1.13711 0
M  V30 1295 H 131.551 -2.92807 0.648382 0
M  V30 1296 H 129.104 -1.51749 0.374444 0
M  V30 1297 H 129.839 -2.6241 -1.90556 0
M  V30 1298 H 129.624 -3.86834 -0.640475 0
M  V30 1299 H 131.114 -3.84459 -1.63036 0
M  V30 1300 N 131.551 -0.354651 -1.53558 0
M  V30 1301 C 132.779 0.239515 -2.05509 0
M  V30 1302 C 133.194 1.4333 -1.2289 0
M  V30 1303 O 132.551 1.80538 -0.266899 0
M  V30 1304 C 132.602 0.643719 -3.55723 0
M  V30 1305 O 132.323 -0.502602 -4.35207 0
M  V30 1306 C 133.824 1.29743 -4.23889 0
M  V30 1307 H 131.044 0.0442697 -0.669538 0
M  V30 1308 H 133.588 -0.509856 -1.98042 0
M  V30 1309 H 131.743 1.34302 -3.63376 0
M  V30 1310 H 132.157 -0.178172 -5.24197 0
M  V30 1311 H 133.631 1.53091 -5.30346 0
M  V30 1312 H 134.108 2.25441 -3.76926 0
M  V30 1313 H 134.714 0.639865 -4.20459 0
M  V30 1314 N 133.029 1.57378 -0.0835403 0
M  V30 1315 C 133.961 2.10389 0.909338 0
M  V30 1316 C 134.974 1.03858 1.25369 0
M  V30 1317 O 136.163 1.31338 1.20882 0
M  V30 1318 C 133.263 2.55908 2.2218 0
M  V30 1319 C 132.436 3.86145 2.05453 0
M  V30 1320 C 131.495 4.17633 3.20108 0
M  V30 1321 O 130.521 4.87043 2.94581 0
M  V30 1322 N 131.723 3.72113 4.45547 0
M  V30 1323 H 134.488 2.962 0.456657 0
M  V30 1324 H 132.049 1.61579 0.101877 0
M  V30 1325 H 134.041 2.74027 2.97811 0
M  V30 1326 H 132.611 1.75171 2.58909 0
M  V30 1327 H 131.831 3.7729 1.1422 0
M  V30 1328 H 133.119 4.7137 1.91541 0
M  V30 1329 H 132.517 3.16062 4.69171 0
M  V30 1330 H 131.074 3.95409 5.18165 0
M  V30 1331 N 134.507 -0.190092 1.56449 0
M  V30 1332 C 135.754 -0.909705 1.80916 0
M  V30 1333 C 136.082 -1.83047 0.657583 0
M  V30 1334 O 135.337 -1.92428 -0.356356 0
M  V30 1335 C 135.636 -1.75382 3.1141 0
M  V30 1336 C 135.302 -0.983606 4.40041 0
M  V30 1337 C 133.964 -0.770967 4.74984 0
M  V30 1338 C 136.316 -0.442024 5.19322 0
M  V30 1339 C 133.644 -0.0053448 5.867 0
M  V30 1340 C 135.996 0.310412 6.31838 0
M  V30 1341 C 134.66 0.534023 6.6536 0
M  V30 1342 H 133.93 -0.332885 0.662019 0
M  V30 1343 H 136.577 -0.175762 1.90692 0
M  V30 1344 H 134.882 -2.55659 2.96893 0
M  V30 1345 H 136.579 -2.31331 3.27547 0
M  V30 1346 H 133.169 -1.15936 4.12622 0
M  V30 1347 H 137.353 -0.593693 4.92736 0
M  V30 1348 H 132.609 0.177825 6.11141 0
M  V30 1349 H 136.783 0.737419 6.92485 0
M  V30 1350 H 134.41 1.12918 7.51767 0
M  V30 1351 N 135.985 -1.50799 -0.457987 0
M  V30 1352 C 137.213 -1.66218 -1.23203 0
M  V30 1353 C 137.628 -0.350894 -1.85511 0
M  V30 1354 O 136.985 0.668546 -1.69814 0
M  V30 1355 C 137.036 -2.76291 -2.33121 0
M  V30 1356 O 136.757 -4.02338 -1.73366 0
M  V30 1357 C 138.258 -3.028 -3.2377 0
M  V30 1358 H 135.478 -0.558361 -0.372121 0
M  V30 1359 H 138.022 -1.97099 -0.545179 0
M  V30 1360 H 136.177 -2.48068 -2.97558 0
M  V30 1361 H 136.591 -4.63312 -2.4585 0
M  V30 1362 H 138.065 -3.8345 -3.97077 0
M  V30 1363 H 138.542 -2.14385 -3.83322 0
M  V30 1364 H 139.148 -3.32604 -2.65056 0
M  V30 1365 N 137.463 0.71206 -1.40597 0
M  V30 1366 C 138.709 1.47416 -1.39271 0
M  V30 1367 C 139.042 1.942 0.00388791 0
M  V30 1368 O 138.317 1.68403 0.973179 0
M  V30 1369 C 138.6 2.69774 -2.38525 0
M  V30 1370 C 138.453 2.28861 -3.87224 0
M  V30 1371 C 139.772 3.71939 -2.35264 0
M  V30 1372 H 136.891 0.534713 -0.5072 0
M  V30 1373 H 139.533 0.812375 -1.71757 0
M  V30 1374 H 137.683 3.26238 -2.10953 0
M  V30 1375 H 139.355 1.77852 -4.25636 0
M  V30 1376 H 137.598 1.60824 -4.02887 0
M  V30 1377 H 138.269 3.16584 -4.52193 0
M  V30 1378 H 140.745 3.25113 -2.59694 0
M  V30 1379 H 139.621 4.55186 -3.06753 0
M  V30 1380 H 139.882 4.20484 -1.36549 0
M  V30 1381 N 138.941 1.26152 0.944643 0
M  V30 1382 C 140.169 1.14259 1.72489 0
M  V30 1383 C 140.584 -0.302555 1.8636 0
M  V30 1384 O 139.941 -1.20741 1.36849 0
M  V30 1385 C 139.992 1.80266 3.13347 0
M  V30 1386 O 139.713 3.19133 3.00143 0
M  V30 1387 C 141.214 1.74283 4.07603 0
M  V30 1388 H 138.434 0.398051 0.540181 0
M  V30 1389 H 140.978 1.66706 1.18446 0
M  V30 1390 H 139.133 1.31766 3.64303 0
M  V30 1391 H 139.547 3.51744 3.89071 0
M  V30 1392 H 141.021 2.25111 5.04013 0
M  V30 1393 H 141.498 0.708631 4.33446 0
M  V30 1394 H 142.104 2.22319 3.62567 0
M  V30 1395 N 140.419 -1.14872 1.07899 0
M  V30 1396 C 141.696 -1.81928 0.71845 0
M  V30 1397 C 142.076 -1.95417 -0.798455 0
M  V30 1398 O 141.424 -1.50997 -1.715 0
M  V30 1399 C 141.634 -3.17937 1.43935 0
M  V30 1400 C 142.982 -3.93501 1.59506 0
M  V30 1401 O 144.006 -3.27509 1.40058 0
M  V30 1402 O 142.865 -5.1183 1.91551 0
M  V30 1403 H 139.959 -0.78628 0.256305 0
M  V30 1404 H 142.505 -1.21934 1.18026 0
M  V30 1405 H 141.277 -3.0325 2.47295 0
M  V30 1406 H 140.9 -3.85619 0.968687 0
M  V30 1407 N 141.898 -0.863906 -1.31812 0
M  V30 1408 C 142.808 -0.318461 -2.32428 0
M  V30 1409 C 143.824 0.568496 -1.64451 0
M  V30 1410 O 145 0.46666 -1.95919 0
M  V30 1411 C 142.065 0.476355 -3.43412 0
M  V30 1412 C 141.126 -0.43784 -4.27061 0
M  V30 1413 C 140.359 0.319138 -5.32745 0
M  V30 1414 O 140.582 1.54799 -5.48993 0
M  V30 1415 O 139.516 -0.319861 -6.01049 0
M  V30 1416 H 143.342 -1.15229 -2.80991 0
M  V30 1417 H 140.927 -0.627103 -1.35602 0
M  V30 1418 H 142.809 0.927156 -4.11074 0
M  V30 1419 H 141.484 1.28683 -2.97022 0
M  V30 1420 H 140.391 -0.937013 -3.62175 0
M  V30 1421 H 141.724 -1.21375 -4.77 0
M  V30 1422 N 143.376 1.44774 -0.622745 0
M  V30 1423 C 144.286 2.34433 0.0886031 0
M  V30 1424 C 145.302 1.52131 0.844529 0
M  V30 1425 O 146.478 1.84886 0.798691 0
M  V30 1426 C 143.543 3.29986 1.0635 0
M  V30 1427 C 142.604 4.28195 0.307873 0
M  V30 1428 C 141.837 5.19183 1.23633 0
M  V30 1429 O 142.06 5.13918 2.47476 0
M  V30 1430 O 140.994 5.97515 0.725189 0
M  V30 1431 H 144.82 2.96693 -0.648599 0
M  V30 1432 H 142.405 1.44408 -0.382957 0
M  V30 1433 H 144.287 3.88825 1.6246 0
M  V30 1434 H 142.962 2.70269 1.78146 0
M  V30 1435 H 141.869 3.72927 -0.296064 0
M  V30 1436 H 143.202 4.90808 -0.3699 0
M  V30 1437 N 144.854 0.36279 1.53368 0
M  V30 1438 C 146.082 -0.228613 2.05633 0
M  V30 1439 C 146.497 -1.42676 1.23649 0
M  V30 1440 O 145.854 -1.80394 0.27647 0
M  V30 1441 C 145.905 -0.624845 3.56059 0
M  V30 1442 O 145.626 0.525675 4.34935 0
M  V30 1443 C 147.127 -1.27493 4.24571 0
M  V30 1444 H 144.347 -0.0407183 0.669763 0
M  V30 1445 H 146.891 0.520352 1.97769 0
M  V30 1446 H 145.046 -1.32373 3.64083 0
M  V30 1447 H 145.46 0.205969 5.24095 0
M  V30 1448 H 146.934 -1.50277 5.31151 0
M  V30 1449 H 147.411 -2.23439 3.78116 0
M  V30 1450 H 148.017 -0.617558 4.20792 0
M  V30 1451 N 146.332 -1.57332 0.0918853 0
M  V30 1452 C 147.58 -1.93853 -0.571446 0
M  V30 1453 C 147.901 -0.974212 -1.6892 0
M  V30 1454 O 147.171 -0.0257254 -1.95883 0
M  V30 1455 H 145.751 -0.715666 -0.214082 0
M  V30 1456 H 148.413 -1.94287 0.154464 0
M  V30 1457 H 147.509 -2.96191 -0.983729 0
M  V30 1458 N 147.81 0.181792 -1.56548 0
M  V30 1459 C 148.72 1.24538 -1.98815 0
M  V30 1460 C 149.736 1.49045 -0.897861 0
M  V30 1461 O 150.912 1.61399 -1.20467 0
M  V30 1462 C 147.977 2.56683 -2.33055 0
M  V30 1463 C 147.038 2.40131 -3.55859 0
M  V30 1464 C 146.271 3.65975 -3.88456 0
M  V30 1465 O 146.494 4.70711 -3.22161 0
M  V30 1466 O 145.428 3.6071 -4.81842 0
M  V30 1467 H 149.254 0.916647 -2.89536 0
M  V30 1468 H 146.839 0.387842 -1.44278 0
M  V30 1469 H 148.721 3.34655 -2.56094 0
M  V30 1470 H 147.396 2.89157 -1.45498 0
M  V30 1471 H 146.303 1.60226 -3.38051 0
M  V30 1472 H 147.636 2.12585 -4.43924 0
M  V30 1473 N 149.288 1.51039 0.449983 0
M  V30 1474 C 150.565 1.53612 1.21089 0
M  V30 1475 C 150.945 0.292997 2.09057 0
M  V30 1476 O 150.293 -0.72259 2.16774 0
M  V30 1477 C 150.503 2.84337 2.0237 0
M  V30 1478 C 151.851 3.35807 2.59843 0
M  V30 1479 O 152.875 2.85802 2.12593 0
M  V30 1480 O 151.734 4.23029 3.45989 0
M  V30 1481 H 148.828 0.617057 0.550608 0
M  V30 1482 H 151.374 1.63344 0.460082 0
M  V30 1483 H 150.146 3.66278 1.37681 0
M  V30 1484 H 149.769 2.77708 2.84542 0
M  V30 1485 N 150.766 -0.704594 1.40972 0
M  V30 1486 C 152.182 -1.01406 1.23244 0
M  V30 1487 C 152.382 -2.01169 0.115399 0
M  V30 1488 O 151.438 -2.47021 -0.523147 0
M  V30 1489 C 152.751 -1.54728 2.57836 0
M  V30 1490 C 154.299 -1.66658 2.64942 0
M  V30 1491 C 154.774 -2.23383 3.9983 0
M  V30 1492 N 156.265 -2.30756 4.01629 0
M  V30 1493 C 157 -2.75655 5.02794 0
M  V30 1494 N 156.496 -3.20225 6.14352 0
M  V30 1495 N 158.289 -2.75138 4.90159 0
M  V30 1496 H 150.44 -0.0435285 2.12355 0
M  V30 1497 H 152.703 -0.0818951 0.944456 0
M  V30 1498 H 152.409 -0.888832 3.40283 0
M  V30 1499 H 152.283 -2.53084 2.79693 0
M  V30 1500 H 154.67 -2.31617 1.8286 0
M  V30 1501 H 154.751 -0.668717 2.46904 0
M  V30 1502 H 154.395 -1.59043 4.82357 0
M  V30 1503 H 154.325 -3.23904 4.15203 0
M  V30 1504 H 156.816 -1.99291 3.21079 0
M  V30 1505 H 157.129 -3.53084 6.87424 0
M  V30 1506 H 155.474 -3.18156 6.17901 0
M  V30 1507 H 158.665 -2.39661 4.02095 0
M  V30 1508 H 158.838 -3.09812 5.6914 0
M  V30 1509 N 152.244 -1.26651 -0.937939 0
M  V30 1510 C 153.154 -1.10276 -2.07066 0
M  V30 1511 C 154.17 -0.0354197 -1.73964 0
M  V30 1512 O 155.346 -0.239816 -1.99967 0
M  V30 1513 C 152.411 -0.740887 -3.38691 0
M  V30 1514 C 151.472 -1.88799 -3.85556 0
M  V30 1515 C 150.705 -1.54329 -5.10899 0
M  V30 1516 O 150.928 -0.446494 -5.6865 0
M  V30 1517 O 149.862 -2.37911 -5.52885 0
M  V30 1518 H 153.688 -2.05309 -2.23789 0
M  V30 1519 H 151.273 -1.05743 -1.0554 0
M  V30 1520 H 153.155 -0.55195 -4.1777 0
M  V30 1521 H 151.83 0.180022 -3.23199 0
M  V30 1522 H 150.737 -2.13191 -3.07409 0
M  V30 1523 H 152.07 -2.78874 -4.05574 0
M  V30 1524 N 153.722 1.14298 -1.08507 0
M  V30 1525 C 154.97 1.84993 -0.813763 0
M  V30 1526 C 155.291 1.83405 0.662393 0
M  V30 1527 O 154.561 1.28319 1.48024 0
M  V30 1528 H 153.141 0.684966 -0.298045 0
M  V30 1529 H 155.803 1.385 -1.37126 0
M  V30 1530 H 154.899 2.89788 -1.15884 0
M  V30 1531 N 155.201 0.870884 1.31352 0
M  V30 1532 C 156.148 0.325425 2.28494 0
M  V30 1533 C 157.118 -0.576615 1.5577 0
M  V30 1534 O 158.303 -0.508059 1.83911 0
M  V30 1535 C 155.443 -0.466283 3.41935 0
M  V30 1536 C 154.556 0.463378 4.29508 0
M  V30 1537 C 153.691 -0.342544 5.30094 0
M  V30 1538 C 152.73 0.583486 6.09313 0
M  V30 1539 N 151.867 -0.186244 7.01853 0
M  V30 1540 H 156.707 1.15901 2.74538 0
M  V30 1541 H 154.244 0.58294 1.35056 0
M  V30 1542 H 156.202 -0.941085 4.06447 0
M  V30 1543 H 154.832 -1.26456 2.97 0
M  V30 1544 H 153.884 1.05663 3.65431 0
M  V30 1545 H 155.196 1.1734 4.84802 0
M  V30 1546 H 154.35 -0.879816 6.00287 0
M  V30 1547 H 153.089 -1.08585 4.75458 0
M  V30 1548 H 152.094 1.13251 5.3801 0
M  V30 1549 H 153.319 1.32566 6.66035 0
M  V30 1550 H 151.265 -0.912348 6.49625 0
M  V30 1551 H 151.182 0.464422 7.54572 0
M  V30 1552 H 152.45 -0.704716 7.76308 0
M  V30 1553 N 156.679 -1.44442 0.630414 0
M  V30 1554 C 158.09 -1.85434 0.217063 0
M  V30 1555 C 158.441 -1.52748 -1.23136 0
M  V30 1556 O 157.566 -0.965205 -1.93682 0
M  V30 1557 C 158.161 -3.36581 0.387168 0
M  V30 1558 C 156.72 -3.76389 0.0283297 0
M  V30 1559 C 155.867 -2.68296 0.700889 0
M  V30 1560 H 158.818 -1.34919 0.83562 0
M  V30 1561 H 158.839 -3.78657 -0.374086 0
M  V30 1562 H 158.351 -3.60339 1.44144 0
M  V30 1563 H 156.452 -3.58246 -1.02423 0
M  V30 1564 H 156.565 -4.77095 0.437892 0
M  V30 1565 H 154.929 -2.54335 0.136267 0
M  V30 1566 H 155.712 -2.94887 1.75774 0
M  V30 1567 N 158.157 -0.370918 -1.53173 0
M  V30 1568 C 159.385 0.217704 -2.05751 0
M  V30 1569 C 159.8 1.42018 -1.24404 0
M  V30 1570 O 159.157 1.80245 -0.286033 0
M  V30 1571 C 159.208 0.605954 -3.56385 0
M  V30 1572 O 158.929 -0.548734 -4.3465 0
M  V30 1573 C 160.43 1.2524 -4.25241 0
M  V30 1574 H 157.65 0.0371659 -0.66997 0
M  V30 1575 H 160.194 -0.530832 -1.9749 0
M  V30 1576 H 158.349 1.3044 -3.6478 0
M  V30 1577 H 158.763 -0.23376 -5.23979 0
M  V30 1578 H 160.237 1.47458 -5.3194 0
M  V30 1579 H 160.714 2.2143 -3.79296 0
M  V30 1580 H 161.32 0.595233 -4.21114 0
M  V30 1581 N 159.635 1.57281 -0.100228 0
M  V30 1582 C 160.912 1.86014 0.604812 0
M  V30 1583 C 161.292 0.998025 1.86018 0
M  V30 1584 O 160.64 0.0718184 2.28387 0
M  V30 1585 C 160.85 3.36784 0.915278 0
M  V30 1586 C 162.198 4.04957 1.27651 0
M  V30 1587 O 163.222 3.41695 1.00613 0
M  V30 1588 O 162.081 5.16593 1.7831 0
M  V30 1589 H 159.175 0.76942 0.303185 0
M  V30 1590 H 161.721 1.69176 -0.133313 0
M  V30 1591 H 160.493 3.91292 0.0248896 0
M  V30 1592 H 160.116 3.58987 1.70921 0
M  V30 1593 N 161.113 -0.173488 1.56642 0
M  V30 1594 C 162.063 -1.21941 1.92651 0
M  V30 1595 C 163.047 -1.39912 0.794577 0
M  V30 1596 O 164.239 -1.41919 1.05773 0
M  V30 1597 C 161.368 -2.55935 2.28806 0
M  V30 1598 C 160.454 -2.41667 3.48508 0
M  V30 1599 N 160.845 -1.9711 4.65813 0
M  V30 1600 C 159.143 -2.72499 3.53072 0
M  V30 1601 C 159.844 -1.95253 5.47952 0
M  V30 1602 N 158.82 -2.37575 4.88937 0
M  V30 1603 H 162.622 -0.866581 2.80834 0
M  V30 1604 H 160.136 -0.381776 1.57849 0
M  V30 1605 H 162.133 -3.31511 2.52797 0
M  V30 1606 H 160.793 -2.92022 1.41961 0
M  V30 1607 H 161.804 -1.67481 4.90072 0
M  V30 1608 H 158.481 -3.12639 2.767 0
M  V30 1609 H 159.871 -1.6252 6.51948 0
M  V30 1610 N 162.591 -1.51276 -0.441967 0
M  V30 1611 C 163.838 -1.63715 -1.19179 0
M  V30 1612 C 164.166 -0.351175 -1.91303 0
M  V30 1613 O 163.421 0.664524 -1.84072 0
M  V30 1614 C 163.72 -2.78746 -2.23686 0
M  V30 1615 C 163.386 -4.18189 -1.68607 0
M  V30 1616 C 162.048 -4.56125 -1.53308 0
M  V30 1617 C 164.4 -5.05222 -1.28062 0
M  V30 1618 C 161.728 -5.78804 -0.959317 0
M  V30 1619 C 164.08 -6.28476 -0.721162 0
M  V30 1620 C 162.744 -6.65188 -0.55504 0
M  V30 1621 H 162.014 -0.599076 -0.436106 0
M  V30 1622 H 164.661 -1.85296 -0.48351 0
M  V30 1623 H 162.966 -2.51369 -3.00535 0
M  V30 1624 H 164.663 -2.8557 -2.81515 0
M  V30 1625 H 161.253 -3.88277 -1.8149 0
M  V30 1626 H 165.437 -4.76524 -1.38704 0
M  V30 1627 H 160.693 -6.05899 -0.81833 0
M  V30 1628 H 164.867 -6.95259 -0.398458 0
M  V30 1629 H 162.494 -7.60123 -0.108311 0
M  V30 1630 N 164.069 0.697108 -1.41344 0
M  V30 1631 C 165.48 1.27697 -1.36199 0
M  V30 1632 C 165.831 1.9615 -0.0443463 0
M  V30 1633 O 164.956 1.98689 0.857419 0
M  V30 1634 C 165.551 2.32223 -2.46694 0
M  V30 1635 C 164.11 2.8579 -2.44952 0
M  V30 1636 C 163.257 1.59807 -2.26621 0
M  V30 1637 H 166.208 0.491968 -1.50882 0
M  V30 1638 H 166.229 3.1348 -2.15664 0
M  V30 1639 H 165.741 1.82373 -3.42581 0
M  V30 1640 H 163.842 3.3982 -1.52817 0
M  V30 1641 H 163.955 3.36325 -3.41207 0
M  V30 1642 H 162.319 1.8556 -1.7447 0
M  V30 1643 H 163.102 1.11956 -3.24532 0
M  V30 1644 N 165.547 1.27147 0.931209 0
M  V30 1645 C 166.497 1.06227 2.01742 0
M  V30 1646 C 167.481 -0.00859065 1.60898 0
M  V30 1647 O 168.673 0.209537 1.75755 0
M  V30 1648 C 165.802 0.707787 3.35924 0
M  V30 1649 C 164.888 1.81661 3.83223 0
M  V30 1650 N 165.279 3.05564 4.03069 0
M  V30 1651 C 163.577 1.70249 4.12227 0
M  V30 1652 C 164.278 3.77697 4.42403 0
M  V30 1653 N 163.254 3.0544 4.49675 0
M  V30 1654 H 167.056 2.00261 2.15111 0
M  V30 1655 H 164.57 1.1781 1.11779 0
M  V30 1656 H 166.567 0.539043 4.134 0
M  V30 1657 H 165.227 -0.224964 3.2392 0
M  V30 1658 H 166.238 3.41363 3.89476 0
M  V30 1659 H 162.915 0.840329 4.08956 0
M  V30 1660 H 164.305 4.84168 4.65866 0
M  V30 1661 N 167.025 -1.13721 1.09112 0
M  V30 1662 C 168.25 -1.89314 0.847053 0
M  V30 1663 C 168.675 -1.78416 -0.595774 0
M  V30 1664 O 168.033 -1.12942 -1.41823 0
M  V30 1665 C 168.081 -3.3701 1.28284 0
M  V30 1666 O 167.185 -4.10054 0.439267 0
M  V30 1667 H 166.526 -0.588745 0.307044 0
M  V30 1668 H 169.056 -1.43902 1.45442 0
M  V30 1669 H 169.066 -3.87834 1.26683 0
M  V30 1670 H 167.741 -3.4426 2.33363 0
M  V30 1671 H 166.318 -3.69266 0.519312 0
M  V30 1672 N 168.503 -0.877838 -1.30888 0
M  V30 1673 C 169.466 -0.344265 -2.266 0
M  V30 1674 C 170.466 0.50922 -1.52524 0
M  V30 1675 O 171.656 0.317398 -1.71284 0
M  V30 1676 C 168.788 0.510198 -3.37061 0
M  V30 1677 H 169.981 -1.1893 -2.7531 0
M  V30 1678 H 167.534 -0.654088 -1.41956 0
M  V30 1679 H 168.269 1.37612 -2.93655 0
M  V30 1680 H 168.054 -0.101047 -3.9197 0
M  V30 1681 H 169.544 0.875537 -4.08319 0
M  V30 1682 N 169.982 1.44106 -0.638065 0
M  V30 1683 C 170.912 2.33448 0.0494287 0
M  V30 1684 C 171.893 1.48606 0.827672 0
M  V30 1685 O 173.078 1.77308 0.792173 0
M  V30 1686 C 170.208 3.31771 1.02691 0
M  V30 1687 C 169.162 4.26485 0.359823 0
M  V30 1688 C 168.488 5.14729 1.44769 0
M  V30 1689 C 169.788 5.17056 -0.738296 0
M  V30 1690 H 171.482 2.91183 -0.696636 0
M  V30 1691 H 169.028 1.40014 -0.336456 0
M  V30 1692 H 170.981 3.93161 1.51666 0
M  V30 1693 H 169.705 2.7226 1.80395 0
M  V30 1694 H 168.364 3.66437 -0.10934 0
M  V30 1695 H 168.012 4.51566 2.21578 0
M  V30 1696 H 167.712 5.78913 1.00668 0
M  V30 1697 H 169.236 5.78991 1.93911 0
M  V30 1698 H 170.65 5.72342 -0.331354 0
M  V30 1699 H 169.047 5.89879 -1.10286 0
M  V30 1700 H 170.117 4.57652 -1.60258 0
M  V30 1701 N 171.46 0.379036 1.52974 0
M  V30 1702 C 172.37 -0.468639 2.29872 0
M  V30 1703 C 173.386 -1.08067 1.36373 0
M  V30 1704 O 174.562 -1.08871 1.69438 0
M  V30 1705 C 171.627 -1.58594 3.083 0
M  V30 1706 C 170.688 -1.00007 4.17489 0
M  V30 1707 C 169.921 -2.06413 4.92168 0
M  V30 1708 O 170.144 -3.27751 4.66835 0
M  V30 1709 O 169.078 -1.68717 5.7777 0
M  V30 1710 H 172.904 0.157508 3.03291 0
M  V30 1711 H 170.489 0.143035 1.48714 0
M  V30 1712 H 172.371 -2.23525 3.57232 0
M  V30 1713 H 171.046 -2.19724 2.37703 0
M  V30 1714 H 169.953 -0.314299 3.72777 0
M  V30 1715 H 171.286 -0.433135 4.90291 0
M  V30 1716 N 172.938 -1.57226 0.108567 0
M  V30 1717 C 173.886 -2.16002 -0.862885 0
M  V30 1718 C 174.88 -1.10644 -1.28274 0
M  V30 1719 O 176.086 -1.28966 -1.2557 0
M  V30 1720 H 172.461 -0.691148 -0.296342 0
M  V30 1721 H 174.432 -2.96427 -0.342575 0
M  V30 1722 C 173.181 -2.76576 -2.10716 0
M  V30 1723 H 172.504 -3.5734 -1.793 0
M  V30 1724 H 173.944 -3.21253 -2.76717 0
M  V30 1725 C 172.403 -1.73137 -2.89007 0
M  V30 1726 O 172.933 -1.17842 -3.84026 0
M  V30 1727 N 171.139 -1.43317 -2.52801 0
M  V30 1728 H 170.686 -1.88473 -1.75601 0
M  V30 1729 H 170.644 -0.743485 -3.05483 0
M  V30 1730 N 174.416 0.165178 -1.56732 0
M  V30 1731 C 175.379 1.18822 -1.95995 0
M  V30 1732 C 176.379 1.3685 -0.84431 0
M  V30 1733 O 177.569 1.34152 -1.11126 0
M  V30 1734 C 174.701 2.5521 -2.26011 0
M  V30 1735 H 175.894 0.851825 -2.87548 0
M  V30 1736 H 173.447 0.407857 -1.50885 0
M  V30 1737 H 174.182 2.93852 -1.37191 0
M  V30 1738 H 173.967 2.43489 -3.07336 0
M  V30 1739 H 175.457 3.28927 -2.57288 0
M  V30 1740 N 175.894 1.51508 0.433938 0
M  V30 1741 C 176.857 1.72473 1.50949 0
M  V30 1742 C 177.857 0.594725 1.49398 0
M  V30 1743 O 179.047 0.862315 1.5136 0
M  V30 1744 C 176.179 1.78431 2.90474 0
M  V30 1745 H 177.372 2.68467 1.33662 0
M  V30 1746 H 174.925 1.41549 0.662836 0
M  V30 1747 H 175.66 0.842645 3.13161 0
M  V30 1748 H 175.445 2.60558 2.93005 0
M  V30 1749 H 176.935 1.96479 3.68491 0
M  V30 1750 N 177.372 -0.689602 1.41712 0
M  V30 1751 C 178.649 -1.44457 1.31877 0
M  V30 1752 C 179.029 -2.11039 -0.0508537 0
M  V30 1753 O 178.377 -2.02138 -1.06547 0
M  V30 1754 C 178.587 -2.45913 2.47645 0
M  V30 1755 C 179.935 -3.10991 2.89084 0
M  V30 1756 O 180.959 -2.56238 2.47428 0
M  V30 1757 O 179.818 -4.10174 3.61137 0
M  V30 1758 H 176.912 -0.64362 0.519309 0
M  V30 1759 H 179.458 -0.719576 1.53689 0
M  V30 1760 H 178.23 -1.95409 3.39015 0
M  V30 1761 H 177.853 -3.25913 2.27742 0
M  V30 1762 N 178.85 -1.27639 -0.924453 0
M  V30 1763 C 179.78 -1.13166 -2.04244 0
M  V30 1764 C 180.761 -0.032256 -1.70069 0
M  V30 1765 O 181.946 -0.207328 -1.9309 0
M  V30 1766 C 179.076 -0.781496 -3.38393 0
M  V30 1767 C 178.03 -1.83449 -3.86692 0
M  V30 1768 C 177.356 -1.33822 -5.17683 0
M  V30 1769 C 178.656 -3.23917 -4.09726 0
M  V30 1770 H 180.35 -2.06689 -2.1661 0
M  V30 1771 H 177.896 -0.995136 -1.04082 0
M  V30 1772 H 179.849 -0.667057 -4.16087 0
M  V30 1773 H 178.573 0.189439 -3.2605 0
M  V30 1774 H 177.232 -1.93789 -3.11193 0
M  V30 1775 H 176.88 -0.35665 -5.01734 0
M  V30 1776 H 176.58 -2.04224 -5.50968 0
M  V30 1777 H 178.104 -1.23679 -5.97943 0
M  V30 1778 H 179.518 -3.16559 -4.77978 0
M  V30 1779 H 177.915 -3.92059 -4.54324 0
M  V30 1780 H 178.985 -3.68729 -3.14908 0
M  V30 1781 N 180.328 1.1314 -1.09713 0
M  V30 1782 C 181.553 1.88862 -0.857081 0
M  V30 1783 C 181.978 1.78729 0.586304 0
M  V30 1784 O 181.336 1.13692 1.41222 0
M  V30 1785 C 181.384 3.36325 -1.30069 0
M  V30 1786 O 180.488 4.09815 -0.461007 0
M  V30 1787 H 179.829 0.587108 -0.310162 0
M  V30 1788 H 182.359 1.43129 -1.46203 0
M  V30 1789 H 182.369 3.87157 -1.28738 0
M  V30 1790 H 181.044 3.43017 -2.35185 0
M  V30 1791 H 179.621 3.68986 -0.538888 0
M  V30 1792 N 181.806 0.884767 1.30421 0
M  V30 1793 C 182.736 0.367574 2.30589 0
M  V30 1794 C 183.717 -0.549464 1.60981 0
M  V30 1795 O 184.902 -0.46336 1.88591 0
M  V30 1796 C 182.032 -0.418944 3.44764 0
M  V30 1797 C 180.986 0.406316 4.26067 0
M  V30 1798 C 180.312 -0.506793 5.32293 0
M  V30 1799 C 181.612 1.64832 4.95608 0
M  V30 1800 H 183.306 1.20462 2.74097 0
M  V30 1801 H 180.852 0.580695 1.31772 0
M  V30 1802 H 182.805 -0.791395 4.13902 0
M  V30 1803 H 181.529 -1.28964 3.0006 0
M  V30 1804 H 180.188 0.760903 3.58617 0
M  V30 1805 H 179.836 -1.37519 4.83836 0
M  V30 1806 H 179.536 0.0415828 5.87585 0
M  V30 1807 H 181.06 -0.875764 6.04287 0
M  V30 1808 H 182.474 1.34646 5.57264 0
M  V30 1809 H 180.871 2.13688 5.60765 0
M  V30 1810 H 181.941 2.39284 4.21748 0
M  V30 1811 N 183.284 -1.43765 0.645699 0
M  V30 1812 C 184.217 -2.2798 -0.100072 0
M  V30 1813 C 185.195 -1.39391 -0.837194 0
M  V30 1814 O 186.379 -1.68833 -0.838306 0
M  V30 1815 C 183.506 -3.18643 -1.14823 0
M  V30 1816 C 182.552 -4.2344 -0.510009 0
M  V30 1817 S 183.385 -5.30761 0.710824 0
M  V30 1818 C 184.541 -6.24992 -0.33699 0
M  V30 1819 H 184.774 -2.90884 0.614322 0
M  V30 1820 H 182.307 -1.48166 0.434304 0
M  V30 1821 H 184.265 -3.71424 -1.74799 0
M  V30 1822 H 182.926 -2.54932 -1.8349 0
M  V30 1823 H 182.119 -4.86948 -1.29991 0
M  V30 1824 H 181.721 -3.73997 0.0154577 0
M  V30 1825 H 184.013 -6.66691 -1.20537 0
M  V30 1826 H 184.956 -7.07612 0.262879 0
M  V30 1827 H 185.364 -5.60517 -0.669425 0
M  V30 1828 N 184.763 -0.387143 -1.52771 0
M  V30 1829 C 185.726 0.436939 -2.24997 0
M  V30 1830 C 186.726 0.991991 -1.26555 0
M  V30 1831 O 187.916 0.874335 -1.50669 0
M  V30 1832 C 185.048 1.61281 -3.00335 0
M  V30 1833 H 186.241 -0.195365 -2.99263 0
M  V30 1834 H 183.794 -0.139218 -1.55679 0
M  V30 1835 H 184.529 2.2826 -2.30364 0
M  V30 1836 H 184.314 1.22154 -3.72587 0
M  V30 1837 H 185.804 2.19629 -3.5518 0
M  V30 1838 N 186.241 1.57166 -0.116904 0
M  V30 1839 C 187.188 2.15202 0.83408 0
M  V30 1840 C 188.158 1.07644 1.26499 0
M  V30 1841 O 189.343 1.35541 1.34288 0
M  V30 1842 C 186.483 2.75405 2.07957 0
M  V30 1843 C 185.596 3.97264 1.69721 0
M  V30 1844 C 184.731 4.45561 2.89221 0
M  V30 1845 C 183.77 5.59956 2.47215 0
M  V30 1846 N 182.907 6.03006 3.59622 0
M  V30 1847 H 187.747 2.96141 0.332335 0
M  V30 1848 H 185.284 1.46309 0.152349 0
M  V30 1849 H 187.242 3.08439 2.80929 0
M  V30 1850 H 185.872 1.97159 2.55594 0
M  V30 1851 H 184.924 3.70404 0.866316 0
M  V30 1852 H 186.236 4.80226 1.34849 0
M  V30 1853 H 185.39 4.80493 3.7042 0
M  V30 1854 H 184.129 3.61544 3.27318 0
M  V30 1855 H 183.134 5.2463 1.64448 0
M  V30 1856 H 184.359 6.45738 2.10238 0
M  V30 1857 H 182.305 5.21931 3.97396 0
M  V30 1858 H 182.222 6.80819 3.28667 0
M  V30 1859 H 183.49 6.42576 4.41267 0
M  V30 1860 N 187.719 -0.156864 1.56817 0
M  V30 1861 C 188.682 -1.17781 1.96622 0
M  V30 1862 C 189.682 -1.36401 0.851555 0
M  V30 1863 O 190.872 -1.33561 1.11836 0
M  V30 1864 C 188.004 -2.54008 2.27361 0
M  V30 1865 H 189.197 -0.836564 2.87996 0
M  V30 1866 H 186.75 -0.39985 1.51099 0
M  V30 1867 H 187.485 -2.9312 1.38748 0
M  V30 1868 H 187.27 -2.41856 3.08623 0
M  V30 1869 H 188.76 -3.27558 2.59029 0
M  V30 1870 N 189.197 -1.51736 -0.425897 0
M  V30 1871 C 190.613 -1.40166 -0.76326 0
M  V30 1872 C 190.813 -0.492962 -1.95377 0
M  V30 1873 O 189.869 0.0475815 -2.52455 0
M  V30 1874 C 191.182 -2.82403 -1.03291 0
M  V30 1875 C 192.73 -2.91632 -1.13665 0
M  V30 1876 C 193.205 -4.34801 -1.43916 0
M  V30 1877 N 194.696 -4.3796 -1.50816 0
M  V30 1878 C 195.431 -5.4578 -1.75817 0
M  V30 1879 N 194.927 -6.63744 -1.98534 0
M  V30 1880 N 196.72 -5.33274 -1.77694 0
M  V30 1881 H 188.871 -2.09361 0.358 0
M  V30 1882 H 191.134 -0.942941 0.0978094 0
M  V30 1883 H 190.84 -3.50943 -0.230696 0
M  V30 1884 H 190.714 -3.22428 -1.95754 0
M  V30 1885 H 193.101 -2.23284 -1.92947 0
M  V30 1886 H 193.182 -2.55088 -0.190756 0
M  V30 1887 H 192.826 -5.03703 -0.65157 0
M  V30 1888 H 192.756 -4.68868 -2.39729 0
M  V30 1889 H 195.247 -3.52919 -1.35118 0
M  V30 1890 H 195.56 -7.41704 -2.17013 0
M  V30 1891 H 193.905 -6.66839 -1.95832 0
M  V30 1892 H 197.096 -4.40098 -1.59473 0
M  V30 1893 H 197.269 -6.1738 -1.9684 0
M  V30 1894 N 190.675 0.682077 -1.42076 0
M  V30 1895 C 191.638 1.77756 -1.44691 0
M  V30 1896 C 192.638 1.5726 -0.335535 0
M  V30 1897 O 193.828 1.63686 -0.596037 0
M  V30 1898 C 190.96 3.16301 -1.27146 0
M  V30 1899 H 192.153 1.76826 -2.42224 0
M  V30 1900 H 189.706 0.891012 -1.28416 0
M  V30 1901 H 190.441 3.22862 -0.305075 0
M  V30 1902 H 190.226 3.32581 -2.07683 0
M  V30 1903 H 191.716 3.96241 -1.31843 0
M  V30 1904 N 192.153 1.28127 0.917671 0
M  V30 1905 C 193.401 1.14825 1.66312 0
M  V30 1906 C 193.722 -0.304379 1.9261 0
M  V30 1907 O 192.992 -1.21149 1.53947 0
M  V30 1908 H 191.572 0.421953 0.616413 0
M  V30 1909 H 194.234 1.608 1.10134 0
M  V30 1910 H 193.33 1.68489 2.62712 0
M  V30 1911 N 193.631 -1.12557 1.10312 0
M  V30 1912 C 194.878 -1.84038 0.844759 0
M  V30 1913 C 195.206 -1.84026 -0.629668 0
M  V30 1914 O 194.461 -1.28026 -1.48013 0
M  V30 1915 C 194.76 -3.31462 1.33669 0
M  V30 1916 C 194.426 -3.51647 2.82232 0
M  V30 1917 C 193.088 -3.56864 3.22802 0
M  V30 1918 C 195.44 -3.58867 3.77974 0
M  V30 1919 C 192.768 -3.66844 4.57867 0
M  V30 1920 C 195.12 -3.70375 5.1284 0
M  V30 1921 C 193.784 -3.73848 5.52986 0
M  V30 1922 H 193.054 -0.673444 0.309119 0
M  V30 1923 H 195.701 -1.32824 1.37949 0
M  V30 1924 H 194.006 -3.85091 0.721949 0
M  V30 1925 H 195.703 -3.85236 1.11329 0
M  V30 1926 H 192.293 -3.48249 2.49842 0
M  V30 1927 H 196.477 -3.54107 3.47738 0
M  V30 1928 H 191.733 -3.67804 4.88396 0
M  V30 1929 H 195.907 -3.74904 5.86873 0
M  V30 1930 H 193.534 -3.81333 6.57639 0
M  V30 1931 N 195.109 -0.891671 -1.2995 0
M  V30 1932 C 196.059 -0.334811 -2.25528 0
M  V30 1933 C 197.043 0.540553 -1.51548 0
M  V30 1934 O 198.235 0.383882 -1.72787 0
M  V30 1935 C 195.364 0.44374 -3.4042 0
M  V30 1936 C 194.45 -0.44609 -4.21747 0
M  V30 1937 N 194.841 -1.54963 -4.81477 0
M  V30 1938 C 193.139 -0.242415 -4.45341 0
M  V30 1939 C 193.84 -2.10015 -5.42465 0
M  V30 1940 N 192.816 -1.39423 -5.25416 0
M  V30 1941 H 196.618 -1.17792 -2.69262 0
M  V30 1942 H 194.132 -0.741822 -1.44467 0
M  V30 1943 H 196.129 0.859362 -4.07947 0
M  V30 1944 H 194.789 1.28421 -2.98225 0
M  V30 1945 H 195.8 -1.93244 -4.80497 0
M  V30 1946 H 192.477 0.560342 -4.13723 0
M  V30 1947 H 193.867 -3.02724 -5.9984 0
M  V30 1948 N 196.587 1.43421 -0.653314 0
M  V30 1949 C 197.835 2.01414 -0.166415 0
M  V30 1950 C 198.156 1.51803 1.22397 0
M  V30 1951 O 197.426 0.730693 1.81763 0
M  V30 1952 H 196.006 0.744703 -0.0585319 0
M  V30 1953 H 198.668 1.75629 -0.845003 0
M  V30 1954 H 197.764 3.11734 -0.151111 0
M  V30 1955 N 198.065 0.39524 1.52563 0
M  V30 1956 C 199.476 -0.0774719 1.86539 0
M  V30 1957 C 199.827 -1.45641 1.31466 0
M  V30 1958 O 198.952 -2.06459 0.648367 0
M  V30 1959 C 199.547 -0.147356 3.38479 0
M  V30 1960 C 198.106 -0.564373 3.72145 0
M  V30 1961 C 197.253 0.269919 2.75983 0
M  V30 1962 H 200.204 0.612876 1.46388 0
M  V30 1963 H 200.225 -0.965343 3.68051 0
M  V30 1964 H 199.737 0.856387 3.78534 0
M  V30 1965 H 197.838 -1.57527 3.37663 0
M  V30 1966 H 197.951 -0.318402 4.78041 0
M  V30 1967 H 196.315 -0.265696 2.5331 0
M  V30 1968 H 197.098 1.27175 3.18875 0
M  V30 1969 N 199.544 -1.57102 0.125237 0
M  V30 1970 C 200.477 -2.11371 -0.860094 0
M  V30 1971 C 201.455 -1.03168 -1.25679 0
M  V30 1972 O 202.639 -1.30862 -1.35674 0
M  V30 1973 C 199.766 -2.61555 -2.1519 0
M  V30 1974 C 198.812 -3.81701 -1.9028 0
M  V30 1975 S 199.645 -5.23797 -1.11343 0
M  V30 1976 C 200.801 -5.77353 -2.41689 0
M  V30 1977 H 201.034 -2.94617 -0.39852 0
M  V30 1978 H 198.567 -1.54145 -0.0886555 0
M  V30 1979 H 200.525 -2.91122 -2.89411 0
M  V30 1980 H 199.186 -1.78479 -2.58465 0
M  V30 1981 H 198.379 -4.14985 -2.86014 0
M  V30 1982 H 197.981 -3.52783 -1.24178 0
M  V30 1983 H 200.273 -5.87458 -3.37489 0
M  V30 1984 H 201.216 -6.75323 -2.12942 0
M  V30 1985 H 201.624 -5.05457 -2.51342 0
M  V30 1986 N 201.022 0.148545 -1.56898 0
M  V30 1987 C 202.27 0.859717 -1.82902 0
M  V30 1988 C 202.591 1.81775 -0.70588 0
M  V30 1989 O 201.861 1.93994 0.272586 0
M  V30 1990 H 200.441 0.320469 -0.674766 0
M  V30 1991 H 203.103 0.142918 -1.94375 0
M  V30 1992 H 202.199 1.4229 -2.77777 0
M  V30 1993 N 202.5 1.5196 0.417844 0
M  V30 1994 C 203.728 1.69426 1.18753 0
M  V30 1995 C 204.143 0.399955 1.84515 0
M  V30 1996 O 203.5 -0.623288 1.71527 0
M  V30 1997 C 203.551 2.82375 2.25714 0
M  V30 1998 O 203.272 4.06793 1.62638 0
M  V30 1999 C 204.773 3.11277 3.15628 0
M  V30 2000 H 201.993 0.568031 0.357186 0
M  V30 2001 H 204.537 1.98475 0.49273 0
M  V30 2002 H 202.692 2.5587 2.90877 0
M  V30 2003 H 203.106 4.69667 2.3348 0
M  V30 2004 H 204.58 3.93843 3.86771 0
M  V30 2005 H 205.057 2.24473 3.77503 0
M  V30 2006 H 205.663 3.39515 2.56144 0
M  V30 2007 N 203.978 -0.674533 1.42435 0
M  V30 2008 C 205.226 -1.43175 1.42637 0
M  V30 2009 C 205.547 -1.94951 0.0438992 0
M  V30 2010 O 204.817 -1.7308 -0.917607 0
M  V30 2011 H 203.397 -0.531307 0.525092 0
M  V30 2012 H 206.059 -0.797006 1.77859 0
M  V30 2013 H 205.155 -2.28463 2.12629 0
M  V30 2014 N 205.456 -1.28612 -0.910864 0
M  V30 2015 C 206.705 -1.15311 -1.65488 0
M  V30 2016 C 207.018 0.296999 -1.93332 0
M  V30 2017 O 208.224 0.551168 -2.65847 0
M  V30 2018 C 206.68 -2.01599 -2.98137 0
M  V30 2019 C 206.288 -3.51367 -2.7793 0
M  V30 2020 C 208.032 -1.96993 -3.76024 0
M  V30 2021 C 205.939 -4.29797 -4.06237 0
M  V30 2022 H 204.869 -0.42796 -0.620779 0
M  V30 2023 H 207.52 -1.53166 -1.01057 0
M  V30 2024 H 205.902 -1.56603 -3.63719 0
M  V30 2025 H 207.076 -4.0434 -2.21011 0
M  V30 2026 H 205.391 -3.57529 -2.13452 0
M  V30 2027 H 207.988 -2.52856 -4.71135 0
M  V30 2028 H 208.331 -0.94733 -4.05378 0
M  V30 2029 H 208.864 -2.39973 -3.17266 0
M  V30 2030 H 205.603 -5.32648 -3.82055 0
M  V30 2031 H 205.123 -3.81596 -4.62757 0
M  V30 2032 H 206.802 -4.39869 -4.74473 0
M  V30 2033 N 206.934 1.1197 -1.10907 0
M  V30 2034 C 208.159 1.87942 -0.877064 0
M  V30 2035 C 208.584 1.79341 0.567314 0
M  V30 2036 O 207.942 1.15184 1.40009 0
M  V30 2037 C 207.99 3.34926 -1.33629 0
M  V30 2038 O 207.094 4.09303 -0.504447 0
M  V30 2039 H 206.435 0.583785 -0.316371 0
M  V30 2040 H 208.965 1.4157 -1.47712 0
M  V30 2041 H 208.975 3.8577 -1.32837 0
M  V30 2042 H 207.65 3.40504 -2.3881 0
M  V30 2043 H 206.227 3.68393 -0.577993 0
M  V30 2044 N 208.412 0.89855 1.29475 0
M  V30 2045 C 209.344 0.332726 2.26772 0
M  V30 2046 C 210.357 -0.520323 1.54261 0
M  V30 2047 O 211.546 -0.337668 1.75277 0
M  V30 2048 C 208.646 -0.544334 3.345 0
M  V30 2049 C 207.819 0.282728 4.36485 0
M  V30 2050 C 206.878 -0.526982 5.23555 0
M  V30 2051 O 205.904 0.0551165 5.69173 0
M  V30 2052 N 207.106 -1.83331 5.5079 0
M  V30 2053 H 209.871 1.16897 2.75962 0
M  V30 2054 H 207.432 0.762919 1.42798 0
M  V30 2055 H 209.424 -1.09239 3.89678 0
M  V30 2056 H 207.994 -1.28127 2.85136 0
M  V30 2057 H 207.214 1.01221 3.80983 0
M  V30 2058 H 208.502 0.84918 5.01664 0
M  V30 2059 H 207.9 -2.32898 5.15534 0
M  V30 2060 H 206.457 -2.32852 6.08788 0
M  V30 2061 N 209.89 -1.43072 0.660911 0
M  V30 2062 C 210.82 -2.33497 -0.0122829 0
M  V30 2063 C 211.801 -1.49903 -0.803925 0
M  V30 2064 O 212.986 -1.78546 -0.763864 0
M  V30 2065 C 210.116 -3.33363 -0.973994 0
M  V30 2066 C 209.07 -4.27003 -0.291928 0
M  V30 2067 C 208.396 -5.16967 -1.36562 0
M  V30 2068 C 209.696 -5.15816 0.820462 0
M  V30 2069 H 211.39 -2.90038 0.742873 0
M  V30 2070 H 208.936 -1.39461 0.358688 0
M  V30 2071 H 210.889 -3.95524 -1.45392 0
M  V30 2072 H 209.613 -2.75095 -1.7604 0
M  V30 2073 H 208.272 -3.66217 0.167623 0
M  V30 2074 H 207.92 -4.55034 -2.14366 0
M  V30 2075 H 207.62 -5.80441 -0.914454 0
M  V30 2076 H 209.144 -5.82003 -1.84675 0
M  V30 2077 H 210.558 -5.71742 0.422366 0
M  V30 2078 H 208.955 -5.8805 1.19656 0
M  V30 2079 H 210.025 -4.55045 1.67518 0
M  V30 2080 N 211.368 -0.403325 -1.52352 0
M  V30 2081 C 212.615 0.174347 -2.01748 0
M  V30 2082 C 212.943 1.45636 -1.2892 0
M  V30 2083 O 212.198 1.9193 -0.382258 0
M  V30 2084 C 212.497 0.474665 -3.54234 0
M  V30 2085 C 212.163 -0.717458 -4.45155 0
M  V30 2086 C 210.825 -1.04447 -4.69728 0
M  V30 2087 C 213.177 -1.51432 -4.98716 0
M  V30 2088 C 210.505 -2.16963 -5.45109 0
M  V30 2089 C 212.857 -2.6302 -5.75329 0
M  V30 2090 C 211.521 -2.96213 -5.98175 0
M  V30 2091 H 210.791 0.0637981 -0.738248 0
M  V30 2092 H 213.438 -0.543553 -1.83624 0
M  V30 2093 H 211.743 1.27406 -3.70506 0
M  V30 2094 H 213.44 0.934496 -3.89959 0
M  V30 2095 H 210.03 -0.452596 -4.26204 0
M  V30 2096 H 214.214 -1.27491 -4.79645 0
M  V30 2097 H 209.47 -2.43034 -5.61021 0
M  V30 2098 H 213.644 -3.25158 -6.15829 0
M  V30 2099 H 211.271 -3.83516 -6.56368 0
M  V30 2100 N 212.846 1.57033 -0.133567 0
M  V30 2101 C 213.794 2.17348 0.828412 0
M  V30 2102 C 214.788 1.12671 1.26498 0
M  V30 2103 O 215.994 1.30947 1.23502 0
M  V30 2104 H 212.369 0.695775 0.285309 0
M  V30 2105 H 214.34 2.96935 0.295372 0
M  V30 2106 C 213.089 2.79893 2.06289 0
M  V30 2107 H 212.412 3.60147 1.73592 0
M  V30 2108 H 213.852 3.25615 2.71572 0
M  V30 2109 C 212.311 1.77713 2.86216 0
M  V30 2110 O 212.841 1.23937 3.82103 0
M  V30 2111 N 211.047 1.47321 2.50489 0
M  V30 2112 H 210.594 1.91243 1.7258 0
M  V30 2113 H 210.552 0.79199 3.04261 0
M  V30 2114 N 214.325 -0.140222 1.56975 0
M  V30 2115 C 215.573 -0.850005 1.83356 0
M  V30 2116 C 215.894 -1.81399 0.71551 0
M  V30 2117 O 215.164 -1.94136 -0.262294 0
M  V30 2118 H 213.744 -0.316886 0.676456 0
M  V30 2119 H 216.406 -0.132608 1.94448 0
M  V30 2120 H 215.502 -1.40814 2.78528 0
M  V30 2121 N 215.803 -1.52179 -0.40978 0
M  V30 2122 C 217.052 -1.65434 -1.15388 0
M  V30 2123 C 217.365 -0.390056 -1.91671 0
M  V30 2124 O 218.571 -0.402399 -2.68501 0
M  V30 2125 C 217.027 -2.92279 -2.10003 0
M  V30 2126 C 216.635 -4.25813 -1.39239 0
M  V30 2127 C 218.379 -3.14897 -2.84675 0
M  V30 2128 C 216.286 -5.43782 -2.32498 0
M  V30 2129 H 215.216 -0.616267 -0.434432 0
M  V30 2130 H 217.867 -1.78666 -0.418401 0
M  V30 2131 H 216.249 -2.72744 -2.871 0
M  V30 2132 H 217.423 -4.55828 -0.675099 0
M  V30 2133 H 215.738 -4.09292 -0.766097 0
M  V30 2134 H 218.335 -4.0021 -3.54593 0
M  V30 2135 H 218.678 -2.29103 -3.47588 0
M  V30 2136 H 219.211 -3.34901 -2.14677 0
M  V30 2137 H 215.95 -6.3192 -1.74233 0
M  V30 2138 H 215.47 -5.18106 -3.02201 0
M  V30 2139 H 217.149 -5.76834 -2.93038 0
M  V30 2140 N 217.281 0.66697 -1.42791 0
M  V30 2141 C 218.529 1.42417 -1.43394 0
M  V30 2142 C 218.85 1.94925 -0.0542373 0
M  V30 2143 O 218.12 1.73564 0.908415 0
M  V30 2144 H 216.7 0.528515 -0.527902 0
M  V30 2145 H 219.362 0.787562 -1.78279 0
M  V30 2146 H 218.458 2.27333 -2.13837 0
M  V30 2147 N 218.759 1.29093 0.90403 0
M  V30 2148 C 220.007 1.16583 1.65085 0
M  V30 2149 C 220.328 -0.283933 1.92922 0
M  V30 2150 O 219.598 -1.19509 1.55224 0
M  V30 2151 H 218.178 0.428467 0.611903 0
M  V30 2152 H 220.84 1.61959 1.08422 0
M  V30 2153 H 219.936 1.71266 2.6091 0
M  V30 2154 N 220.237 -1.11381 1.11499 0
M  V30 2155 C 221.648 -1.6465 0.880191 0
M  V30 2156 C 221.999 -1.87199 -0.587434 0
M  V30 2157 O 221.124 -1.60667 -1.44966 0
M  V30 2158 C 221.719 -2.99105 1.59128 0
M  V30 2159 C 220.278 -3.49279 1.40289 0
M  V30 2160 C 219.425 -2.24077 1.63354 0
M  V30 2161 H 222.376 -0.950123 1.27116 0
M  V30 2162 H 222.397 -3.66107 1.03664 0
M  V30 2163 H 221.909 -2.82661 2.65941 0
M  V30 2164 H 220.01 -3.70887 0.356888 0
M  V30 2165 H 220.123 -4.2803 2.15238 0
M  V30 2166 H 218.487 -2.31733 1.05698 0
M  V30 2167 H 219.27 -2.10175 2.71443 0
M  V30 2168 N 221.715 -0.905404 -1.28997 0
M  V30 2169 C 222.625 -0.392246 -2.31298 0
M  V30 2170 C 223.641 0.515889 -1.66176 0
M  V30 2171 O 224.817 0.404093 -1.97304 0
M  V30 2172 C 221.882 0.36686 -3.44754 0
M  V30 2173 C 220.943 -0.573485 -4.25452 0
M  V30 2174 C 220.176 0.149488 -5.33491 0
M  V30 2175 O 220.399 1.37255 -5.5364 0
M  V30 2176 O 219.333 -0.510919 -5.99728 0
M  V30 2177 H 223.159 -1.2411 -2.77183 0
M  V30 2178 H 220.744 -0.669926 -1.33538 0
M  V30 2179 H 222.626 0.795907 -4.13816 0
M  V30 2180 H 221.301 1.19169 -3.00966 0
M  V30 2181 H 220.208 -1.05176 -3.59011 0
M  V30 2182 H 221.541 -1.36489 -4.72897 0
M  V30 2183 N 223.193 1.4272 -0.668489 0
M  V30 2184 C 224.423 2.05668 -0.196063 0
M  V30 2185 C 224.831 1.5028 1.14946 0
M  V30 2186 O 224.174 0.6348 1.72383 0
M  V30 2187 C 224.236 3.59469 -0.0468879 0
M  V30 2188 C 223.9 4.37518 -1.32012 0
M  V30 2189 C 224.897 4.68584 -2.25222 0
M  V30 2190 C 222.582 4.77266 -1.56596 0
M  V30 2191 C 224.576 5.38326 -3.41297 0
M  V30 2192 C 222.263 5.4675 -2.72962 0
M  V30 2193 C 223.261 5.77204 -3.65137 0
M  V30 2194 O 222.949 6.45264 -4.79468 0
M  V30 2195 H 222.681 0.669382 -0.0943599 0
M  V30 2196 H 225.235 1.83954 -0.913788 0
M  V30 2197 H 223.465 3.79817 0.726357 0
M  V30 2198 H 225.154 4.04071 0.384852 0
M  V30 2199 H 225.92 4.38382 -2.07477 0
M  V30 2200 H 221.799 4.52959 -0.857249 0
M  V30 2201 H 225.343 5.62014 -4.13263 0
M  V30 2202 H 221.24 5.76369 -2.90635 0
M  V30 2203 H 222.008 6.63753 -4.78931 0
M  V30 2204 N 224.671 0.411399 1.52136 0
M  V30 2205 C 225.92 -0.165009 2.01024 0
M  V30 2206 C 226.233 -1.4603 1.30133 0
M  V30 2207 O 227.439 -2.1181 1.69849 0
M  V30 2208 C 225.895 -0.344618 3.58246 0
M  V30 2209 C 225.503 0.938716 4.38055 0
M  V30 2210 C 227.247 -0.876195 4.15359 0
M  V30 2211 C 225.154 0.726172 5.86925 0
M  V30 2212 H 224.084 -0.0654407 0.751155 0
M  V30 2213 H 226.735 0.537192 1.75461 0
M  V30 2214 H 225.117 -1.10921 3.80148 0
M  V30 2215 H 226.291 1.70963 4.27912 0
M  V30 2216 H 224.606 1.39688 3.92271 0
M  V30 2217 H 227.203 -1.05128 5.24263 0
M  V30 2218 H 227.546 -1.85152 3.7286 0
M  V30 2219 H 228.079 -0.170607 3.97434 0
M  V30 2220 H 224.818 1.67312 6.33788 0
M  V30 2221 H 224.338 -0.00540283 5.998 0
M  V30 2222 H 226.017 0.369231 6.45946 0
M  V30 2223 N 226.149 -1.5696 0.141893 0
M  V30 2224 C 227.379 -2.00031 -0.516828 0
M  V30 2225 C 227.787 -1.02091 -1.59293 0
M  V30 2226 O 227.13 -0.00909657 -1.83698 0
M  V30 2227 C 227.192 -3.39534 -1.1814 0
M  V30 2228 C 226.856 -4.56313 -0.250513 0
M  V30 2229 C 227.853 -5.17295 0.519839 0
M  V30 2230 C 225.538 -5.02061 -0.154907 0
M  V30 2231 C 227.532 -6.2243 1.3733 0
M  V30 2232 C 225.219 -6.07053 0.702161 0
M  V30 2233 C 226.217 -6.67106 1.46487 0
M  V30 2234 O 225.905 -7.70066 2.30767 0
M  V30 2235 H 225.637 -0.661451 -0.139493 0
M  V30 2236 H 228.191 -2.04086 0.231926 0
M  V30 2237 H 226.421 -3.32302 -1.97769 0
M  V30 2238 H 228.11 -3.66745 -1.73933 0
M  V30 2239 H 228.876 -4.82852 0.45598 0
M  V30 2240 H 224.755 -4.5505 -0.7383 0
M  V30 2241 H 228.299 -6.69233 1.96909 0
M  V30 2242 H 224.196 -6.40923 0.76733 0
M  V30 2243 H 224.964 -7.87264 2.23959 0
M  V30 2244 N 227.627 0.131896 -1.57047 0
M  V30 2245 C 228.852 0.860418 -1.8871 0
M  V30 2246 C 229.277 1.73251 -0.73251 0
M  V30 2247 O 228.635 1.785 0.317429 0
M  V30 2248 C 228.683 1.68047 -3.19049 0
M  V30 2249 O 227.787 2.7862 -3.04047 0
M  V30 2250 H 227.128 0.238743 -0.619595 0
M  V30 2251 H 229.658 0.118169 -2.04258 0
M  V30 2252 H 229.668 2.07238 -3.51449 0
M  V30 2253 H 228.343 1.04018 -4.02682 0
M  V30 2254 H 226.92 2.42726 -2.83088 0
M  V30 2255 N 229.106 1.52395 0.401703 0
M  V30 2256 C 230.352 1.67065 1.14966 0
M  V30 2257 C 230.685 0.403052 1.89971 0
M  V30 2258 O 229.96 -0.598774 1.85054 0
M  V30 2259 C 230.243 2.8975 2.13815 0
M  V30 2260 C 230.096 4.26578 1.42658 0
M  V30 2261 C 231.415 3.07965 3.14397 0
M  V30 2262 H 228.534 0.607968 0.416587 0
M  V30 2263 H 231.176 1.84965 0.434511 0
M  V30 2264 H 229.326 2.74619 2.74803 0
M  V30 2265 H 230.998 4.53451 0.847329 0
M  V30 2266 H 229.241 4.27639 0.72849 0
M  V30 2267 H 229.912 5.08483 2.14823 0
M  V30 2268 H 232.388 3.22043 2.63491 0
M  V30 2269 H 231.264 3.95308 3.80819 0
M  V30 2270 H 231.525 2.21611 3.82545 0
M  V30 2271 N 230.584 -0.659388 1.43143 0
M  V30 2272 C 231.514 -1.78422 1.50625 0
M  V30 2273 C 232.495 -1.66216 0.361443 0
M  V30 2274 O 233.68 -1.85404 0.577834 0
M  V30 2275 C 230.81 -3.16815 1.42287 0
M  V30 2276 C 229.764 -3.43777 2.54954 0
M  V30 2277 C 229.09 -4.81905 2.31671 0
M  V30 2278 C 230.39 -3.39134 3.97222 0
M  V30 2279 H 232.084 -1.72417 2.44771 0
M  V30 2280 H 229.63 -0.828084 1.17808 0
M  V30 2281 H 231.583 -3.95253 1.46127 0
M  V30 2282 H 230.307 -3.23534 0.446435 0
M  V30 2283 H 228.966 -2.67707 2.50457 0
M  V30 2284 H 228.614 -4.85294 1.32284 0
M  V30 2285 H 228.314 -5.00906 3.07192 0
M  V30 2286 H 229.838 -5.62609 2.37284 0
M  V30 2287 H 231.252 -4.07518 4.03239 0
M  V30 2288 H 229.649 -3.69671 4.72719 0
M  V30 2289 H 230.719 -2.37426 4.22797 0
M  V30 2290 N 232.062 -1.29571 -0.897171 0
M  V30 2291 C 233.29 -1.20583 -1.68129 0
M  V30 2292 C 233.705 0.233181 -1.87354 0
M  V30 2293 O 233.062 1.15579 -1.41236 0
M  V30 2294 C 233.113 -1.91772 -3.06441 0
M  V30 2295 O 232.834 -3.30053 -2.88091 0
M  V30 2296 C 234.335 -1.89291 -4.00854 0
M  V30 2297 H 231.555 -0.417826 -0.525036 0
M  V30 2298 H 234.099 -1.70987 -1.12177 0
M  V30 2299 H 232.254 -1.45196 -3.59161 0
M  V30 2300 H 232.668 -3.65942 -3.75748 0
M  V30 2301 H 234.142 -2.43662 -4.95311 0
M  V30 2302 H 234.619 -0.869014 -4.30517 0
M  V30 2303 H 235.225 -2.35622 -3.54066 0
M  V30 2304 N 233.54 1.10788 -1.12088 0
M  V30 2305 C 234.788 1.8231 -0.872205 0
M  V30 2306 C 235.109 1.85419 0.603709 0
M  V30 2307 O 234.379 1.32963 1.43867 0
M  V30 2308 H 232.959 0.675137 -0.319686 0
M  V30 2309 H 235.621 1.34068 -1.41463 0
M  V30 2310 H 234.717 2.85955 -1.25045 0
M  V30 2311 N 235.018 0.912232 1.28515 0
M  V30 2312 C 236.265 0.544599 1.95039 0
M  V30 2313 C 236.593 -0.911435 1.71823 0
M  V30 2314 O 235.848 -1.66317 1.03137 0
M  V30 2315 C 236.147 0.798392 3.48368 0
M  V30 2316 C 235.813 2.23374 3.91682 0
M  V30 2317 C 234.475 2.62617 4.03219 0
M  V30 2318 C 236.827 3.16786 4.13879 0
M  V30 2319 C 234.155 3.94429 4.3433 0
M  V30 2320 C 236.507 4.48161 4.46469 0
M  V30 2321 C 235.171 4.8726 4.56217 0
M  V30 2322 H 234.441 0.199283 0.7137 0
M  V30 2323 H 237.088 1.15327 1.52879 0
M  V30 2324 H 235.393 0.106908 3.91654 0
M  V30 2325 H 237.09 0.493141 3.97956 0
M  V30 2326 H 233.68 1.91922 3.83228 0
M  V30 2327 H 237.864 2.87677 4.0442 0
M  V30 2328 H 233.12 4.24426 4.40082 0
M  V30 2329 H 237.294 5.20559 4.62592 0
M  V30 2330 H 234.921 5.89431 4.80078 0
M  V30 2331 N 236.496 -1.42363 0.676048 0
M  V30 2332 C 237.907 -1.84649 0.275948 0
M  V30 2333 C 238.258 -1.56588 -1.18214 0
M  V30 2334 O 237.383 -1.02634 -1.90513 0
M  V30 2335 C 237.978 -3.35178 0.494053 0
M  V30 2336 C 236.537 -3.76109 0.148061 0
M  V30 2337 C 235.684 -2.65931 0.785891 0
M  V30 2338 H 238.635 -1.32192 0.878121 0
M  V30 2339 H 238.656 -3.79655 -0.25343 0
M  V30 2340 H 238.168 -3.55571 1.55535 0
M  V30 2341 H 236.269 -3.61323 -0.909742 0
M  V30 2342 H 236.382 -4.7546 0.589454 0
M  V30 2343 H 234.746 -2.53773 0.217113 0
M  V30 2344 H 235.529 -2.89146 1.85067 0
M  V30 2345 N 237.974 -0.419461 -1.51915 0
M  V30 2346 C 238.884 0.407528 -2.31033 0
M  V30 2347 C 239.9 1.04413 -1.3919 0
M  V30 2348 O 241.076 1.0434 -1.72265 0
M  V30 2349 C 238.141 1.50365 -3.12396 0
M  V30 2350 C 237.202 0.889029 -4.19994 0
M  V30 2351 C 236.435 1.93291 -4.97468 0
M  V30 2352 O 236.658 3.15259 -4.75361 0
M  V30 2353 O 235.592 1.53339 -5.8204 0
M  V30 2354 H 239.418 -0.237865 -3.02767 0
M  V30 2355 H 237.003 -0.182413 -1.48282 0
M  V30 2356 H 238.885 2.13975 -3.63032 0
M  V30 2357 H 237.56 2.13345 -2.43445 0
M  V30 2358 H 236.467 0.215353 -3.7348 0
M  V30 2359 H 237.8 0.302991 -4.91267 0
M  V30 2360 N 239.452 1.56882 -0.150215 0
M  V30 2361 C 240.362 2.20494 0.801222 0
M  V30 2362 C 241.378 1.19019 1.26927 0
M  V30 2363 O 242.554 1.51607 1.32579 0
M  V30 2364 C 239.619 2.81659 2.02161 0
M  V30 2365 C 238.68 3.9827 1.60249 0
M  V30 2366 C 237.913 4.56508 2.7647 0
M  V30 2367 O 238.136 4.13627 3.92771 0
M  V30 2368 O 237.07 5.46719 2.51757 0
M  V30 2369 H 240.896 3.02315 0.289717 0
M  V30 2370 H 238.481 1.49202 0.0769684 0
M  V30 2371 H 240.363 3.20522 2.73576 0
M  V30 2372 H 239.038 2.02849 2.52258 0
M  V30 2373 H 237.945 3.64117 0.858477 0
M  V30 2374 H 239.278 4.78609 1.14864 0
M  V30 2375 N 240.93 -0.123565 1.57115 0
M  V30 2376 C 242.341 -0.681198 1.73829 0
M  V30 2377 C 242.692 -1.80535 0.768214 0
M  V30 2378 O 241.817 -2.16317 -0.0599103 0
M  V30 2379 C 242.412 -1.24246 3.15196 0
M  V30 2380 C 240.971 -1.74643 3.33432 0
M  V30 2381 C 240.118 -0.644284 2.69711 0
M  V30 2382 H 243.069 0.102315 1.5837 0
M  V30 2383 H 243.09 -2.11216 3.16493 0
M  V30 2384 H 242.602 -0.424062 3.85776 0
M  V30 2385 H 240.703 -2.58974 2.67886 0
M  V30 2386 H 240.816 -1.85902 4.41562 0
M  V30 2387 H 239.18 -1.07676 2.3082 0
M  V30 2388 H 239.963 0.163058 3.42913 0
M  V30 2389 N 242.408 -1.52605 -0.393616 0
M  V30 2390 C 243.819 -1.59417 -0.971761 0
M  V30 2391 C 244.17 -0.444173 -1.91106 0
M  V30 2392 O 243.295 0.433382 -2.12016 0
M  V30 2393 C 243.89 -2.88936 -1.76921 0
M  V30 2394 C 242.449 -2.98175 -2.29714 0
M  V30 2395 C 241.596 -2.54491 -1.10135 0
M  V30 2396 H 244.547 -1.57751 -0.173317 0
M  V30 2397 H 244.568 -2.75163 -2.62804 0
M  V30 2398 H 244.08 -3.72616 -1.08532 0
M  V30 2399 H 242.181 -2.19024 -3.01429 0
M  V30 2400 H 242.294 -4.02726 -2.59517 0
M  V30 2401 H 240.658 -2.08702 -1.45999 0
M  V30 2402 H 241.441 -3.4056 -0.432874 0
M  V30 2403 N 243.887 0.651787 -1.4349 0
M  V30 2404 C 244.834 1.76462 -1.4876 0
M  V30 2405 C 245.804 1.62641 -0.337189 0
M  V30 2406 O 246.989 1.82864 -0.544544 0
M  V30 2407 C 244.129 3.14623 -1.41796 0
M  V30 2408 C 243.242 3.39568 -2.67053 0
M  V30 2409 C 242.377 4.67585 -2.52068 0
M  V30 2410 C 241.416 4.85639 -3.72587 0
M  V30 2411 N 240.553 6.04915 -3.56402 0
M  V30 2412 H 245.393 1.71293 -2.43849 0
M  V30 2413 H 242.93 0.835889 -1.21043 0
M  V30 2414 H 244.888 3.94496 -1.35753 0
M  V30 2415 H 243.518 3.18859 -0.50288 0
M  V30 2416 H 242.57 2.53783 -2.8337 0
M  V30 2417 H 243.882 3.48795 -3.56572 0
M  V30 2418 H 243.036 5.55586 -2.4374 0
M  V30 2419 H 241.775 4.60681 -1.60075 0
M  V30 2420 H 240.78 3.96073 -3.81321 0
M  V30 2421 H 242.005 4.94372 -4.65589 0
M  V30 2422 H 239.951 5.9914 -2.67146 0
M  V30 2423 H 239.868 6.15106 -4.39524 0
M  V30 2424 H 241.136 6.95533 -3.51929 0
M  V30 2425 N 245.365 1.30045 0.890287 0
M  V30 2426 C 246.605 1.19839 1.65584 0
M  V30 2427 C 246.969 -0.244175 1.90441 0
M  V30 2428 O 248.17 -0.469378 2.6467 0
M  V30 2429 C 246.441 1.99876 2.96284 0
M  V30 2430 S 248 2.06309 3.87275 0
M  V30 2431 H 244.818 0.427157 0.568382 0
M  V30 2432 H 247.42 1.64453 1.05715 0
M  V30 2433 H 246.124 3.03809 2.75913 0
M  V30 2434 H 245.655 1.55903 3.61189 0
M  V30 2435 H 247.67 1.18661 4.81803 0
M  V30 2436 N 246.843 -1.10192 1.12674 0
M  V30 2437 C 247.806 -2.14786 0.799979 0
M  V30 2438 C 248.806 -1.59711 -0.18685 0
M  V30 2439 O 249.996 -1.74156 0.0392558 0
M  V30 2440 C 247.128 -3.40374 0.189228 0
M  V30 2441 H 248.321 -2.45203 1.72671 0
M  V30 2442 H 245.874 -1.25597 0.930326 0
M  V30 2443 H 246.609 -3.15577 -0.747107 0
M  V30 2444 H 246.394 -3.81637 0.899766 0
M  V30 2445 H 247.884 -4.17594 -0.0228143 0
M  V30 2446 N 248.321 -0.919034 -1.28029 0
M  V30 2447 C 249.231 -0.416756 -2.30869 0
M  V30 2448 C 250.247 0.498235 -1.66714 0
M  V30 2449 O 251.423 0.383144 -1.97722 0
M  V30 2450 C 248.488 0.330274 -3.45123 0
M  V30 2451 C 247.549 -0.618578 -4.2482 0
M  V30 2452 C 246.782 0.0928959 -5.33619 0
M  V30 2453 O 247.005 1.31375 -5.55065 0
M  V30 2454 O 245.939 -0.574499 -5.99152 0
M  V30 2455 H 249.765 -1.27043 -2.75851 0
M  V30 2456 H 247.35 -0.684052 -1.3282 0
M  V30 2457 H 249.232 0.751972 -4.14636 0
M  V30 2458 H 247.907 1.1597 -3.02213 0
M  V30 2459 H 246.814 -1.08978 -3.57875 0
M  V30 2460 H 248.147 -1.41497 -4.71423 0
M  V30 2461 N 249.799 1.42003 -0.683588 0
M  V30 2462 C 251.047 2.01015 -0.209101 0
M  V30 2463 C 251.368 1.54365 1.19149 0
M  V30 2464 O 250.638 0.769083 1.80172 0
M  V30 2465 H 249.218 0.743294 -0.074315 0
M  V30 2466 H 251.88 1.73798 -0.882066 0
M  V30 2467 H 250.976 3.11343 -0.2172 0
M  V30 2468 N 251.277 0.427512 1.51691 0
M  V30 2469 C 252.227 -0.406604 2.24345 0
M  V30 2470 C 253.211 -0.998276 1.26187 0
M  V30 2471 O 254.403 -0.918045 1.51331 0
M  V30 2472 C 251.532 -1.51266 3.08177 0
M  V30 2473 C 250.618 -0.930868 4.13758 0
M  V30 2474 N 251.009 -0.0773552 5.05741 0
M  V30 2475 C 249.307 -1.19948 4.29568 0
M  V30 2476 C 250.008 0.248344 5.8117 0
M  V30 2477 N 248.984 -0.365535 5.4237 0
M  V30 2478 H 252.786 0.251581 2.92821 0
M  V30 2479 H 250.3 0.239003 1.60632 0
M  V30 2480 H 252.297 -2.123 3.58796 0
M  V30 2481 H 250.957 -2.17328 2.41244 0
M  V30 2482 H 251.968 0.288351 5.17097 0
M  V30 2483 H 248.645 -1.85832 3.73862 0
M  V30 2484 H 250.035 0.942286 6.6526 0
M  V30 2485 N 252.755 -1.56801 0.158532 0
M  V30 2486 C 253.665 -2.20916 -0.789518 0
M  V30 2487 C 254.681 -1.1969 -1.26294 0
M  V30 2488 O 255.857 -1.52308 -1.31773 0
M  V30 2489 C 252.922 -2.82727 -2.00665 0
M  V30 2490 C 251.983 -3.99114 -1.58134 0
M  V30 2491 C 251.216 -4.57968 -2.74045 0
M  V30 2492 O 251.439 -4.15704 -3.90572 0
M  V30 2493 O 250.373 -5.48047 -2.48855 0
M  V30 2494 H 254.199 -3.02464 -0.273681 0
M  V30 2495 H 251.784 -1.4924 -0.0690548 0
M  V30 2496 H 253.666 -3.21968 -2.71872 0
M  V30 2497 H 252.341 -2.04184 -2.51179 0
M  V30 2498 H 251.248 -3.64567 -0.839155 0
M  V30 2499 H 252.581 -4.79212 -1.12325 0
M  V30 2500 N 254.233 0.115231 -1.57178 0
M  V30 2501 C 255.644 0.67197 -1.74188 0
M  V30 2502 C 255.995 1.80125 -0.777777 0
M  V30 2503 O 255.12 2.16346 0.0484376 0
M  V30 2504 C 255.715 1.22573 -3.1585 0
M  V30 2505 C 254.274 1.72872 -3.34353 0
M  V30 2506 C 253.421 0.629972 -2.70049 0
M  V30 2507 H 256.372 -0.110712 -1.58313 0
M  V30 2508 H 256.393 2.09535 -3.17609 0
M  V30 2509 H 255.905 0.403598 -3.85996 0
M  V30 2510 H 254.006 2.5755 -2.69256 0
M  V30 2511 H 254.119 1.83557 -4.42542 0
M  V30 2512 H 252.483 1.0645 -2.31388 0
M  V30 2513 H 253.266 -0.181241 -3.42821 0
M  V30 2514 N 255.711 1.52812 0.385517 0
M  V30 2515 C 256.988 1.5861 1.14465 0
M  V30 2516 C 257.368 0.381402 2.07626 0
M  V30 2517 O 256.716 -0.629999 2.19643 0
M  V30 2518 C 256.926 2.92664 1.90128 0
M  V30 2519 C 258.274 3.46526 2.45367 0
M  V30 2520 O 259.298 2.94562 2.0028 0
M  V30 2521 O 258.157 4.37323 3.27736 0
M  V30 2522 H 255.251 0.639855 0.523941 0
M  V30 2523 H 257.797 1.65149 0.390389 0
M  V30 2524 H 256.569 3.71788 1.22022 0
M  V30 2525 H 256.192 2.89527 2.72507 0
M  V30 2526 N 257.189 -0.644168 1.43834 0
M  V30 2527 C 258.437 -1.40117 1.45642 0
M  V30 2528 C 258.758 -1.94814 0.0852413 0
M  V30 2529 O 258.028 -1.74988 -0.880688 0
M  V30 2530 H 256.608 -0.52005 0.536243 0
M  V30 2531 H 259.27 -0.7591 1.7951 0
M  V30 2532 H 258.366 -2.23902 2.17427 0
M  V30 2533 N 258.668 -1.30515 -0.883378 0
M  V30 2534 C 259.915 -1.1943 -1.63532 0
M  V30 2535 C 260.243 0.250627 -1.92878 0
M  V30 2536 O 259.498 1.19556 -1.54935 0
M  V30 2537 C 259.797 -1.96994 -2.98209 0
M  V30 2538 C 259.463 -3.466 -2.88408 0
M  V30 2539 C 258.125 -3.87397 -2.85442 0
M  V30 2540 C 260.477 -4.41863 -2.76418 0
M  V30 2541 C 257.805 -5.21745 -2.68327 0
M  V30 2542 C 260.157 -5.7632 -2.60841 0
M  V30 2543 C 258.821 -6.16354 -2.56251 0
M  V30 2544 H 258.091 -0.437025 -0.598406 0
M  V30 2545 H 260.738 -1.61635 -1.02696 0
M  V30 2546 H 259.043 -1.47429 -3.63004 0
M  V30 2547 H 260.74 -1.85808 -3.55354 0
M  V30 2548 H 257.33 -3.14182 -2.91527 0
M  V30 2549 H 261.514 -4.11285 -2.77775 0
M  V30 2550 H 256.77 -5.51853 -2.63189 0
M  V30 2551 H 260.944 -6.49772 -2.50538 0
M  V30 2552 H 258.571 -7.20401 -2.42748 0
M  V30 2553 N 260.146 1.09593 -1.13257 0
M  V30 2554 C 261.376 1.85231 -0.915049 0
M  V30 2555 C 261.784 1.81345 0.539498 0
M  V30 2556 O 261.127 1.20664 1.38513 0
M  V30 2557 C 261.189 3.34275 -1.3229 0
M  V30 2558 C 260.853 3.6191 -2.79052 0
M  V30 2559 C 261.85 3.57777 -3.77216 0
M  V30 2560 C 259.535 3.90309 -3.16171 0
M  V30 2561 C 261.529 3.81652 -5.1051 0
M  V30 2562 C 259.216 4.13839 -4.49644 0
M  V30 2563 C 260.214 4.09502 -5.46623 0
M  V30 2564 O 259.902 4.32426 -6.77689 0
M  V30 2565 H 259.634 0.591997 -0.326367 0
M  V30 2566 H 262.188 1.394 -1.50854 0
M  V30 2567 H 260.418 3.80805 -0.672667 0
M  V30 2568 H 262.107 3.9132 -1.07812 0
M  V30 2569 H 262.873 3.35865 -3.49885 0
M  V30 2570 H 258.752 3.92811 -2.41289 0
M  V30 2571 H 262.296 3.78182 -5.86195 0
M  V30 2572 H 258.193 4.35232 -4.767 0
M  V30 2573 H 258.961 4.49896 -6.83766 0
M  V30 2574 N 261.624 0.925811 1.2754 0
M  V30 2575 C 262.854 0.580666 1.98272 0
M  V30 2576 C 263.262 -0.845207 1.69272 0
M  V30 2577 O 262.605 -1.57306 0.948707 0
M  V30 2578 C 262.667 0.724418 3.52126 0
M  V30 2579 C 262.331 2.12206 4.04744 0
M  V30 2580 C 263.328 3.09604 4.17662 0
M  V30 2581 C 261.013 2.4385 4.39138 0
M  V30 2582 C 263.007 4.36755 4.64246 0
M  V30 2583 C 260.694 3.71237 4.85414 0
M  V30 2584 C 261.692 4.67503 4.97926 0
M  V30 2585 O 261.38 5.92624 5.43187 0
M  V30 2586 H 261.112 0.218987 0.639547 0
M  V30 2587 H 263.666 1.24452 1.63404 0
M  V30 2588 H 261.896 0.0034663 3.867 0
M  V30 2589 H 263.585 0.384607 4.04074 0
M  V30 2590 H 264.351 2.86478 3.91351 0
M  V30 2591 H 260.23 1.69665 4.28643 0
M  V30 2592 H 263.774 5.11898 4.73927 0
M  V30 2593 H 259.671 3.94182 5.11166 0
M  V30 2594 H 260.439 5.95585 5.61445 0
M  V30 2595 N 263.102 -1.41638 0.69111 0
M  V30 2596 C 264.05 -2.32597 0.0115199 0
M  V30 2597 C 265.044 -1.5072 -0.773296 0
M  V30 2598 O 266.25 -1.66685 -0.67942 0
M  V30 2599 H 262.625 -0.751849 -0.0150746 0
M  V30 2600 H 264.596 -2.87593 0.795791 0
M  V30 2601 C 263.345 -3.35467 -0.914172 0
M  V30 2602 H 262.668 -3.9852 -0.319687 0
M  V30 2603 H 264.108 -4.01662 -1.35808 0
M  V30 2604 C 262.567 -2.69004 -2.02826 0
M  V30 2605 O 263.097 -2.53444 -3.11655 0
M  V30 2606 N 261.303 -2.2777 -1.80469 0
M  V30 2607 H 260.85 -2.40626 -0.919615 0
M  V30 2608 H 260.808 -1.83635 -2.55197 0
M  V30 2609 N 264.58 -0.43555 -1.51462 0
M  V30 2610 C 265.996 -0.0877501 -1.59359 0
M  V30 2611 C 266.196 1.4027 -1.4466 0
M  V30 2612 O 265.252 2.17243 -1.28693 0
M  V30 2613 C 266.565 -0.606264 -2.94525 0
M  V30 2614 C 268.113 -0.566548 -3.0783 0
M  V30 2615 C 268.588 -1.06201 -4.45517 0
M  V30 2616 N 270.079 -1.01992 -4.51832 0
M  V30 2617 C 270.814 -1.37417 -5.5669 0
M  V30 2618 N 270.31 -1.80119 -6.68976 0
M  V30 2619 N 272.103 -1.29245 -5.47039 0
M  V30 2620 H 264.254 -1.40533 -1.59261 0
M  V30 2621 H 266.517 -0.578992 -0.750648 0
M  V30 2622 H 266.223 -1.64901 -3.10645 0
M  V30 2623 H 266.097 -0.0302097 -3.77188 0
M  V30 2624 H 268.484 0.467208 -2.91378 0
M  V30 2625 H 268.565 -1.17898 -2.2701 0
M  V30 2626 H 268.209 -2.09422 -4.62715 0
M  V30 2627 H 268.139 -0.426127 -5.24873 0
M  V30 2628 H 270.63 -0.706308 -3.71241 0
M  V30 2629 H 270.943 -2.05392 -7.45006 0
M  V30 2630 H 269.288 -1.84044 -6.70189 0
M  V30 2631 H 272.479 -0.957522 -4.58202 0
M  V30 2632 H 272.652 -1.57182 -6.28648 0
M  V30 2633 N 266.058 1.56714 -0.166846 0
M  V30 2634 C 267.021 2.16539 0.751232 0
M  V30 2635 C 268.021 1.11228 1.16125 0
M  V30 2636 O 269.211 1.36765 1.07894 0
M  V30 2637 C 266.343 2.74462 2.02196 0
M  V30 2638 H 267.536 2.99013 0.230499 0
M  V30 2639 H 265.089 1.56081 0.0826982 0
M  V30 2640 H 265.824 1.95709 2.58589 0
M  V30 2641 H 265.609 3.51527 1.73698 0
M  V30 2642 H 267.099 3.20489 2.67725 0
M  V30 2643 N 267.536 -0.106894 1.57237 0
M  V30 2644 C 268.783 -0.812526 1.85484 0
M  V30 2645 C 269.111 -1.79304 0.753687 0
M  V30 2646 O 268.366 -1.94047 -0.253853 0
M  V30 2647 C 268.665 -1.58628 3.20268 0
M  V30 2648 C 268.331 -0.748967 4.44636 0
M  V30 2649 C 266.993 -0.518104 4.78403 0
M  V30 2650 C 269.345 -0.166122 5.20935 0
M  V30 2651 C 266.673 0.305659 5.85903 0
M  V30 2652 C 269.025 0.644899 6.29304 0
M  V30 2653 C 267.689 0.885965 6.61594 0
M  V30 2654 H 266.959 -0.297324 0.678734 0
M  V30 2655 H 269.606 -0.0744332 1.91355 0
M  V30 2656 H 267.911 -2.39562 3.10028 0
M  V30 2657 H 269.608 -2.13643 3.39349 0
M  V30 2658 H 266.198 -0.939006 4.18187 0
M  V30 2659 H 270.382 -0.33167 4.95191 0
M  V30 2660 H 265.638 0.501528 6.0934 0
M  V30 2661 H 269.812 1.10345 6.87602 0
M  V30 2662 H 267.439 1.52609 7.44725 0
M  V30 2663 N 269.014 -1.53014 -0.377408 0
M  V30 2664 C 269.946 -1.74884 -1.48149 0
M  V30 2665 C 270.959 -0.629433 -1.5014 0
M  V30 2666 O 272.148 -0.905416 -1.53833 0
M  V30 2667 C 269.248 -1.80299 -2.86959 0
M  V30 2668 C 268.421 -3.09776 -3.08801 0
M  V30 2669 C 267.48 -3.06586 -4.27658 0
M  V30 2670 O 266.506 -3.80419 -4.23403 0
M  V30 2671 N 267.708 -2.26578 -5.34455 0
M  V30 2672 H 270.473 -2.70147 -1.29771 0
M  V30 2673 H 268.034 -1.51646 -0.56703 0
M  V30 2674 H 270.026 -1.75657 -3.64591 0
M  V30 2675 H 268.596 -0.92372 -2.98641 0
M  V30 2676 H 267.816 -3.27815 -2.18931 0
M  V30 2677 H 269.104 -3.95366 -3.20255 0
M  V30 2678 H 268.502 -1.66081 -5.40771 0
M  V30 2679 H 267.059 -2.27766 -6.10709 0
M  V30 2680 N 270.492 0.636531 -1.44174 0
M  V30 2681 C 271.44 1.76995 -1.50915 0
M  V30 2682 C 272.434 1.65053 -0.381295 0
M  V30 2683 O 273.64 1.71197 -0.55601 0
M  V30 2684 H 270.015 0.584247 -0.473455 0
M  V30 2685 H 271.986 1.68432 -2.4632 0
M  V30 2686 C 270.735 3.15314 -1.46534 0
M  V30 2687 H 270.058 3.25149 -2.32633 0
M  V30 2688 H 271.498 3.9453 -1.55312 0
M  V30 2689 C 269.957 3.3639 -0.185305 0
M  V30 2690 O 270.487 3.94699 0.746688 0
M  V30 2691 N 268.693 2.9046 -0.0901606 0
M  V30 2692 H 268.24 2.43193 -0.849416 0
M  V30 2693 H 268.198 3.04937 0.765553 0
M  V30 2694 N 271.97 1.30982 0.876444 0
M  V30 2695 C 273.218 1.20058 1.62575 0
M  V30 2696 C 273.539 -0.242947 1.93481 0
M  V30 2697 O 272.809 -1.1619 1.57724 0
M  V30 2698 H 271.389 0.44135 0.602677 0
M  V30 2699 H 274.051 1.64222 1.04962 0
M  V30 2700 H 273.147 1.76762 2.57219 0
M  V30 2701 N 273.449 -1.08991 1.13837 0
M  V30 2702 C 274.674 -1.85551 0.926585 0
M  V30 2703 C 275.099 -1.80782 -0.519566 0
M  V30 2704 O 274.457 -1.18855 -1.36906 0
M  V30 2705 C 274.505 -3.31266 1.42462 0
M  V30 2706 O 273.609 -4.07822 0.612789 0
M  V30 2707 H 272.95 -0.575192 0.331738 0
M  V30 2708 H 275.48 -1.37604 1.51414 0
M  V30 2709 H 275.49 -3.82112 1.43019 0
M  V30 2710 H 274.165 -3.34052 2.47754 0
M  V30 2711 H 272.742 -3.66731 0.675463 0
M  V30 2712 N 274.927 -0.932562 -1.27047 0
M  V30 2713 C 276.173 -0.576412 -1.94436 0
M  V30 2714 C 276.506 0.880891 -1.73072 0
M  V30 2715 O 275.781 1.62905 -1.06264 0
M  V30 2716 C 276.064 -0.909031 -3.48437 0
M  V30 2717 C 275.917 -2.42044 -3.79123 0
M  V30 2718 C 277.236 -0.418341 -4.38107 0
M  V30 2719 H 274.355 -0.210888 -0.706184 0
M  V30 2720 H 276.997 -1.16522 -1.50075 0
M  V30 2721 H 275.147 -0.407947 -3.86352 0
M  V30 2722 H 276.819 -2.99359 -3.50973 0
M  V30 2723 H 275.062 -2.86758 -3.25503 0
M  V30 2724 H 275.733 -2.6037 -4.86736 0
M  V30 2725 H 278.209 -0.847856 -4.0737 0
M  V30 2726 H 277.085 -0.679981 -5.44672 0
M  V30 2727 H 277.346 0.681642 -4.36814 0
M  V30 2728 N 276.405 1.4127 -0.698611 0
M  V30 2729 C 277.816 1.84187 -0.305289 0
M  V30 2730 C 278.167 1.58449 1.15708 0
M  V30 2731 O 277.292 1.05651 1.88856 0
M  V30 2732 C 277.887 3.3435 -0.547314 0
M  V30 2733 C 276.446 3.75826 -0.207878 0
M  V30 2734 C 275.593 2.64647 -0.828099 0
M  V30 2735 H 278.544 1.30778 -0.89904 0
M  V30 2736 H 278.565 3.8001 0.192998 0
M  V30 2737 H 278.077 3.53051 -1.61172 0
M  V30 2738 H 276.178 3.62725 0.852143 0
M  V30 2739 H 276.291 4.74462 -0.665021 0
M  V30 2740 H 274.655 2.53395 -0.257458 0
M  V30 2741 H 275.438 2.86165 -1.89643 0
M  V30 2742 N 277.883 0.443576 1.51229 0
M  V30 2743 C 279.16 -0.181038 1.9476 0
M  V30 2744 C 279.54 -1.59523 1.38259 0
M  V30 2745 O 278.888 -2.2122 0.572198 0
M  V30 2746 C 279.098 -0.152422 3.48667 0
M  V30 2747 C 280.446 -0.354923 4.23114 0
M  V30 2748 O 281.47 -0.230257 3.55455 0
M  V30 2749 O 280.329 -0.603674 5.43156 0
M  V30 2750 H 277.423 -0.1266 0.817252 0
M  V30 2751 H 279.969 0.502004 1.62105 0
M  V30 2752 H 278.741 0.836022 3.82265 0
M  V30 2753 H 278.364 -0.878107 3.87782 0
M  V30 2754 N 279.361 -1.56624 0.175154 0
M  V30 2755 C 280.589 -2.01374 -0.474971 0
M  V30 2756 C 281.004 -1.05537 -1.56548 0
M  V30 2757 O 280.361 -0.0568668 -1.82411 0
M  V30 2758 C 280.412 -3.45923 -1.04975 0
M  V30 2759 O 280.133 -4.381 -0.00276605 0
M  V30 2760 C 281.634 -4.06093 -1.77773 0
M  V30 2761 H 278.854 -0.659962 -0.121206 0
M  V30 2762 H 281.398 -2.02601 0.27801 0
M  V30 2763 H 279.553 -3.45458 -1.75321 0
M  V30 2764 H 279.967 -5.22753 -0.427681 0
M  V30 2765 H 281.441 -5.09147 -2.13245 0
M  V30 2766 H 281.918 -3.48405 -2.67414 0
M  V30 2767 H 282.524 -4.10272 -1.12059 0
M  V30 2768 N 280.839 0.0985539 -1.57292 0
M  V30 2769 C 282.079 0.808332 -1.87737 0
M  V30 2770 C 282.443 1.7607 -0.76572 0
M  V30 2771 O 283.644 2.51358 -0.952499 0
M  V30 2772 C 281.915 1.52093 -3.23423 0
M  V30 2773 S 283.474 2.26947 -3.75554 0
M  V30 2774 H 280.292 0.269377 -0.657995 0
M  V30 2775 H 282.894 0.0656269 -1.9539 0
M  V30 2776 H 281.598 0.81363 -4.02254 0
M  V30 2777 H 281.129 2.30361 -3.189 0
M  V30 2778 H 283.144 3.53027 -3.48692 0
M  V30 2779 N 282.317 1.53212 0.369288 0
M  V30 2780 C 283.264 1.79388 1.45219 0
M  V30 2781 C 284.234 0.638059 1.53356 0
M  V30 2782 O 285.419 0.879852 1.69302 0
M  V30 2783 C 282.559 1.98623 2.82211 0
M  V30 2784 C 281.672 3.26337 2.8307 0
M  V30 2785 C 280.807 3.35779 4.11614 0
M  V30 2786 C 279.846 4.5754 4.06601 0
M  V30 2787 N 278.983 4.64155 5.26787 0
M  V30 2788 H 283.823 2.71794 1.22198 0
M  V30 2789 H 281.36 1.34642 0.592444 0
M  V30 2790 H 283.318 2.07761 3.61789 0
M  V30 2791 H 281.948 1.09558 3.03639 0
M  V30 2792 H 281 3.26171 1.95747 0
M  V30 2793 H 282.312 4.15988 2.75237 0
M  V30 2794 H 281.466 3.44208 4.99606 0
M  V30 2795 H 280.205 2.44137 4.22195 0
M  V30 2796 H 279.21 4.49215 3.16996 0
M  V30 2797 H 280.435 5.50519 3.97625 0
M  V30 2798 H 278.381 3.75413 5.3796 0
M  V30 2799 H 278.298 5.47706 5.21109 0
M  V30 2800 H 279.566 4.76863 6.16621 0
M  V30 2801 N 283.795 -0.628877 1.44509 0
M  V30 2802 C 285.072 -1.38733 1.37886 0
M  V30 2803 C 285.452 -2.11065 0.0387008 0
M  V30 2804 O 284.8 -2.06476 -0.97878 0
M  V30 2805 C 285.01 -2.35188 2.57852 0
M  V30 2806 C 286.358 -2.9845 3.02014 0
M  V30 2807 O 287.382 -2.45513 2.58073 0
M  V30 2808 O 286.241 -3.94487 3.78209 0
M  V30 2809 H 283.335 -0.621015 0.54614 0
M  V30 2810 H 285.881 -0.653744 1.56602 0
M  V30 2811 H 284.653 -1.80855 3.46998 0
M  V30 2812 H 284.276 -3.1596 2.4136 0
M  V30 2813 N 285.273 -1.31445 -0.869486 0
M  V30 2814 C 286.236 -1.19094 -1.9583 0
M  V30 2815 C 287.236 -0.117906 -1.60367 0
M  V30 2816 O 288.426 -0.367208 -1.70286 0
M  V30 2817 C 285.558 -0.828165 -3.30688 0
M  V30 2818 H 286.751 -2.15842 -2.08212 0
M  V30 2819 H 284.304 -1.15063 -1.05784 0
M  V30 2820 H 285.039 0.138142 -3.24006 0
M  V30 2821 H 284.824 -1.6038 -3.578 0
M  V30 2822 H 286.314 -0.765658 -4.10521 0
M  V30 2823 N 286.751 1.08385 -1.14413 0
M  V30 2824 C 287.699 2.17406 -0.826888 0
M  V30 2825 C 288.693 1.6827 0.195312 0
M  V30 2826 O 289.899 1.79927 0.0513892 0
M  V30 2827 H 286.274 0.70934 -0.249681 0
M  V30 2828 H 288.245 2.41388 -1.75426 0
M  V30 2829 C 286.994 3.46215 -0.320979 0
M  V30 2830 H 286.317 3.84401 -1.0989 0
M  V30 2831 H 287.757 4.23777 -0.137549 0
M  V30 2832 C 286.216 3.23067 0.955472 0
M  V30 2833 O 286.746 3.4668 2.02918 0
M  V30 2834 N 284.952 2.7661 0.890798 0
M  V30 2835 H 284.499 2.57594 0.0168815 0
M  V30 2836 H 284.457 2.61501 1.74542 0
M  V30 2837 N 288.23 0.939286 1.26551 0
M  V30 2838 C 289.478 0.58469 1.93457 0
M  V30 2839 C 289.799 -0.878774 1.74076 0
M  V30 2840 O 289.069 -1.62421 1.09528 0
M  V30 2841 H 287.649 0.21325 0.715914 0
M  V30 2842 H 290.311 1.1942 1.54029 0
M  V30 2843 H 289.407 0.800849 3.0165 0
M  V30 2844 N 289.708 -1.40897 0.706093 0
M  V30 2845 C 290.954 -2.01352 0.241889 0
M  V30 2846 C 291.287 -1.55832 -1.15888 0
M  V30 2847 O 290.562 -0.774145 -1.7843 0
M  V30 2848 C 290.845 -3.58752 0.311311 0
M  V30 2849 C 290.698 -4.1437 1.74978 0
M  V30 2850 C 292.017 -4.38914 -0.322922 0
M  V30 2851 H 289.136 -0.731562 0.0893687 0
M  V30 2852 H 291.778 -1.67504 0.896802 0
M  V30 2853 H 289.928 -3.87718 -0.246302 0
M  V30 2854 H 291.6 -3.96239 2.36205 0
M  V30 2855 H 289.843 -3.69016 2.28057 0
M  V30 2856 H 290.514 -5.23532 1.74981 0
M  V30 2857 H 292.99 -4.15822 0.152089 0
M  V30 2858 H 291.866 -5.48358 -0.243855 0
M  V30 2859 H 292.127 -4.19176 -1.40513 0
M  V30 2860 N 291.186 -0.45159 -1.50991 0
M  V30 2861 C 292.133 0.352625 -2.2809 0
M  V30 2862 C 293.103 1.0044 -1.32291 0
M  V30 2863 O 294.288 1.02058 -1.6121 0
M  V30 2864 C 291.428 1.43983 -3.13629 0
M  V30 2865 C 290.541 0.804772 -4.24438 0
M  V30 2866 C 289.676 1.86822 -4.97263 0
M  V30 2867 C 288.715 1.21236 -5.99973 0
M  V30 2868 N 287.852 2.2178 -6.66152 0
M  V30 2869 H 292.692 -0.311186 -2.96371 0
M  V30 2870 H 290.229 -0.165308 -1.46168 0
M  V30 2871 H 292.187 2.08161 -3.61559 0
M  V30 2872 H 290.817 2.07307 -2.47434 0
M  V30 2873 H 289.869 0.0509129 -3.80366 0
M  V30 2874 H 291.181 0.286076 -4.97979 0
M  V30 2875 H 290.335 2.58628 -5.48813 0
M  V30 2876 H 289.074 2.42068 -4.23385 0
M  V30 2877 H 288.079 0.479828 -5.47702 0
M  V30 2878 H 289.304 0.667051 -6.75816 0
M  V30 2879 H 287.25 2.76079 -5.95077 0
M  V30 2880 H 287.167 1.74841 -7.35504 0
M  V30 2881 H 288.435 2.93026 -7.22327 0
M  V30 2882 N 292.664 1.56529 -0.183458 0
M  V30 2883 C 293.892 2.01623 0.464285 0
M  V30 2884 C 294.307 1.06366 1.55986 0
M  V30 2885 O 293.664 0.0665398 1.82379 0
M  V30 2886 C 293.715 3.46475 1.03139 0
M  V30 2887 O 293.436 4.38095 -0.0204675 0
M  V30 2888 C 294.937 4.0703 1.75617 0
M  V30 2889 H 292.157 0.660596 0.117704 0
M  V30 2890 H 294.701 2.02451 -0.288751 0
M  V30 2891 H 292.856 3.46383 1.73486 0
M  V30 2892 H 293.27 5.22973 0.399952 0
M  V30 2893 H 294.744 5.10271 2.10542 0
M  V30 2894 H 295.221 3.49819 2.65563 0
M  V30 2895 H 295.827 4.1086 1.09882 0
M  V30 2896 N 294.142 -0.090211 1.57342 0
M  V30 2897 C 295.37 -0.806224 1.90546 0
M  V30 2898 C 295.785 -1.72041 0.777644 0
M  V30 2899 O 295.142 -1.80778 -0.250103 0
M  V30 2900 C 295.193 -1.61546 3.23396 0
M  V30 2901 O 294.914 -0.738043 4.31839 0
M  V30 2902 C 296.415 -2.4341 3.70495 0
M  V30 2903 H 293.635 -0.230256 0.630257 0
M  V30 2904 H 296.179 -0.0659843 2.04394 0
M  V30 2905 H 294.334 -2.30816 3.11131 0
M  V30 2906 H 294.748 -1.29901 5.08159 0
M  V30 2907 H 296.222 -2.95676 4.66133 0
M  V30 2908 H 296.699 -3.22098 2.98579 0
M  V30 2909 H 297.305 -1.79331 3.85643 0
M  V30 2910 N 295.62 -1.53406 -0.361157 0
M  V30 2911 C 296.583 -1.79479 -1.42548 0
M  V30 2912 C 297.583 -0.665327 -1.4639 0
M  V30 2913 O 298.773 -0.933549 -1.47073 0
M  V30 2914 C 295.905 -1.92087 -2.8163 0
M  V30 2915 H 297.098 -2.74538 -1.20701 0
M  V30 2916 H 294.651 -1.4455 -0.594546 0
M  V30 2917 H 295.386 -0.991099 -3.08784 0
M  V30 2918 H 295.171 -2.74241 -2.80239 0
M  V30 2919 H 296.661 -2.13836 -3.58697 0
M  V30 2920 N 297.098 0.621204 -1.44841 0
M  V30 2921 C 298.346 1.37783 -1.47852 0
M  V30 2922 C 298.667 1.94653 -0.116224 0
M  V30 2923 O 297.937 1.76367 0.852737 0
M  V30 2924 H 296.517 0.511453 -0.544449 0
M  V30 2925 H 299.179 0.730446 -1.80694 0
M  V30 2926 H 298.275 2.20414 -2.20961 0
M  V30 2927 N 298.576 1.31904 0.862503 0
M  V30 2928 C 299.801 1.25135 1.65397 0
M  V30 2929 C 300.226 -0.179 1.87246 0
M  V30 2930 O 299.584 -1.1277 1.4196 0
M  V30 2931 C 299.632 2.00832 2.99498 0
M  V30 2932 O 298.736 1.35075 3.89652 0
M  V30 2933 H 298.077 0.431655 0.504549 0
M  V30 2934 H 300.607 1.74094 1.07483 0
M  V30 2935 H 300.617 2.10709 3.49379 0
M  V30 2936 H 299.292 3.04847 2.82916 0
M  V30 2937 H 297.869 1.33696 3.48109 0
M  V30 2938 N 300.054 -1.07777 1.14986 0
M  V30 2939 C 301.3 -1.80719 0.93339 0
M  V30 2940 C 301.655 -1.8484 -0.534019 0
M  V30 2941 O 300.948 -1.31795 -1.3907 0
M  V30 2942 C 301.142 -3.25495 1.47608 0
M  V30 2943 C 300.971 -3.3548 2.99472 0
M  V30 2944 C 299.741 -3.46293 3.6798 0
M  V30 2945 C 301.939 -3.26596 3.97291 0
M  V30 2946 N 299.921 -3.45136 5.07695 0
M  V30 2947 C 301.292 -3.32506 5.23297 0
M  V30 2948 C 303.347 -3.10376 3.89321 0
M  V30 2949 C 302.05 -3.23866 6.42264 0
M  V30 2950 C 304.076 -3.03069 5.07842 0
M  V30 2951 C 303.438 -3.09587 6.32721 0
M  V30 2952 H 299.537 -0.674814 0.395158 0
M  V30 2953 H 302.121 -1.28681 1.46114 0
M  V30 2954 H 300.292 -3.75963 0.975022 0
M  V30 2955 H 302.024 -3.86535 1.19887 0
M  V30 2956 H 298.779 -3.50456 3.18555 0
M  V30 2957 H 299.203 -3.48097 5.80653 0
M  V30 2958 H 303.845 -3.04194 2.93642 0
M  V30 2959 H 301.563 -3.28807 7.38181 0
M  V30 2960 H 305.149 -2.91629 5.03432 0
M  V30 2961 H 304.029 -3.0397 7.22891 0
M  V30 2962 N 301.532 -0.945985 -1.26051 0
M  V30 2963 C 302.781 -0.591836 -1.92822 0
M  V30 2964 C 303.094 0.873956 -1.7499 0
M  V30 2965 O 304.3 1.33769 -2.36259 0
M  V30 2966 C 302.756 -1.00776 -3.45503 0
M  V30 2967 C 302.364 -2.4955 -3.7206 0
M  V30 2968 C 304.108 -0.725735 -4.1825 0
M  V30 2969 C 302.015 -2.84988 -5.18205 0
M  V30 2970 H 300.945 -0.217635 -0.721908 0
M  V30 2971 H 303.596 -1.14927 -1.43052 0
M  V30 2972 H 301.978 -0.378812 -3.94184 0
M  V30 2973 H 303.152 -3.1739 -3.34066 0
M  V30 2974 H 301.467 -2.75133 -3.12555 0
M  V30 2975 H 304.064 -0.966771 -5.25887 0
M  V30 2976 H 304.407 0.337639 -4.14929 0
M  V30 2977 H 304.94 -1.31463 -3.7545 0
M  V30 2978 H 301.679 -3.90307 -5.26631 0
M  V30 2979 H 301.199 -2.21813 -5.57278 0
M  V30 2980 H 302.878 -2.73712 -5.86252 0
M  V30 2981 N 303.011 1.40521 -0.713556 0
M  V30 2982 C 303.974 2.29098 -0.0684347 0
M  V30 2983 C 304.974 1.45268 0.689472 0
M  V30 2984 O 306.164 1.66205 0.521677 0
M  V30 2985 C 303.296 3.28446 0.913024 0
M  V30 2986 H 304.489 2.87645 -0.84855 0
M  V30 2987 H 302.042 1.48809 -0.47809 0
M  V30 2988 H 302.777 2.74913 1.72027 0
M  V30 2989 H 302.562 3.90327 0.372472 0
M  V30 2990 H 304.052 3.94777 1.36165 0
M  V30 2991 N 304.489 0.459591 1.5075 0
M  V30 2992 C 305.422 -0.386257 2.24907 0
M  V30 2993 C 306.4 -1.006 1.27744 0
M  V30 2994 O 307.584 -1.04416 1.56938 0
M  V30 2995 C 304.711 -1.54021 3.01654 0
M  V30 2996 C 303.757 -1.03898 4.13651 0
M  V30 2997 S 304.59 0.0370501 5.35487 0
M  V30 2998 C 305.746 -1.12105 6.15779 0
M  V30 2999 H 305.979 0.243272 2.96303 0
M  V30 3000 H 303.512 0.244339 1.52454 0
M  V30 3001 H 305.47 -2.20163 3.46466 0
M  V30 3002 H 304.131 -2.14121 2.29806 0
M  V30 3003 H 303.324 -1.90254 4.66711 0
M  V30 3004 H 302.926 -0.45545 3.71216 0
M  V30 3005 H 305.218 -2.03501 6.46215 0
M  V30 3006 H 306.161 -0.62995 7.05292 0
M  V30 3007 H 306.569 -1.36967 5.47631 0
M  V30 3008 N 305.967 -1.56429 0.191757 0
M  V30 3009 C 307.378 -1.83912 -0.321428 0
M  V30 3010 C 307.729 -1.11231 -1.61623 0
M  V30 3011 O 306.854 -0.37202 -2.13178 0
M  V30 3012 C 307.449 -3.33624 -0.589961 0
M  V30 3013 C 306.008 -3.6153 -1.04753 0
M  V30 3014 C 305.155 -2.7714 -0.0943327 0
M  V30 3015 H 308.106 -1.53161 0.415612 0
M  V30 3016 H 308.127 -3.52213 -1.43966 0
M  V30 3017 H 307.639 -3.86495 0.352588 0
M  V30 3018 H 305.74 -3.14089 -2.00447 0
M  V30 3019 H 305.853 -4.69737 -0.942549 0
M  V30 3020 H 304.217 -2.47638 -0.595589 0
M  V30 3021 H 305 -3.32799 0.842601 0
M  V30 3022 N 307.445 0.0818655 -1.57387 0
M  V30 3023 C 308.856 0.634871 -1.75574 0
M  V30 3024 C 309.207 1.78435 -0.815809 0
M  V30 3025 O 308.332 2.164 0.0025366 0
M  V30 3026 C 308.927 1.15845 -3.18379 0
M  V30 3027 C 307.486 1.65741 -3.37945 0
M  V30 3028 C 306.633 0.572549 -2.71325 0
M  V30 3029 H 309.584 -0.144268 -1.58043 0
M  V30 3030 H 309.605 2.02751 -3.21982 0
M  V30 3031 H 309.117 0.321631 -3.86765 0
M  V30 3032 H 307.218 2.51781 -2.74658 0
M  V30 3033 H 307.331 1.74129 -4.46336 0
M  V30 3034 H 305.695 1.01518 -2.33594 0
M  V30 3035 H 306.478 -0.253918 -3.4236 0
M  V30 3036 N 308.923 1.53595 0.353017 0
M  V30 3037 C 310.334 1.61937 0.929153 0
M  V30 3038 C 310.685 0.494686 1.89861 0
M  V30 3039 O 309.81 -0.377017 2.1309 0
M  V30 3040 C 310.405 2.93526 1.69199 0
M  V30 3041 C 308.964 3.04161 2.21727 0
M  V30 3042 C 308.111 2.57322 1.03348 0
M  V30 3043 H 311.062 1.58155 0.131431 0
M  V30 3044 H 311.083 2.82034 2.55416 0
M  V30 3045 H 310.595 3.75362 0.986144 0
M  V30 3046 H 308.696 2.26938 2.95516 0
M  V30 3047 H 308.809 4.09465 2.48748 0
M  V30 3048 H 307.173 2.12499 1.40414 0
M  V30 3049 H 307.956 3.41588 0.342428 0
M  V30 3050 N 310.401 -0.613514 1.45168 0
M  V30 3051 C 311.331 -1.7354 1.56225 0
M  V30 3052 C 312.312 -1.64981 0.41414 0
M  V30 3053 O 313.497 -1.83472 0.636526 0
M  V30 3054 C 310.627 -3.12128 1.52295 0
M  V30 3055 C 309.581 -3.35491 2.65762 0
M  V30 3056 C 308.907 -4.74291 2.46885 0
M  V30 3057 C 310.207 -3.26325 4.0781 0
M  V30 3058 H 311.901 -1.64543 2.50132 0
M  V30 3059 H 309.447 -0.790185 1.20383 0
M  V30 3060 H 311.4 -3.90404 1.58628 0
M  V30 3061 H 310.124 -3.2195 0.549139 0
M  V30 3062 H 308.783 -2.59603 2.58847 0
M  V30 3063 H 308.431 -4.80839 1.47657 0
M  V30 3064 H 308.131 -4.9088 3.22972 0
M  V30 3065 H 309.655 -5.54775 2.55063 0
M  V30 3066 H 311.069 -3.94483 4.16 0
M  V30 3067 H 309.466 -3.54445 4.8424 0
M  V30 3068 H 310.536 -2.23855 4.30136 0
M  V30 3069 N 311.879 -1.3236 -0.855495 0
M  V30 3070 C 312.812 -1.15559 -1.96777 0
M  V30 3071 C 313.79 -0.0552681 -1.62506 0
M  V30 3072 O 314.974 -0.214419 -1.87277 0
M  V30 3073 C 312.101 -0.768851 -3.29858 0
M  V30 3074 C 311.147 -1.87429 -3.83109 0
M  V30 3075 S 311.98 -3.48243 -4.06801 0
M  V30 3076 C 313.136 -3.11539 -5.42858 0
M  V30 3077 H 313.369 -2.09717 -2.10727 0
M  V30 3078 H 310.902 -1.17011 -1.00737 0
M  V30 3079 H 312.86 -0.55248 -4.06765 0
M  V30 3080 H 311.521 0.153857 -3.13723 0
M  V30 3081 H 310.714 -1.55667 -4.79358 0
M  V30 3082 H 310.316 -2.04647 -3.13042 0
M  V30 3083 H 312.608 -2.61331 -6.2507 0
M  V30 3084 H 313.551 -4.06806 -5.79582 0
M  V30 3085 H 313.959 -2.48582 -5.06821 0
M  V30 3086 N 313.357 1.07166 -1.15556 0
M  V30 3087 C 314.634 1.76546 -0.842069 0
M  V30 3088 C 315.014 2.00453 0.661939 0
M  V30 3089 O 314.362 1.62452 1.60691 0
M  V30 3090 C 314.572 3.07266 -1.65495 0
M  V30 3091 C 315.92 3.81578 -1.86234 0
M  V30 3092 O 316.944 3.17083 -1.62287 0
M  V30 3093 O 315.803 4.97419 -2.26355 0
M  V30 3094 H 312.897 0.766756 -0.309862 0
M  V30 3095 H 315.443 1.13514 -1.26145 0
M  V30 3096 H 314.215 2.85494 -2.67598 0
M  V30 3097 H 313.838 3.7803 -1.23203 0
M  V30 3098 N 314.835 0.952656 1.25548 0
M  V30 3099 C 316.112 0.523818 1.88456 0
M  V30 3100 C 316.492 -0.998871 1.85973 0
M  V30 3101 O 315.84 -1.86381 1.3219 0
M  V30 3102 C 316.05 1.0982 3.31271 0
M  V30 3103 C 317.398 1.17385 4.08051 0
M  V30 3104 O 318.422 1.04961 3.40384 0
M  V30 3105 O 317.281 1.36852 5.29088 0
M  V30 3106 H 314.375 0.172485 0.808813 0
M  V30 3107 H 316.921 1.04596 1.33633 0
M  V30 3108 H 315.693 2.1415 3.27499 0
M  V30 3109 H 315.316 0.559191 3.93648 0
M  V30 3110 N 316.313 -1.40141 0.720998 0
M  V30 3111 C 317.243 -2.33339 0.0867621 0
M  V30 3112 C 318.224 -1.53178 -0.739622 0
M  V30 3113 O 319.409 -1.81625 -0.687449 0
M  V30 3114 C 316.539 -3.37194 -0.831728 0
M  V30 3115 C 315.493 -4.27857 -0.110558 0
M  V30 3116 C 314.819 -5.22294 -1.14513 0
M  V30 3117 C 316.119 -5.11872 1.0385 0
M  V30 3118 H 317.813 -2.86626 0.865219 0
M  V30 3119 H 315.359 -1.37814 0.417516 0
M  V30 3120 H 317.312 -4.01335 -1.28485 0
M  V30 3121 H 316.036 -2.82314 -1.64214 0
M  V30 3122 H 314.695 -3.65176 0.322797 0
M  V30 3123 H 314.343 -4.63717 -1.94874 0
M  V30 3124 H 314.043 -5.83797 -0.667446 0
M  V30 3125 H 315.567 -5.89312 -1.59824 0
M  V30 3126 H 316.981 -5.69436 0.664482 0
M  V30 3127 H 315.378 -5.82445 1.4449 0
M  V30 3128 H 316.448 -4.4753 1.86668 0
M  V30 3129 N 317.792 -0.46758 -1.50504 0
M  V30 3130 C 319.038 0.0887532 -2.02606 0
M  V30 3131 C 319.371 1.39686 -1.34913 0
M  V30 3132 O 318.646 1.88644 -0.473694 0
M  V30 3133 C 318.929 0.276206 -3.59039 0
M  V30 3134 C 318.782 -1.05267 -4.37309 0
M  V30 3135 C 320.101 1.03235 -4.27821 0
M  V30 3136 H 317.22 0.0307814 -0.736357 0
M  V30 3137 H 319.862 -0.612485 -1.79857 0
M  V30 3138 H 318.012 0.8735 -3.78553 0
M  V30 3139 H 319.684 -1.68628 -4.29374 0
M  V30 3140 H 317.927 -1.65015 -4.01189 0
M  V30 3141 H 318.598 -0.875197 -5.45018 0
M  V30 3142 H 321.074 0.526111 -4.12761 0
M  V30 3143 H 319.95 1.1323 -5.37094 0
M  V30 3144 H 320.211 2.06806 -3.90748 0
M  V30 3145 N 319.27 1.56325 -0.20005 0
M  V30 3146 C 320.18 2.22931 0.730668 0
M  V30 3147 C 321.196 1.22997 1.23076 0
M  V30 3148 O 322.372 1.55748 1.27689 0
M  V30 3149 C 319.437 2.87948 1.93098 0
M  V30 3150 C 318.498 4.03166 1.47497 0
M  V30 3151 C 317.731 4.65073 2.61807 0
M  V30 3152 O 317.954 4.25913 3.79413 0
M  V30 3153 O 316.888 5.54452 2.34237 0
M  V30 3154 H 320.714 3.03084 0.193391 0
M  V30 3155 H 318.299 1.49371 0.0294621 0
M  V30 3156 H 320.181 3.29063 2.6324 0
M  V30 3157 H 318.856 2.10771 2.45677 0
M  V30 3158 H 317.763 3.66664 0.742201 0
M  V30 3159 H 319.096 4.82022 0.995796 0
M  V30 3160 N 320.748 -0.0735177 1.57428 0
M  V30 3161 C 321.978 -0.78483 1.91112 0
M  V30 3162 C 322.386 -1.71729 0.7941 0
M  V30 3163 O 321.729 -1.82105 -0.241542 0
M  V30 3164 C 321.791 -1.63346 3.20247 0
M  V30 3165 C 321.455 -0.870557 4.48632 0
M  V30 3166 C 322.452 -0.19058 5.19551 0
M  V30 3167 C 320.137 -0.838242 4.95256 0
M  V30 3168 C 322.131 0.511503 6.35344 0
M  V30 3169 C 319.818 -0.132386 6.10957 0
M  V30 3170 C 320.816 0.541288 6.80852 0
M  V30 3171 O 320.504 1.23578 7.94345 0
M  V30 3172 H 320.236 -0.228408 0.636244 0
M  V30 3173 H 322.79 -0.0486039 2.05342 0
M  V30 3174 H 321.02 -2.41245 3.02222 0
M  V30 3175 H 322.709 -2.22329 3.39595 0
M  V30 3176 H 323.475 -0.206864 4.84559 0
M  V30 3177 H 319.354 -1.35206 4.40727 0
M  V30 3178 H 322.898 1.03789 6.89836 0
M  V30 3179 H 318.795 -0.114023 6.45399 0
M  V30 3180 H 319.563 1.14487 8.10454 0
M  V30 3181 N 322.226 -1.5378 -0.344866 0
M  V30 3182 C 323.189 -1.80981 -1.40637 0
M  V30 3183 C 324.189 -0.680816 -1.45676 0
M  V30 3184 O 325.379 -0.949095 -1.46075 0
M  V30 3185 C 322.511 -1.95063 -2.79577 0
M  V30 3186 H 323.704 -2.75803 -1.17783 0
M  V30 3187 H 321.257 -1.45173 -0.579181 0
M  V30 3188 H 321.992 -1.02379 -3.07716 0
M  V30 3189 H 321.777 -2.77198 -2.77315 0
M  V30 3190 H 323.267 -2.17629 -3.56409 0
M  V30 3191 N 323.704 0.605807 -1.45491 0
M  V30 3192 C 324.981 1.36522 -1.40075 0
M  V30 3193 C 325.361 2.10976 -0.0722744 0
M  V30 3194 O 324.709 2.08007 0.945808 0
M  V30 3195 C 324.919 2.31056 -2.61561 0
M  V30 3196 C 326.267 2.93608 -3.06724 0
M  V30 3197 O 327.291 2.41376 -2.61946 0
M  V30 3198 O 326.15 3.88421 -3.84437 0
M  V30 3199 H 323.244 0.612248 -0.555951 0
M  V30 3200 H 325.79 0.628747 -1.57623 0
M  V30 3201 H 324.562 1.75311 -3.49831 0
M  V30 3202 H 324.185 3.12081 -2.46356 0
M  V30 3203 N 325.182 1.32811 0.848464 0
M  V30 3204 C 326.43 1.23479 1.59991 0
M  V30 3205 C 326.751 -0.201853 1.93952 0
M  V30 3206 O 326.021 -1.12818 1.60153 0
M  V30 3207 H 324.601 0.454034 0.593179 0
M  V30 3208 H 327.263 1.66412 1.01455 0
M  V30 3209 H 326.359 1.82178 2.53412 0
M  V30 3210 N 326.66 -1.06551 1.16123 0
M  V30 3211 C 327.61 -2.12209 0.833736 0
M  V30 3212 C 328.594 -1.59825 -0.185656 0
M  V30 3213 O 329.786 -1.76994 0.0147906 0
M  V30 3214 C 326.915 -3.41674 0.333697 0
M  V30 3215 C 326.001 -4.00892 1.38372 0
M  V30 3216 N 326.392 -4.34256 2.59337 0
M  V30 3217 C 324.69 -4.28463 1.23836 0
M  V30 3218 C 325.391 -4.81291 3.26701 0
M  V30 3219 N 324.367 -4.80565 2.54083 0
M  V30 3220 H 328.169 -2.35849 1.75364 0
M  V30 3221 H 325.683 -1.24068 1.04789 0
M  V30 3222 H 327.68 -4.16822 0.0806918 0
M  V30 3223 H 326.34 -3.19475 -0.58017 0
M  V30 3224 H 327.351 -4.24687 2.96415 0
M  V30 3225 H 324.028 -4.15721 0.38504 0
M  V30 3226 H 325.418 -5.16332 4.29943 0
M  V30 3227 N 328.138 -0.959301 -1.25041 0
M  V30 3228 C 329.415 -0.533805 -1.88175 0
M  V30 3229 C 329.795 0.988994 -1.865 0
M  V30 3230 O 329.143 1.85677 -1.33177 0
M  V30 3231 C 329.353 -1.11575 -3.30684 0
M  V30 3232 C 330.701 -1.19548 -4.07423 0
M  V30 3233 O 331.725 -1.06765 -3.39823 0
M  V30 3234 O 330.584 -1.39656 -5.28354 0
M  V30 3235 H 327.678 -0.176772 -0.807887 0
M  V30 3236 H 330.224 -1.05303 -1.33076 0
M  V30 3237 H 328.996 -2.15884 -3.26358 0
M  V30 3238 H 328.619 -0.580059 -3.93346 0
M  V30 3239 N 329.616 1.39756 -0.72842 0
M  V30 3240 C 330.579 2.29012 -0.0927297 0
M  V30 3241 C 331.579 1.45992 0.674025 0
M  V30 3242 O 332.769 1.66749 0.50402 0
M  V30 3243 C 329.901 3.29396 0.878137 0
M  V30 3244 H 331.094 2.86729 -0.879011 0
M  V30 3245 H 328.647 1.48293 -0.493847 0
M  V30 3246 H 329.382 2.76722 1.69101 0
M  V30 3247 H 329.167 3.907 0.331051 0
M  V30 3248 H 330.657 3.96199 1.3197 0
M  V30 3249 N 331.094 0.475555 1.50254 0
M  V30 3250 C 332.319 -0.0777042 2.07254 0
M  V30 3251 C 332.744 -1.3235 1.3366 0
M  V30 3252 O 332.102 -1.77152 0.385597 0
M  V30 3253 C 332.15 -0.340169 3.58992 0
M  V30 3254 O 331.254 -1.41982 3.87188 0
M  V30 3255 H 330.595 0.0149556 0.663832 0
M  V30 3256 H 333.125 0.667878 1.93392 0
M  V30 3257 H 333.135 -0.579332 4.03866 0
M  V30 3258 H 331.81 0.570167 4.11973 0
M  V30 3259 H 330.387 -1.16762 3.54148 0
M  V30 3260 N 332.573 -1.56217 0.208337 0
M  V30 3261 C 333.819 -1.98242 -0.427552 0
M  V30 3262 C 334.152 -1.09554 -1.60348 0
M  V30 3263 O 333.427 -0.15035 -1.93918 0
M  V30 3264 C 333.71 -3.4931 -0.874907 0
M  V30 3265 C 333.563 -4.48773 0.303751 0
M  V30 3266 C 334.882 -4.04424 -1.73577 0
M  V30 3267 H 332.001 -0.720744 -0.153936 0
M  V30 3268 H 334.643 -1.87586 0.30192 0
M  V30 3269 H 332.793 -3.58522 -1.49648 0
M  V30 3270 H 334.465 -4.51586 0.941682 0
M  V30 3271 H 332.708 -4.23194 0.953375 0
M  V30 3272 H 333.379 -5.51976 -0.0519883 0
M  V30 3273 H 335.855 -3.98075 -1.21143 0
M  V30 3274 H 334.731 -5.1047 -2.01771 0
M  V30 3275 H 334.992 -3.50494 -2.69456 0
M  V30 3276 N 334.051 0.0651679 -1.57465 0
M  V30 3277 C 335.001 1.0838 -2.00594 0
M  V30 3278 C 335.985 1.34106 -0.889071 0
M  V30 3279 O 337.177 1.34295 -1.15299 0
M  V30 3280 C 334.306 2.39565 -2.45894 0
M  V30 3281 C 333.392 2.17085 -3.64328 0
M  V30 3282 N 333.783 1.64553 -4.78285 0
M  V30 3283 C 332.081 2.4753 -3.71006 0
M  V30 3284 C 332.782 1.57042 -5.60101 0
M  V30 3285 N 331.758 2.03328 -5.04141 0
M  V30 3286 H 335.56 0.671062 -2.86136 0
M  V30 3287 H 333.074 0.27213 -1.60104 0
M  V30 3288 H 335.071 3.13308 -2.75034 0
M  V30 3289 H 333.731 2.81549 -1.61741 0
M  V30 3290 H 334.742 1.33323 -5.00445 0
M  V30 3291 H 331.419 2.92835 -2.9758 0
M  V30 3292 H 332.809 1.17223 -6.61595 0
M  V30 3293 N 335.529 1.53961 0.336706 0
M  V30 3294 C 336.492 1.81724 1.39675 0
M  V30 3295 C 337.492 0.688532 1.45313 0
M  V30 3296 O 338.682 0.956829 1.45569 0
M  V30 3297 C 335.814 1.96543 2.78538 0
M  V30 3298 H 337.007 2.76424 1.16318 0
M  V30 3299 H 334.56 1.45478 0.571474 0
M  V30 3300 H 335.295 1.0401 3.07168 0
M  V30 3301 H 335.08 2.78665 2.75841 0
M  V30 3302 H 336.57 2.19516 3.5525 0
M  V30 3303 N 337.007 -0.598083 1.45811 0
M  V30 3304 C 337.94 -1.7223 1.49706 0
M  V30 3305 C 338.918 -1.58732 0.352535 0
M  V30 3306 O 340.102 -1.80162 0.554438 0
M  V30 3307 C 337.229 -3.10148 1.3611 0
M  V30 3308 C 336.275 -3.42209 2.54549 0
M  V30 3309 S 337.108 -3.35989 4.16979 0
M  V30 3310 C 338.264 -4.76471 4.05865 0
M  V30 3311 H 338.497 -1.68665 2.44826 0
M  V30 3312 H 336.03 -0.775541 1.33509 0
M  V30 3313 H 337.988 -3.8972 1.28953 0
M  V30 3314 H 336.649 -3.11219 0.424451 0
M  V30 3315 H 335.842 -4.42652 2.40988 0
M  V30 3316 H 335.444 -2.70173 2.58617 0
M  V30 3317 H 337.736 -5.665 3.71596 0
M  V30 3318 H 338.679 -4.95089 5.06253 0
M  V30 3319 H 339.087 -4.52599 3.37364 0
M  V30 3320 N 338.485 -1.33259 -0.841409 0
M  V30 3321 C 339.448 -1.23221 -1.9326 0
M  V30 3322 C 340.448 -0.151895 -1.60081 0
M  V30 3323 O 341.638 -0.403246 -1.69468 0
M  V30 3324 C 338.77 -0.898123 -3.28856 0
M  V30 3325 H 339.963 -2.2021 -2.03587 0
M  V30 3326 H 337.516 -1.17281 -1.03319 0
M  V30 3327 H 338.251 0.0693841 -3.24226 0
M  V30 3328 H 338.036 -1.67934 -3.54317 0
M  V30 3329 H 339.526 -0.852563 -4.08805 0
M  V30 3330 N 339.963 1.05934 -1.16686 0
M  V30 3331 C 340.873 2.17014 -0.891183 0
M  V30 3332 C 341.889 1.73453 0.137907 0
M  V30 3333 O 343.065 2.01361 -0.039592 0
M  V30 3334 C 340.13 3.44384 -0.400099 0
M  V30 3335 C 339.191 4.02433 -1.49486 0
M  V30 3336 C 338.424 5.23723 -1.02711 0
M  V30 3337 O 338.647 5.7027 0.121716 0
M  V30 3338 O 337.581 5.7382 -1.81699 0
M  V30 3339 H 341.407 2.43113 -1.82015 0
M  V30 3340 H 338.992 1.15541 -0.947132 0
M  V30 3341 H 340.874 4.21189 -0.133392 0
M  V30 3342 H 339.549 3.19802 0.500817 0
M  V30 3343 H 338.456 3.27102 -1.81535 0
M  V30 3344 H 339.789 4.31317 -2.37121 0
M  V30 3345 N 341.441 0.965919 1.2453 0
M  V30 3346 C 342.718 0.543777 1.87889 0
M  V30 3347 C 343.098 -0.97909 1.87021 0
M  V30 3348 O 342.446 -1.84969 1.3416 0
M  V30 3349 C 342.656 1.13327 3.30088 0
M  V30 3350 C 344.004 1.21707 4.06783 0
M  V30 3351 O 345.028 1.08566 3.39252 0
M  V30 3352 O 343.887 1.42456 5.27606 0
M  V30 3353 H 340.981 0.181054 0.806938 0
M  V30 3354 H 343.527 1.06007 1.32516 0
M  V30 3355 H 342.299 2.17612 3.25209 0
M  V30 3356 H 341.922 0.600911 3.93033 0
M  V30 3357 N 342.919 -1.39368 0.735821 0
M  V30 3358 C 344.165 -2.00794 0.284544 0
M  V30 3359 C 344.498 -1.58255 -1.12557 0
M  V30 3360 O 343.773 -0.811819 -1.76748 0
M  V30 3361 C 344.056 -3.58011 0.387337 0
M  V30 3362 C 343.909 -4.10566 1.83728 0
M  V30 3363 C 345.228 -4.395 -0.22975 0
M  V30 3364 H 342.347 -0.729501 0.104866 0
M  V30 3365 H 344.989 -1.65564 0.93213 0
M  V30 3366 H 343.139 -3.88154 -0.164006 0
M  V30 3367 H 344.811 -3.91139 2.44556 0
M  V30 3368 H 343.054 -3.64095 2.35833 0
M  V30 3369 H 343.725 -5.19702 1.86047 0
M  V30 3370 H 346.201 -4.15406 0.240257 0
M  V30 3371 H 345.077 -5.48752 -0.127485 0
M  V30 3372 H 345.338 -4.22062 -1.3159 0
M  V30 3373 N 344.397 -0.483516 -1.5 0
M  V30 3374 C 345.622 0.0667119 -2.07293 0
M  V30 3375 C 346.047 1.3164 -1.3436 0
M  V30 3376 O 345.405 1.76945 -0.394987 0
M  V30 3377 C 345.453 0.321126 -3.59167 0
M  V30 3378 O 344.557 1.39927 -3.87936 0
M  V30 3379 H 343.898 -0.0184758 -0.663743 0
M  V30 3380 H 346.428 -0.678125 -1.93035 0
M  V30 3381 H 346.438 0.557906 -4.04168 0
M  V30 3382 H 345.113 -0.592007 -4.11665 0
M  V30 3383 H 343.69 1.14882 -3.54763 0
M  V30 3384 N 345.875 1.56104 -0.216619 0
M  V30 3385 C 346.838 2.18819 0.681962 0
M  V30 3386 C 347.838 1.14866 1.12528 0
M  V30 3387 O 349.028 1.40128 1.03488 0
M  V30 3388 C 346.16 2.80756 1.93362 0
M  V30 3389 H 347.353 2.99595 0.135254 0
M  V30 3390 H 344.906 1.56265 0.0330003 0
M  V30 3391 H 345.641 2.03837 2.52232 0
M  V30 3392 H 345.426 3.56876 1.62426 0
M  V30 3393 H 346.916 3.28844 2.57393 0
M  V30 3394 N 347.353 -0.0568162 1.57498 0
M  V30 3395 C 348.6 -0.753104 1.87975 0
M  V30 3396 C 348.928 -1.76815 0.81035 0
M  V30 3397 O 348.183 -1.94756 -0.19199 0
M  V30 3398 C 348.482 -1.48359 3.25153 0
M  V30 3399 C 348.148 -0.60713 4.46794 0
M  V30 3400 C 346.81 -0.365642 4.79809 0
M  V30 3401 C 349.162 -0.000305978 5.212 0
M  V30 3402 C 346.49 0.491905 5.84634 0
M  V30 3403 C 348.842 0.844781 6.26934 0
M  V30 3404 C 347.506 1.096 6.58441 0
M  V30 3405 H 346.776 -0.27558 0.687849 0
M  V30 3406 H 349.423 -0.0135173 1.91495 0
M  V30 3407 H 347.728 -2.29577 3.17492 0
M  V30 3408 H 349.425 -2.02739 3.45974 0
M  V30 3409 H 346.015 -0.805487 4.20963 0
M  V30 3410 H 350.199 -0.173961 4.95995 0
M  V30 3411 H 345.455 0.695131 6.07436 0
M  V30 3412 H 349.629 1.32165 6.83744 0
M  V30 3413 H 347.256 1.76224 7.39492 0
M  V30 3414 N 348.832 -1.54138 -0.328536 0
M  V30 3415 C 349.762 -1.86167 -1.40939 0
M  V30 3416 C 350.743 -0.718044 -1.54202 0
M  V30 3417 O 351.928 -0.971328 -1.68163 0
M  V30 3418 C 349.058 -2.08461 -2.77779 0
M  V30 3419 C 348.012 -3.24299 -2.7931 0
M  V30 3420 C 347.338 -3.31955 -4.19178 0
M  V30 3421 C 348.638 -4.62065 -2.43502 0
M  V30 3422 H 350.332 -2.76689 -1.14383 0
M  V30 3423 H 347.878 -1.33132 -0.548806 0
M  V30 3424 H 349.831 -2.29453 -3.53454 0
M  V30 3425 H 348.555 -1.14684 -3.05802 0
M  V30 3426 H 347.214 -3.03187 -2.0609 0
M  V30 3427 H 346.862 -2.35745 -4.44335 0
M  V30 3428 H 346.562 -4.09805 -4.2111 0
M  V30 3429 H 348.086 -3.55175 -4.96672 0
M  V30 3430 H 349.5 -4.8297 -3.08889 0
M  V30 3431 H 347.897 -5.42429 -2.56693 0
M  V30 3432 H 348.967 -4.64652 -1.38659 0
M  V30 3433 N 350.31 0.590341 -1.46126 0
M  V30 3434 C 351.243 1.71434 -1.50617 0
M  V30 3435 C 352.221 1.58543 -0.360948 0
M  V30 3436 O 353.405 1.79865 -0.563985 0
M  V30 3437 C 350.532 3.09422 -1.37753 0
M  V30 3438 C 349.578 3.40854 -2.5636 0
M  V30 3439 S 350.411 3.33773 -4.18755 0
M  V30 3440 C 351.567 4.74312 -4.08386 0
M  V30 3441 H 351.8 1.67364 -2.45717 0
M  V30 3442 H 349.333 0.76845 -1.33919 0
M  V30 3443 H 351.291 3.8903 -1.31018 0
M  V30 3444 H 349.952 3.10989 -0.440949 0
M  V30 3445 H 349.145 4.41368 -2.43332 0
M  V30 3446 H 348.747 2.68798 -2.60046 0
M  V30 3447 H 351.039 5.64522 -3.74595 0
M  V30 3448 H 351.982 4.92397 -5.08872 0
M  V30 3449 H 352.39 4.50803 -3.3976 0
M  V30 3450 N 351.788 1.33704 0.83433 0
M  V30 3451 C 353.034 1.26612 1.59188 0
M  V30 3452 C 353.389 -0.165439 1.91687 0
M  V30 3453 O 352.682 -1.10873 1.56262 0
M  V30 3454 C 352.876 2.07926 2.90692 0
M  V30 3455 C 352.705 3.58844 2.71038 0
M  V30 3456 C 351.475 4.28148 2.68361 0
M  V30 3457 C 353.673 4.53082 2.43353 0
M  V30 3458 N 351.655 5.64987 2.40132 0
M  V30 3459 C 353.026 5.77843 2.24716 0
M  V30 3460 C 355.081 4.42119 2.28987 0
M  V30 3461 C 353.784 6.92877 1.9317 0
M  V30 3462 C 355.81 5.56973 1.98835 0
M  V30 3463 C 355.172 6.80745 1.81012 0
M  V30 3464 H 351.271 0.518517 0.585375 0
M  V30 3465 H 353.855 1.68294 0.979044 0
M  V30 3466 H 352.026 1.68558 3.49918 0
M  V30 3467 H 353.758 1.92568 3.55949 0
M  V30 3468 H 350.513 3.80469 2.82029 0
M  V30 3469 H 350.937 6.37133 2.28889 0
M  V30 3470 H 355.579 3.47058 2.41477 0
M  V30 3471 H 353.297 7.87931 1.79418 0
M  V30 3472 H 356.883 5.50428 1.88468 0
M  V30 3473 H 355.763 7.68115 1.58017 0
M  V30 3474 N 353.266 -1.05314 1.17247 0
M  V30 3475 C 354.229 -2.112 0.890357 0
M  V30 3476 C 355.229 -1.60359 -0.118943 0
M  V30 3477 O 356.419 -1.73833 0.113086 0
M  V30 3478 C 353.551 -3.39266 0.333422 0
M  V30 3479 H 354.744 -2.37659 1.82916 0
M  V30 3480 H 352.297 -1.21538 0.982758 0
M  V30 3481 H 353.032 -3.18462 -0.612587 0
M  V30 3482 H 352.817 -3.77477 1.06082 0
M  V30 3483 H 354.307 -4.17315 0.154322 0
M  V30 3484 N 354.744 -0.972509 -1.24016 0
M  V30 3485 C 355.707 -0.511403 -2.23422 0
M  V30 3486 C 356.707 0.394679 -1.55881 0
M  V30 3487 O 357.897 0.189469 -1.73167 0
M  V30 3488 C 355.029 0.258769 -3.39916 0
M  V30 3489 H 356.222 -1.39024 -2.6573 0
M  V30 3490 H 353.775 -0.757585 -1.36713 0
M  V30 3491 H 354.51 1.1545 -3.03054 0
M  V30 3492 H 354.295 -0.391522 -3.9014 0
M  V30 3493 H 355.785 0.570244 -4.13688 0
M  V30 3494 N 356.222 1.38976 -0.743202 0
M  V30 3495 C 357.132 2.3434 -0.110399 0
M  V30 3496 C 358.148 1.58741 0.712559 0
M  V30 3497 O 359.324 1.9099 0.639125 0
M  V30 3498 C 356.389 3.37812 0.780012 0
M  V30 3499 C 355.45 4.29263 -0.0561319 0
M  V30 3500 C 354.683 5.27793 0.791875 0
M  V30 3501 O 354.906 5.33043 2.03031 0
M  V30 3502 O 353.84 6.01512 0.216183 0
M  V30 3503 H 357.666 2.90129 -0.897714 0
M  V30 3504 H 355.251 1.40643 -0.503966 0
M  V30 3505 H 357.133 4.01194 1.28923 0
M  V30 3506 H 355.808 2.84395 1.546 0
M  V30 3507 H 354.715 3.69076 -0.611056 0
M  V30 3508 H 356.048 4.85907 -0.784531 0
M  V30 3509 N 357.7 0.491464 1.49741 0
M  V30 3510 C 359.111 0.0413169 1.86654 0
M  V30 3511 C 359.462 -1.36985 1.40462 0
M  V30 3512 O 358.587 -2.01917 0.778354 0
M  V30 3513 C 359.182 0.0682023 3.38731 0
M  V30 3514 C 357.741 -0.32656 3.74981 0
M  V30 3515 C 356.888 0.444888 2.73708 0
M  V30 3516 H 359.839 0.704733 1.42194 0
M  V30 3517 H 359.86 -0.729322 3.73445 0
M  V30 3518 H 359.372 1.09539 3.72321 0
M  V30 3519 H 357.473 -1.35734 3.46997 0
M  V30 3520 H 357.586 -0.013741 4.79098 0
M  V30 3521 H 355.95 -0.104062 2.54487 0
M  V30 3522 H 356.733 1.47197 3.10142 0
M  V30 3523 N 359.178 -1.55987 0.224894 0
M  V30 3524 C 360.125 -2.20436 -0.68385 0
M  V30 3525 C 361.095 -1.16102 -1.18783 0
M  V30 3526 O 362.28 -1.4447 -1.24632 0
M  V30 3527 C 359.42 -2.89076 -1.88491 0
M  V30 3528 C 358.533 -4.08012 -1.41951 0
M  V30 3529 C 357.668 -4.64426 -2.5784 0
M  V30 3530 C 356.707 -5.75656 -2.08053 0
M  V30 3531 N 355.844 -6.26347 -3.17227 0
M  V30 3532 H 360.684 -2.97727 -0.12754 0
M  V30 3533 H 358.221 -1.47011 -0.0511978 0
M  V30 3534 H 360.179 -3.27059 -2.59014 0
M  V30 3535 H 358.809 -2.14298 -2.41405 0
M  V30 3536 H 357.861 -3.75492 -0.609095 0
M  V30 3537 H 359.173 -4.88375 -1.01447 0
M  V30 3538 H 358.327 -5.04869 -3.3644 0
M  V30 3539 H 357.066 -3.83233 -3.01635 0
M  V30 3540 H 356.071 -5.34712 -1.27916 0
M  V30 3541 H 357.296 -6.58686 -1.65255 0
M  V30 3542 H 355.242 -5.48067 -3.60497 0
M  V30 3543 H 355.159 -7.01843 -2.80986 0
M  V30 3544 H 356.427 -6.71447 -3.95953 0
M  V30 3545 N 360.656 0.0484629 -1.57525 0
M  V30 3546 C 361.586 1.0549 -2.08313 0
M  V30 3547 C 362.567 1.38929 -0.981463 0
M  V30 3548 O 363.752 1.48151 -1.25558 0
M  V30 3549 C 360.882 2.36162 -2.54646 0
M  V30 3550 C 359.836 2.17016 -3.68901 0
M  V30 3551 C 359.162 3.53278 -4.01371 0
M  V30 3552 C 360.462 1.57219 -4.98076 0
M  V30 3553 H 362.156 0.632195 -2.92649 0
M  V30 3554 H 359.702 0.302654 -1.40784 0
M  V30 3555 H 361.655 3.06882 -2.88793 0
M  V30 3556 H 360.379 2.80456 -1.67368 0
M  V30 3557 H 359.038 1.48733 -3.35073 0
M  V30 3558 H 358.686 3.95185 -3.11188 0
M  V30 3559 H 358.386 3.41299 -4.78318 0
M  V30 3560 H 359.91 4.25391 -4.38035 0
M  V30 3561 H 361.324 2.17832 -5.30304 0
M  V30 3562 H 359.721 1.55871 -5.79503 0
M  V30 3563 H 360.791 0.535956 -4.81929 0
M  V30 3564 N 362.134 1.5431 0.320358 0
M  V30 3565 C 363.067 1.78769 1.41834 0
M  V30 3566 C 364.045 0.63783 1.49568 0
M  V30 3567 O 365.229 0.875628 1.66928 0
M  V30 3568 C 362.356 1.90712 2.79905 0
M  V30 3569 C 361.402 3.13023 2.89687 0
M  V30 3570 S 362.235 4.71554 2.53766 0
M  V30 3571 C 363.391 4.86408 3.93902 0
M  V30 3572 H 363.624 2.71619 1.20874 0
M  V30 3573 H 361.157 1.45474 0.517377 0
M  V30 3574 H 363.115 1.98279 3.59438 0
M  V30 3575 H 361.776 0.988343 2.98145 0
M  V30 3576 H 360.969 3.18124 3.90913 0
M  V30 3577 H 360.571 3.03803 2.18128 0
M  V30 3578 H 362.863 4.69241 4.88691 0
M  V30 3579 H 363.806 5.88508 3.93782 0
M  V30 3580 H 364.214 4.14689 3.83005 0
M  V30 3581 N 363.613 -0.582584 1.46437 0
M  V30 3582 C 364.576 -1.67366 1.56592 0
M  V30 3583 C 365.576 -1.54575 0.443072 0
M  V30 3584 O 366.766 -1.59191 0.707381 0
M  V30 3585 C 363.898 -3.06791 1.48634 0
M  V30 3586 H 365.091 -1.5972 2.5383 0
M  V30 3587 H 362.644 -0.800432 1.34249 0
M  V30 3588 H 363.379 -3.19993 0.526763 0
M  V30 3589 H 363.164 -3.17484 2.30101 0
M  V30 3590 H 364.654 -3.86218 1.58826 0
M  V30 3591 N 365.091 -1.34144 -0.827227 0
M  V30 3592 C 366.507 -1.13732 -1.11969 0
M  V30 3593 C 366.707 0.0640463 -2.01398 0
M  V30 3594 O 365.763 0.740856 -2.41387 0
M  V30 3595 C 367.076 -2.43047 -1.77055 0
M  V30 3596 C 368.624 -2.49063 -1.89569 0
M  V30 3597 C 369.099 -3.78369 -2.58072 0
M  V30 3598 N 370.59 -3.79505 -2.65575 0
M  V30 3599 C 371.325 -4.76274 -3.19297 0
M  V30 3600 N 370.821 -5.83424 -3.73616 0
M  V30 3601 N 372.614 -4.63735 -3.17658 0
M  V30 3602 H 364.765 -2.11126 -0.232296 0
M  V30 3603 H 367.028 -0.933424 -0.165602 0
M  V30 3604 H 366.734 -3.31025 -1.18807 0
M  V30 3605 H 366.608 -2.56066 -2.76966 0
M  V30 3606 H 368.995 -1.61527 -2.46968 0
M  V30 3607 H 369.076 -2.39975 -0.885745 0
M  V30 3608 H 368.72 -4.66293 -2.01329 0
M  V30 3609 H 368.65 -3.84737 -3.59562 0
M  V30 3610 H 371.141 -3.02074 -2.27068 0
M  V30 3611 H 371.454 -6.53282 -4.12846 0
M  V30 3612 H 369.799 -5.87143 -3.71871 0
M  V30 3613 H 372.99 -3.79177 -2.74486 0
M  V30 3614 H 373.163 -5.39318 -3.59221 0
M  V30 3615 N 366.569 1.04691 -1.17803 0
M  V30 3616 C 367.516 2.12557 -0.899343 0
M  V30 3617 C 368.486 1.65339 0.158771 0
M  V30 3618 O 369.671 1.90789 0.0204797 0
M  V30 3619 C 366.811 3.42481 -0.424315 0
M  V30 3620 C 365.924 4.03346 -1.54713 0
M  V30 3621 C 365.059 5.21208 -1.02546 0
M  V30 3622 C 364.098 5.74089 -2.12339 0
M  V30 3623 N 363.235 6.83247 -1.61612 0
M  V30 3624 H 368.075 2.35734 -1.823 0
M  V30 3625 H 365.612 1.1564 -0.909159 0
M  V30 3626 H 367.57 4.16996 -0.130421 0
M  V30 3627 H 366.2 3.19471 0.462377 0
M  V30 3628 H 365.252 3.2622 -1.95664 0
M  V30 3629 H 366.564 4.38628 -2.37501 0
M  V30 3630 H 365.718 6.02812 -0.685718 0
M  V30 3631 H 364.457 4.87414 -0.167084 0
M  V30 3632 H 363.462 4.91111 -2.47165 0
M  V30 3633 H 364.687 6.0993 -2.98601 0
M  V30 3634 H 362.633 6.5134 -0.780533 0
M  V30 3635 H 362.55 7.17559 -2.38003 0
M  V30 3636 H 363.818 7.68491 -1.30545 0
M  V30 3637 N 368.047 0.979072 1.23499 0
M  V30 3638 C 368.979 0.476271 2.24197 0
M  V30 3639 C 369.992 -0.421166 1.57258 0
M  V30 3640 O 371.181 -0.225515 1.7707 0
M  V30 3641 C 368.281 -0.330503 3.37285 0
M  V30 3642 C 367.454 0.559744 4.33804 0
M  V30 3643 C 366.513 -0.192954 5.25846 0
M  V30 3644 O 365.539 0.416978 5.67671 0
M  V30 3645 N 366.741 -1.47932 5.61334 0
M  V30 3646 H 369.506 1.34211 2.67969 0
M  V30 3647 H 367.067 0.852189 1.37657 0
M  V30 3648 H 369.059 -0.842361 3.95836 0
M  V30 3649 H 367.629 -1.09734 2.92707 0
M  V30 3650 H 366.849 1.25245 3.73775 0
M  V30 3651 H 368.137 1.1665 4.95248 0
M  V30 3652 H 367.535 -1.9964 5.29302 0
M  V30 3653 H 366.092 -1.93664 6.22364 0
M  V30 3654 N 369.525 -1.3858 0.750561 0
M  V30 3655 C 370.488 -2.28836 0.129152 0
M  V30 3656 C 371.488 -1.47045 -0.650714 0
M  V30 3657 O 372.678 -1.6753 -0.477428 0
M  V30 3658 C 369.81 -3.30751 -0.825622 0
M  V30 3659 H 371.003 -2.85294 0.924516 0
M  V30 3660 H 368.556 -1.47489 0.517376 0
M  V30 3661 H 369.291 -2.79378 -1.64677 0
M  V30 3662 H 369.076 -3.91177 -0.268852 0
M  V30 3663 H 370.566 -3.98249 -1.2565 0
M  V30 3664 N 371.003 -0.499398 -1.49478 0
M  V30 3665 C 372.251 0.0455996 -2.02049 0
M  V30 3666 C 372.572 1.37633 -1.38138 0
M  V30 3667 O 371.842 1.8842 -0.536166 0
M  V30 3668 H 370.422 0.0198416 -0.746736 0
M  V30 3669 H 373.084 -0.656274 -1.83519 0
M  V30 3670 H 372.18 0.176445 -3.11601 0
M  V30 3671 N 372.481 1.55866 -0.233164 0
M  V30 3672 C 373.728 1.98603 0.395374 0
M  V30 3673 C 374.056 1.12105 1.58942 0
M  V30 3674 O 373.311 0.168656 1.94972 0
M  V30 3675 C 373.61 3.46856 0.861724 0
M  V30 3676 C 373.276 4.50348 -0.223066 0
M  V30 3677 C 371.938 4.78371 -0.521038 0
M  V30 3678 C 374.29 5.12355 -0.956124 0
M  V30 3679 C 371.618 5.6568 -1.55638 0
M  V30 3680 C 373.97 6.00786 -1.98089 0
M  V30 3681 C 372.634 6.27148 -2.28565 0
M  V30 3682 H 371.904 0.726739 0.144677 0
M  V30 3683 H 374.551 1.88491 -0.338114 0
M  V30 3684 H 372.856 3.5423 1.67418 0
M  V30 3685 H 374.553 3.77302 1.35809 0
M  V30 3686 H 371.143 4.28596 0.0193234 0
M  V30 3687 H 375.327 4.90765 -0.739166 0
M  V30 3688 H 370.583 5.84365 -1.798 0
M  V30 3689 H 374.757 6.4788 -2.55391 0
M  V30 3690 H 372.384 6.94597 -3.08932 0
M  V30 3691 N 373.959 -0.0401083 1.57549 0
M  V30 3692 C 375.187 -0.745196 1.93014 0
M  V30 3693 C 375.602 -1.6948 0.831984 0
M  V30 3694 O 374.959 -1.81482 -0.192463 0
M  V30 3695 C 375.01 -1.51176 3.28372 0
M  V30 3696 O 374.731 -0.600284 4.33968 0
M  V30 3697 C 376.232 -2.315 3.78051 0
M  V30 3698 H 373.452 -0.210088 0.637263 0
M  V30 3699 H 375.996 -0.000924689 2.045 0
M  V30 3700 H 374.151 -2.20801 3.18317 0
M  V30 3701 H 374.565 -1.13669 5.12035 0
M  V30 3702 H 376.039 -2.80697 4.75303 0
M  V30 3703 H 376.516 -3.12436 3.08675 0
M  V30 3704 H 377.122 -1.66971 3.91153 0
M  V30 3705 N 375.437 -1.54477 -0.31217 0
M  V30 3706 C 376.4 -1.83923 -1.36766 0
M  V30 3707 C 377.4 -0.711563 -1.44199 0
M  V30 3708 O 378.59 -0.979866 -1.44029 0
M  V30 3709 C 375.722 -2.0095 -2.75376 0
M  V30 3710 H 376.915 -2.78239 -1.11906 0
M  V30 3711 H 374.468 -1.46369 -0.548257 0
M  V30 3712 H 375.203 -1.08883 -3.05475 0
M  V30 3713 H 374.988 -2.83018 -2.71373 0
M  V30 3714 H 376.478 -2.2514 -3.51713 0
M  V30 3715 N 376.915 0.57481 -1.46744 0
M  V30 3716 C 378.161 1.3347 -1.52688 0
M  V30 3717 C 378.494 1.93353 -0.181229 0
M  V30 3718 O 377.769 1.76912 0.808237 0
M  V30 3719 C 378.052 2.45811 -2.63152 0
M  V30 3720 C 377.905 1.90912 -4.07275 0
M  V30 3721 C 379.224 3.47822 -2.69644 0
M  V30 3722 H 376.343 0.483935 -0.555856 0
M  V30 3723 H 378.985 0.644968 -1.78718 0
M  V30 3724 H 377.135 3.04646 -2.41088 0
M  V30 3725 H 378.807 1.36473 -4.4065 0
M  V30 3726 H 377.05 1.21691 -4.16382 0
M  V30 3727 H 377.721 2.72042 -4.80309 0
M  V30 3728 H 380.197 2.9888 -2.895 0
M  V30 3729 H 379.073 4.23876 -3.48742 0
M  V30 3730 H 379.334 4.05555 -1.76005 0
M  V30 3731 N 378.394 1.34581 0.820102 0
M  V30 3732 C 379.327 1.20735 1.93644 0
M  V30 3733 C 380.305 0.0983343 1.62302 0
M  V30 3734 O 381.489 0.263997 1.86642 0
M  V30 3735 C 378.616 0.856037 3.27704 0
M  V30 3736 C 377.662 1.97521 3.78005 0
M  V30 3737 S 378.495 3.58906 3.97425 0
M  V30 3738 C 379.651 3.25822 5.34407 0
M  V30 3739 H 379.884 2.15231 2.05093 0
M  V30 3740 H 377.417 1.1964 0.97599 0
M  V30 3741 H 379.375 0.660133 4.05157 0
M  V30 3742 H 378.036 -0.0706253 3.14021 0
M  V30 3743 H 377.229 1.68321 4.75062 0
M  V30 3744 H 376.831 2.12875 3.07507 0
M  V30 3745 H 379.123 2.77812 6.17922 0
M  V30 3746 H 380.066 4.22029 5.68592 0
M  V30 3747 H 380.474 2.61932 5.00052 0
M  V30 3748 N 379.872 -1.04064 1.18357 0
M  V30 3749 C 381.119 -1.77265 0.978947 0
M  V30 3750 C 381.447 -1.88189 -0.491428 0
M  V30 3751 O 380.702 -1.38653 -1.38108 0
M  V30 3752 C 381.001 -3.20634 1.57888 0
M  V30 3753 C 380.667 -3.29743 3.07539 0
M  V30 3754 C 379.329 -3.31937 3.48384 0
M  V30 3755 C 381.681 -3.29841 4.03552 0
M  V30 3756 C 379.009 -3.3187 4.83818 0
M  V30 3757 C 381.361 -3.31313 5.38901 0
M  V30 3758 C 380.025 -3.31799 5.79194 0
M  V30 3759 H 379.295 -0.648659 0.358222 0
M  V30 3760 H 381.942 -1.22225 1.47422 0
M  V30 3761 H 380.247 -3.78675 1.00561 0
M  V30 3762 H 381.944 -3.75917 1.39598 0
M  V30 3763 H 378.534 -3.28757 2.74986 0
M  V30 3764 H 382.718 -3.27337 3.73047 0
M  V30 3765 H 377.974 -3.30562 5.14333 0
M  V30 3766 H 382.148 -3.30338 6.13066 0
M  V30 3767 H 379.775 -3.315 6.84114 0
M  V30 3768 N 381.35 -0.985608 -1.22978 0
M  V30 3769 C 382.28 -0.549649 -2.26939 0
M  V30 3770 C 383.261 0.419803 -1.64838 0
M  V30 3771 O 384.446 0.31203 -1.91677 0
M  V30 3772 C 381.576 0.143652 -3.47003 0
M  V30 3773 C 380.53 -0.743606 -4.21491 0
M  V30 3774 C 379.856 0.0822027 -5.34637 0
M  V30 3775 C 381.156 -2.03694 -4.80943 0
M  V30 3776 H 382.85 -1.41862 -2.63658 0
M  V30 3777 H 380.396 -0.683571 -1.26741 0
M  V30 3778 H 382.349 0.459985 -4.18882 0
M  V30 3779 H 381.073 1.04711 -3.09359 0
M  V30 3780 H 379.732 -1.04347 -3.51436 0
M  V30 3781 H 379.38 0.986359 -4.93234 0
M  V30 3782 H 379.08 -0.508377 -5.85397 0
M  V30 3783 H 380.604 0.392797 -6.09335 0
M  V30 3784 H 382.018 -1.78504 -5.44802 0
M  V30 3785 H 380.415 -2.57573 -5.42011 0
M  V30 3786 H 381.485 -2.72042 -4.01399 0
M  V30 3787 N 382.828 1.3818 -0.7579 0
M  V30 3788 C 384.056 2.04301 -0.326937 0
M  V30 3789 C 384.471 1.57163 1.0462 0
M  V30 3790 O 383.828 0.746626 1.66529 0
M  V30 3791 C 383.879 3.59846 -0.345363 0
M  V30 3792 O 383.6 4.05256 -1.66432 0
M  V30 3793 C 385.101 4.4319 0.098927 0
M  V30 3794 H 382.321 0.656443 -0.139012 0
M  V30 3795 H 384.865 1.76786 -1.02796 0
M  V30 3796 H 383.02 3.86182 0.306955 0
M  V30 3797 H 383.434 4.99709 -1.59345 0
M  V30 3798 H 384.908 5.51989 0.0348745 0
M  V30 3799 H 385.385 4.23947 1.14741 0
M  V30 3800 H 385.991 4.22051 -0.52468 0
M  V30 3801 N 384.306 0.507319 1.49211 0
M  V30 3802 C 385.552 -0.0350047 2.0277 0
M  V30 3803 C 385.885 -1.3606 1.38569 0
M  V30 3804 O 385.16 -1.87321 0.523542 0
M  V30 3805 C 385.443 -0.180916 3.59645 0
M  V30 3806 C 385.296 1.16825 4.34364 0
M  V30 3807 C 386.615 -0.918558 4.30407 0
M  V30 3808 H 383.734 -0.0112473 0.736914 0
M  V30 3809 H 386.376 0.659956 1.7817 0
M  V30 3810 H 384.526 -0.772826 3.80736 0
M  V30 3811 H 386.198 1.79952 4.24753 0
M  V30 3812 H 384.441 1.75594 3.96673 0
M  V30 3813 H 385.112 1.01939 5.42506 0
M  V30 3814 H 387.588 -0.41649 4.1401 0
M  V30 3815 H 386.464 -0.989505 5.39907 0
M  V30 3816 H 386.725 -1.96373 3.96093 0
M  V30 3817 N 385.784 -1.5574 0.241426 0
M  V30 3818 C 386.714 -2.24133 -0.654722 0
M  V30 3819 C 387.695 -1.21974 -1.1856 0
M  V30 3820 O 388.88 -1.50612 -1.22595 0
M  V30 3821 C 386.01 -2.93659 -1.85423 0
M  V30 3822 C 384.964 -4.0246 -1.45636 0
M  V30 3823 C 384.29 -4.59383 -2.73626 0
M  V30 3824 C 385.59 -5.18468 -0.631506 0
M  V30 3825 H 387.284 -2.99281 -0.0844353 0
M  V30 3826 H 384.83 -1.43947 -0.0391707 0
M  V30 3827 H 386.783 -3.40203 -2.48676 0
M  V30 3828 H 385.507 -2.15991 -2.44981 0
M  V30 3829 H 384.166 -3.56676 -0.847202 0
M  V30 3830 H 383.814 -3.78422 -3.3137 0
M  V30 3831 H 383.514 -5.32826 -2.4773 0
M  V30 3832 H 385.038 -5.08658 -3.37786 0
M  V30 3833 H 386.452 -5.61272 -1.1682 0
M  V30 3834 H 384.849 -5.98266 -0.468831 0
M  V30 3835 H 385.919 -4.8358 0.357506 0
M  V30 3836 N 387.262 0.0317525 -1.57568 0
M  V30 3837 C 388.487 0.738664 -1.938 0
M  V30 3838 C 388.912 1.68242 -0.841208 0
M  V30 3839 O 388.27 1.80157 0.203267 0
M  V30 3840 C 388.318 1.47417 -3.29091 0
M  V30 3841 O 387.422 2.5872 -3.2115 0
M  V30 3842 H 386.763 0.198856 -0.633524 0
M  V30 3843 H 389.293 -0.0119713 -2.04596 0
M  V30 3844 H 389.303 1.84468 -3.63917 0
M  V30 3845 H 387.978 0.781988 -4.08482 0
M  V30 3846 H 386.555 2.24231 -2.97951 0
M  V30 3847 N 388.74 1.54641 0.303973 0
M  V30 3848 C 389.986 1.74038 1.04109 0
M  V30 3849 C 390.319 0.523051 1.87024 0
M  V30 3850 O 389.594 -0.479874 1.88487 0
M  V30 3851 C 389.877 3.02761 1.94955 0
M  V30 3852 C 389.73 4.34787 1.1524 0
M  V30 3853 C 391.049 3.27336 2.94175 0
M  V30 3854 H 388.168 0.63323 0.377079 0
M  V30 3855 H 390.81 1.87354 0.316001 0
M  V30 3856 H 388.96 2.9154 2.56782 0
M  V30 3857 H 390.632 4.57922 0.557236 0
M  V30 3858 H 388.875 4.31407 0.455053 0
M  V30 3859 H 389.546 5.21116 1.8205 0
M  V30 3860 H 392.022 3.38148 2.42477 0
M  V30 3861 H 390.898 4.18726 3.54908 0
M  V30 3862 H 391.159 2.45491 3.67677 0
M  V30 3863 N 390.218 -0.567019 1.47046 0
M  V30 3864 C 391.148 -1.68482 1.61667 0
M  V30 3865 C 392.129 -1.6358 0.466418 0
M  V30 3866 O 393.314 -1.81354 0.694574 0
M  V30 3867 C 390.444 -3.07124 1.62148 0
M  V30 3868 C 389.398 -3.26867 2.76301 0
M  V30 3869 C 388.724 -4.66196 2.61849 0
M  V30 3870 C 390.024 -3.13186 4.17986 0
M  V30 3871 H 391.718 -1.56502 2.5524 0
M  V30 3872 H 389.264 -0.751486 1.22836 0
M  V30 3873 H 391.217 -3.8516 1.70968 0
M  V30 3874 H 389.941 -3.2004 0.651287 0
M  V30 3875 H 388.6 -2.51237 2.66975 0
M  V30 3876 H 388.248 -4.75898 1.62879 0
M  V30 3877 H 387.948 -4.80356 3.38425 0
M  V30 3878 H 389.472 -5.46379 2.72584 0
M  V30 3879 H 390.886 -3.81049 4.2834 0
M  V30 3880 H 389.283 -3.3886 4.95272 0
M  V30 3881 H 390.353 -2.10057 4.3704 0
M  V30 3882 N 391.696 -1.35014 -0.812953 0
M  V30 3883 C 392.626 -1.30069 -1.93919 0
M  V30 3884 C 393.607 -0.176275 -1.69184 0
M  V30 3885 O 394.792 -0.370227 -1.90638 0
M  V30 3886 C 391.922 -1.06547 -3.30552 0
M  V30 3887 C 390.876 -2.15561 -3.69753 0
M  V30 3888 C 390.202 -1.77214 -5.04479 0
M  V30 3889 C 391.502 -3.57476 -3.808 0
M  V30 3890 H 393.196 -2.24303 -1.98314 0
M  V30 3891 H 390.742 -1.07977 -0.952736 0
M  V30 3892 H 392.695 -1.01729 -4.08937 0
M  V30 3893 H 391.419 -0.0875719 -3.26483 0
M  V30 3894 H 390.078 -2.19466 -2.9365 0
M  V30 3895 H 389.726 -0.780589 -4.96906 0
M  V30 3896 H 389.426 -2.50184 -5.31678 0
M  V30 3897 H 390.95 -1.7391 -5.8531 0
M  V30 3898 H 392.364 -3.55929 -4.4943 0
M  V30 3899 H 390.761 -4.29152 -4.19462 0
M  V30 3900 H 391.831 -3.94091 -2.82525 0
M  V30 3901 N 393.175 1.03435 -1.18907 0
M  V30 3902 C 394.405 1.8012 -1.01195 0
M  V30 3903 C 394.813 1.8395 0.442613 0
M  V30 3904 O 394.156 1.27836 1.31923 0
M  V30 3905 C 394.218 3.26792 -1.49823 0
M  V30 3906 C 393.882 3.46609 -2.97844 0
M  V30 3907 C 394.879 3.37278 -3.95651 0
M  V30 3908 C 392.564 3.73001 -3.36416 0
M  V30 3909 C 394.558 3.54054 -5.30023 0
M  V30 3910 C 392.245 3.89423 -4.70949 0
M  V30 3911 C 393.243 3.79951 -5.67562 0
M  V30 3912 O 392.931 3.95895 -6.99659 0
M  V30 3913 H 392.663 0.573865 -0.357289 0
M  V30 3914 H 395.217 1.31207 -1.58031 0
M  V30 3915 H 393.447 3.76703 -0.873578 0
M  V30 3916 H 395.136 3.85055 -1.28404 0
M  V30 3917 H 395.902 3.16846 -3.67197 0
M  V30 3918 H 391.781 3.79469 -2.61772 0
M  V30 3919 H 395.325 3.46577 -6.05417 0
M  V30 3920 H 391.222 4.09351 -4.99101 0
M  V30 3921 H 391.99 4.13019 -7.06653 0
M  V30 3922 N 394.653 0.992116 1.22453 0
M  V30 3923 C 395.583 0.561677 2.26644 0
M  V30 3924 C 396.564 -0.411055 1.65059 0
M  V30 3925 O 397.749 -0.301861 1.9184 0
M  V30 3926 C 394.879 -0.125247 3.47074 0
M  V30 3927 C 393.833 0.765948 4.21091 0
M  V30 3928 C 393.159 -0.0538484 5.34673 0
M  V30 3929 C 394.459 2.06242 4.79856 0
M  V30 3930 H 396.153 1.43259 2.62902 0
M  V30 3931 H 393.699 0.690283 1.26377 0
M  V30 3932 H 395.652 -0.437764 4.1912 0
M  V30 3933 H 394.376 -1.03069 3.0991 0
M  V30 3934 H 393.035 1.0621 3.50878 0
M  V30 3935 H 392.683 -0.960188 4.9375 0
M  V30 3936 H 392.383 0.539415 5.85119 0
M  V30 3937 H 393.907 -0.360477 6.09535 0
M  V30 3938 H 395.321 1.8139 5.43848 0
M  V30 3939 H 393.718 2.60444 5.40638 0
M  V30 3940 H 394.788 2.74167 3.99951 0
M  V30 3941 N 396.131 -1.37776 0.765217 0
M  V30 3942 C 397.359 -2.04124 0.337767 0
M  V30 3943 C 397.774 -1.57715 -1.03785 0
M  V30 3944 O 397.131 -0.755447 -1.6613 0
M  V30 3945 C 397.182 -3.59658 0.364442 0
M  V30 3946 O 396.903 -4.04367 1.68579 0
M  V30 3947 C 398.404 -4.43236 -0.0754221 0
M  V30 3948 H 395.624 -0.655696 0.142491 0
M  V30 3949 H 398.168 -1.76238 1.03732 0
M  V30 3950 H 396.323 -3.86339 -0.286471 0
M  V30 3951 H 396.737 -4.98857 1.61993 0
M  V30 3952 H 398.211 -5.52 -0.00560067 0
M  V30 3953 H 398.688 -4.2455 -1.12491 0
M  V30 3954 H 399.294 -4.21767 0.547055 0
M  V30 3955 N 397.609 -0.515225 -1.4894 0
M  V30 3956 C 398.557 0.269115 -2.31038 0
M  V30 3957 C 399.551 0.949443 -1.40292 0
M  V30 3958 O 400.757 0.87551 -1.57273 0
M  V30 3959 H 397.132 0.10565 -0.744542 0
M  V30 3960 H 399.103 -0.443096 -2.95092 0
M  V30 3961 C 397.852 1.31213 -3.21991 0
M  V30 3962 H 397.175 0.798034 -3.91754 0
M  V30 3963 H 398.615 1.83263 -3.82349 0
M  V30 3964 C 397.074 2.33791 -2.42576 0
M  V30 3965 O 397.604 3.3995 -2.14003 0
M  V30 3966 N 395.81 2.06625 -2.0434 0
M  V30 3967 H 395.357 1.20314 -2.27777 0
M  V30 3968 H 395.315 2.75483 -1.51514 0
M  V30 3969 N 399.087 1.5561 -0.249682 0
M  V30 3970 C 400.034 2.21496 0.648694 0
M  V30 3971 C 401.004 1.17977 1.16921 0
M  V30 3972 O 402.189 1.46434 1.22318 0
M  V30 3973 C 399.329 2.92039 1.83868 0
M  V30 3974 C 398.442 4.10219 1.35442 0
M  V30 3975 C 397.577 4.6847 2.50419 0
M  V30 3976 C 396.616 5.78893 1.98869 0
M  V30 3977 N 395.753 6.31315 3.07223 0
M  V30 3978 H 400.593 2.97892 0.0801582 0
M  V30 3979 H 398.13 1.47074 0.0278031 0
M  V30 3980 H 400.088 3.31138 2.53778 0
M  V30 3981 H 398.718 2.18111 2.37965 0
M  V30 3982 H 397.77 3.76413 0.54928 0
M  V30 3983 H 399.082 4.89927 0.936649 0
M  V30 3984 H 398.236 5.10158 3.28366 0
M  V30 3985 H 396.975 3.87984 2.95499 0
M  V30 3986 H 395.98 5.3668 1.19393 0
M  V30 3987 H 397.205 6.61232 1.54755 0
M  V30 3988 H 395.151 5.53733 3.51732 0
M  V30 3989 H 395.068 7.06224 2.69784 0
M  V30 3990 H 396.336 6.77662 3.8522 0
M  V30 3991 N 400.565 -0.0233959 1.57583 0
M  V30 3992 C 401.981 -0.379134 1.55031 0
M  V30 3993 C 402.181 -1.76255 0.976548 0
M  V30 3994 O 401.237 -2.45266 0.600078 0
M  V30 3995 C 402.55 -0.275792 2.99433 0
M  V30 3996 C 404.098 -0.352458 3.11009 0
M  V30 3997 C 404.573 -0.278501 4.57152 0
M  V30 3998 N 406.064 -0.337123 4.61972 0
M  V30 3999 C 406.799 -0.302876 5.726 0
M  V30 4000 N 406.295 -0.220589 6.92449 0
M  V30 4001 N 408.088 -0.353023 5.6099 0
M  V30 4002 H 400.239 0.881869 1.93227 0
M  V30 4003 H 402.502 0.335867 0.886509 0
M  V30 4004 H 402.208 0.675108 3.4516 0
M  V30 4005 H 402.082 -1.06721 3.61788 0
M  V30 4006 H 404.469 -1.29379 2.65226 0
M  V30 4007 H 404.55 0.468409 2.51475 0
M  V30 4008 H 404.194 0.659189 5.03604 0
M  V30 4009 H 404.124 -1.11755 5.14605 0
M  V30 4010 H 406.615 -0.403002 3.75745 0
M  V30 4011 H 406.928 -0.199713 7.72542 0
M  V30 4012 H 405.273 -0.186555 6.9475 0
M  V30 4013 H 408.464 -0.415339 4.66254 0
M  V30 4014 H 408.637 -0.322866 6.47195 0
M  V30 4015 N 402.043 -1.548 -0.295768 0
M  V30 4016 C 402.973 -1.89115 -1.36959 0
M  V30 4017 C 403.954 -0.75059 -1.52644 0
M  V30 4018 O 405.139 -1.00678 -1.66065 0
M  V30 4019 C 402.269 -2.14307 -2.73295 0
M  V30 4020 C 401.223 -3.30151 -2.72368 0
M  V30 4021 C 400.549 -3.40772 -4.12042 0
M  V30 4022 C 401.849 -4.67126 -2.33646 0
M  V30 4023 H 403.543 -2.79053 -1.08488 0
M  V30 4024 H 401.089 -1.34266 -0.520443 0
M  V30 4025 H 403.042 -2.36898 -3.48507 0
M  V30 4026 H 401.766 -1.21145 -3.03301 0
M  V30 4027 H 400.425 -3.0749 -1.99613 0
M  V30 4028 H 400.073 -2.45117 -4.39234 0
M  V30 4029 H 399.773 -4.18645 -4.12322 0
M  V30 4030 H 401.297 -3.6563 -4.89027 0
M  V30 4031 H 402.711 -4.89414 -2.98575 0
M  V30 4032 H 401.108 -5.47751 -2.45129 0
M  V30 4033 H 402.178 -4.67489 -1.28772 0
M  V30 4034 N 403.521 0.559213 -1.47345 0
M  V30 4035 C 404.767 1.31614 -1.55079 0
M  V30 4036 C 405.122 1.91257 -0.209422 0
M  V30 4037 O 404.415 1.74796 0.784656 0
M  V30 4038 C 404.609 2.44853 -2.6035 0
M  V30 4039 C 404.438 1.96305 -4.04591 0
M  V30 4040 C 403.208 1.8024 -4.72061 0
M  V30 4041 C 405.406 1.50872 -4.91673 0
M  V30 4042 N 403.388 1.26011 -6.00828 0
M  V30 4043 C 404.759 1.08395 -6.10451 0
M  V30 4044 C 406.814 1.38905 -4.78132 0
M  V30 4045 C 405.517 0.551399 -7.17183 0
M  V30 4046 C 407.543 0.870518 -5.84958 0
M  V30 4047 C 406.905 0.455661 -7.02925 0
M  V30 4048 H 403.004 0.473712 -0.62219 0
M  V30 4049 H 405.588 0.634103 -1.84085 0
M  V30 4050 H 403.759 3.10589 -2.33215 0
M  V30 4051 H 405.491 3.11849 -2.57938 0
M  V30 4052 H 402.246 2.02895 -4.27937 0
M  V30 4053 H 402.67 1.00991 -6.69425 0
M  V30 4054 H 407.312 1.69591 -3.87297 0
M  V30 4055 H 405.03 0.232159 -8.07766 0
M  V30 4056 H 408.616 0.781507 -5.76527 0
M  V30 4057 H 407.496 0.0606414 -7.84177 0
M  V30 4058 N 404.999 1.35443 0.805782 0
M  V30 4059 C 405.962 1.28301 1.89925 0
M  V30 4060 C 406.962 0.194285 1.59622 0
M  V30 4061 O 408.152 0.448036 1.6834 0
M  V30 4062 C 405.284 0.984997 3.2636 0
M  V30 4063 H 406.477 2.2553 1.97677 0
M  V30 4064 H 404.03 1.19979 1.00173 0
M  V30 4065 H 404.765 0.016603 3.24296 0
M  V30 4066 H 404.55 1.77269 3.4974 0
M  V30 4067 H 406.04 0.960651 4.064 0
M  V30 4068 N 406.477 -1.02803 1.19454 0
M  V30 4069 C 407.725 -1.75869 0.995722 0
M  V30 4070 C 408.046 -1.89138 -0.474543 0
M  V30 4071 O 407.316 -1.42558 -1.34366 0
M  V30 4072 H 405.896 -0.651511 0.365435 0
M  V30 4073 H 408.558 -1.24004 1.50363 0
M  V30 4074 H 407.654 -2.76661 1.44447 0
M  V30 4075 N 407.956 -0.998596 -1.21925 0
M  V30 4076 C 409.202 -0.678667 -1.91107 0
M  V30 4077 C 409.535 0.78791 -1.77498 0
M  V30 4078 O 408.81 1.57043 -1.1475 0
M  V30 4079 C 409.093 -1.09245 -3.43129 0
M  V30 4080 C 408.946 -2.61801 -3.6576 0
M  V30 4081 C 410.265 -0.649984 -4.35274 0
M  V30 4082 H 407.384 -0.248025 -0.694012 0
M  V30 4083 H 410.026 -1.24314 -1.43688 0
M  V30 4084 H 408.176 -0.612171 -3.83647 0
M  V30 4085 H 409.848 -3.17543 -3.34611 0
M  V30 4086 H 408.091 -3.03609 -3.09845 0
M  V30 4087 H 408.762 -2.85804 -4.7225 0
M  V30 4088 H 411.238 -1.0626 -4.02303 0
M  V30 4089 H 410.114 -0.967743 -5.40302 0
M  V30 4090 H 410.375 0.449139 -4.39813 0
M  V30 4091 N 409.434 1.37368 -0.772513 0
M  V30 4092 C 410.381 2.30262 -0.157488 0
M  V30 4093 C 411.351 1.51137 0.688965 0
M  V30 4094 O 412.536 1.79704 0.641168 0
M  V30 4095 C 409.676 3.37611 0.715045 0
M  V30 4096 C 408.789 4.31746 -0.148098 0
M  V30 4097 C 407.924 5.26171 0.729213 0
M  V30 4098 C 406.963 6.11948 -0.136418 0
M  V30 4099 N 406.1 6.98613 0.698914 0
M  V30 4100 H 410.94 2.82277 -0.955179 0
M  V30 4101 H 408.477 1.38957 -0.482631 0
M  V30 4102 H 410.435 3.98479 1.23575 0
M  V30 4103 H 409.065 2.86959 1.47833 0
M  V30 4104 H 408.117 3.72178 -0.786613 0
M  V30 4105 H 409.429 4.92084 -0.81579 0
M  V30 4106 H 408.583 5.92247 1.31637 0
M  V30 4107 H 407.322 4.66246 1.43059 0
M  V30 4108 H 406.327 5.4485 -0.736102 0
M  V30 4109 H 407.552 6.73945 -0.835134 0
M  V30 4110 H 405.498 6.41215 1.38489 0
M  V30 4111 H 405.415 7.55948 0.0885358 0
M  V30 4112 H 406.683 7.69077 1.27044 0
M  V30 4113 N 410.912 0.523116 1.48665 0
M  V30 4114 C 412.16 -0.0134497 2.02096 0
M  V30 4115 C 412.481 -1.35418 1.40311 0
M  V30 4116 O 411.751 -1.87543 0.566074 0
M  V30 4117 H 410.331 -0.00795915 0.746958 0
M  V30 4118 H 412.993 0.685388 1.82451 0
M  V30 4119 H 412.089 -0.126849 3.11842 0
M  V30 4120 N 412.39 -1.55475 0.257931 0
M  V30 4121 C 413.337 -2.21837 -0.636939 0
M  V30 4122 C 414.307 -1.18596 -1.16294 0
M  V30 4123 O 415.492 -1.47081 -1.21539 0
M  V30 4124 C 412.632 -2.9301 -1.82317 0
M  V30 4125 C 411.745 -4.10931 -1.33265 0
M  V30 4126 C 410.88 -4.69791 -2.47931 0
M  V30 4127 C 409.919 -5.7994 -1.95796 0
M  V30 4128 N 409.056 -6.32935 -3.0387 0
M  V30 4129 H 413.896 -2.9793 -0.0643591 0
M  V30 4130 H 411.433 -1.47086 -0.0200031 0
M  V30 4131 H 413.391 -3.3248 -2.52018 0
M  V30 4132 H 412.021 -2.1937 -2.36805 0
M  V30 4133 H 411.073 -3.76699 -0.52931 0
M  V30 4134 H 412.385 -4.90417 -0.910654 0
M  V30 4135 H 411.539 -5.11892 -3.25656 0
M  V30 4136 H 410.278 -3.89545 -2.93438 0
M  V30 4137 H 409.283 -5.37305 -1.16546 0
M  V30 4138 H 410.508 -6.62043 -1.51246 0
M  V30 4139 H 408.454 -5.55591 -3.48791 0
M  V30 4140 H 408.371 -7.07645 -2.66035 0
M  V30 4141 H 409.639 -6.79695 -3.81621 0
M  V30 4142 N 413.868 0.0150385 -1.57593 0
M  V30 4143 C 414.815 1.01126 -2.07466 0
M  V30 4144 C 415.785 1.35064 -0.966794 0
M  V30 4145 O 416.97 1.4516 -1.23827 0
M  V30 4146 C 414.11 2.30276 -2.57035 0
M  V30 4147 C 413.223 2.02373 -3.81666 0
M  V30 4148 C 412.358 3.25496 -4.19793 0
M  V30 4149 C 411.397 2.93211 -5.37303 0
M  V30 4150 N 410.534 4.08826 -5.70794 0
M  V30 4151 H 415.374 0.57901 -2.92321 0
M  V30 4152 H 412.911 0.27426 -1.44521 0
M  V30 4153 H 414.869 3.05757 -2.83846 0
M  V30 4154 H 413.499 2.71197 -1.75077 0
M  V30 4155 H 412.551 1.17327 -3.61854 0
M  V30 4156 H 413.863 1.74567 -4.67256 0
M  V30 4157 H 413.017 4.09333 -4.47807 0
M  V30 4158 H 411.756 3.56428 -3.32882 0
M  V30 4159 H 410.761 2.07777 -5.09027 0
M  V30 4160 H 411.986 2.63542 -6.25877 0
M  V30 4161 H 409.932 4.39682 -4.86842 0
M  V30 4162 H 409.849 3.84491 -6.50924 0
M  V30 4163 H 411.117 4.93496 -6.03392 0
M  V30 4164 N 415.346 1.54954 0.287554 0
M  V30 4165 C 416.293 1.86834 1.35505 0
M  V30 4166 C 417.263 0.718452 1.49758 0
M  V30 4167 O 418.448 0.968358 1.644 0
M  V30 4168 C 415.588 2.13303 2.71286 0
M  V30 4169 C 414.701 3.40883 2.65373 0
M  V30 4170 C 413.836 3.57125 3.93236 0
M  V30 4171 C 412.875 4.78449 3.81776 0
M  V30 4172 N 412.012 4.91426 5.01443 0
M  V30 4173 H 416.852 2.77889 1.07619 0
M  V30 4174 H 414.389 1.37593 0.520241 0
M  V30 4175 H 416.347 2.26646 3.50267 0
M  V30 4176 H 414.977 1.25499 2.97405 0
M  V30 4177 H 414.029 3.36088 1.78182 0
M  V30 4178 H 415.341 4.29993 2.52799 0
M  V30 4179 H 414.495 3.70207 4.80658 0
M  V30 4180 H 413.234 2.66173 4.0866 0
M  V30 4181 H 412.239 4.65386 2.92738 0
M  V30 4182 H 413.464 5.70822 3.67884 0
M  V30 4183 H 411.41 4.03401 5.17304 0
M  V30 4184 H 411.327 5.74559 4.91343 0
M  V30 4185 H 412.595 5.08879 5.90477 0
M  V30 4186 N 416.824 -0.551391 1.4764 0
M  V30 4187 C 418.052 -1.33357 1.58189 0
M  V30 4188 C 418.467 -1.87342 0.234199 0
M  V30 4189 O 417.824 -1.65301 -0.77343 0
M  V30 4190 C 417.875 -2.49942 2.61173 0
M  V30 4191 O 417.596 -1.98187 3.90709 0
M  V30 4192 C 419.097 -3.42072 2.8196 0
M  V30 4193 H 416.317 -0.40631 0.533998 0
M  V30 4194 H 418.861 -0.667367 1.93304 0
M  V30 4195 H 417.016 -3.12489 2.28975 0
M  V30 4196 H 417.43 -2.74342 4.47031 0
M  V30 4197 H 418.904 -4.20278 3.57869 0
M  V30 4198 H 419.381 -3.95978 1.89995 0
M  V30 4199 H 419.987 -2.85336 3.15378 0
M  V30 4200 N 418.302 -1.35869 -0.798587 0
M  V30 4201 C 419.25 -1.29491 -1.93222 0
M  V30 4202 C 420.244 -0.18836 -1.6835 0
M  V30 4203 O 421.45 -0.354822 -1.76468 0
M  V30 4204 H 417.825 -0.402901 -0.63496 0
M  V30 4205 H 419.796 -2.25247 -1.9572 0
M  V30 4206 C 418.545 -1.09184 -3.30112 0
M  V30 4207 H 417.868 -1.93574 -3.49813 0
M  V30 4208 H 419.308 -1.08766 -4.09812 0
M  V30 4209 C 417.767 0.203959 -3.36282 0
M  V30 4210 O 418.297 1.19699 -3.83451 0
M  V30 4211 N 416.503 0.245488 -2.89561 0
M  V30 4212 H 416.05 -0.563223 -2.51367 0
M  V30 4213 H 416.008 1.11219 -2.94071 0
M  V30 4214 N 419.78 1.02168 -1.19998 0
M  V30 4215 C 421.026 1.75945 -1.00852 0
M  V30 4216 C 421.359 1.88702 0.458828 0
M  V30 4217 O 420.634 1.40911 1.34069 0
M  V30 4218 C 420.917 3.18154 -1.68671 0
M  V30 4219 C 420.77 3.13224 -3.22817 0
M  V30 4220 C 422.089 4.16711 -1.41561 0
M  V30 4221 H 419.208 0.638673 -0.367785 0
M  V30 4222 H 421.85 1.19222 -1.4794 0
M  V30 4223 H 420 3.66586 -1.28636 0
M  V30 4224 H 421.672 2.72635 -3.72112 0
M  V30 4225 H 419.915 2.50751 -3.53986 0
M  V30 4226 H 420.586 4.13728 -3.65422 0
M  V30 4227 H 423.062 3.76913 -1.76284 0
M  V30 4228 H 421.938 5.14391 -1.91553 0
M  V30 4229 H 422.199 4.40774 -0.342193 0
M  V30 4230 O 421.297 1.13266 1.15122 0
M  V30 4231 H 421.988 0.848237 1.7414 0
M  V30 END ATOM
M  V30 BEGIN BOND
M  V30 END BOND
M  V30 END CTAB
M  END
$$$$
