drugbank_target|Q02761 Cytochrome b (DB03152; DB08690)
 OpenBabel12092120433D

  0  0  0     0  0            999 V3000
M  V30 BEGIN CTAB
M  V30 COUNTS 7095 7228 0 0 0
M  V30 BEGIN ATOM
M  V30 1 H -0.908 1.98254 -0.117106 0
M  V30 2 N 0 1.576 0 0
M  V30 3 C 0.933 2.03868 1.02534 0
M  V30 4 C 1.911 0.928543 1.3348 0
M  V30 5 O 3.095 1.19667 1.45644 0
M  V30 6 C 0.222 2.43627 2.35294 0
M  V30 7 C -0.732 3.65373 2.2001 0
M  V30 8 S 0.101 5.13292 1.52614 0
M  V30 9 C 1.257 5.56322 2.86805 0
M  V30 10 H 1.49 2.90518 0.631377 0
M  V30 11 H -0.977 1.52953 0.210867 0
M  V30 12 H 0.981 2.67203 3.11629 0
M  V30 13 H -0.358 1.57376 2.7183 0
M  V30 14 H -1.165 3.90944 3.18086 0
M  V30 15 H -1.563 3.418 1.51819 0
M  V30 16 H 0.729 5.58782 3.83104 0
M  V30 17 H 1.672 6.56266 2.65933 0
M  V30 18 H 2.08 4.83886 2.90714 0
M  V30 19 N 1.4781 -0.272755 1.55222 0
M  V30 20 C 2.7031 -1.02683 1.80197 0
M  V30 21 C 3.1281 -1.79142 0.573551 0
M  V30 22 O 2.4861 -1.74917 -0.476849 0
M  V30 23 C 2.5341 -1.9609 3.02624 0
M  V30 24 O 1.6381 -3.04863 2.77727 0
M  V30 25 H 0.9791 -0.293557 0.595584 0
M  V30 26 H 3.5091 -0.30159 2.02365 0
M  V30 27 H 3.5191 -2.38039 3.31363 0
M  V30 28 H 2.1941 -1.39851 3.91682 0
M  V30 29 H 0.7711 -2.67228 2.60084 0
M  V30 30 N 2.9562 -1.48159 -0.537278 0
M  V30 31 C 4.2042 -1.55497 -1.29094 0
M  V30 32 C 4.5252 -0.227454 -1.93669 0
M  V30 33 O 3.7952 0.750386 -1.80959 0
M  V30 34 H 2.3752 -0.572832 -0.47945 0
M  V30 35 H 5.0372 -1.84579 -0.625818 0
M  V30 36 H 4.1332 -2.33216 -2.07405 0
M  V30 37 N 4.4343 0.785586 -1.36625 0
M  V30 38 C 5.6833 1.53883 -1.30396 0
M  V30 39 C 5.9963 1.95271 0.113452 0
M  V30 40 O 7.2023 2.69858 0.298142 0
M  V30 41 C 5.6583 2.77808 -2.28802 0
M  V30 42 C 5.2663 2.43574 -3.75999 0
M  V30 43 C 7.0103 3.55783 -2.31558 0
M  V30 44 C 4.9173 3.63919 -4.66173 0
M  V30 45 H 3.8473 0.577678 -0.484566 0
M  V30 46 H 6.4983 0.861705 -1.62009 0
M  V30 47 H 4.8803 3.47339 -1.90188 0
M  V30 48 H 6.0543 1.81916 -4.23371 0
M  V30 49 H 4.3693 1.78803 -3.76056 0
M  V30 50 H 6.9663 4.45205 -2.96137 0
M  V30 51 H 7.3093 3.94644 -1.3252 0
M  V30 52 H 7.8423 2.93235 -2.68809 0
M  V30 53 H 4.5813 3.3015 -5.66287 0
M  V30 54 H 4.1013 4.2473 -4.23515 0
M  V30 55 H 5.7803 4.30901 -4.82632 0
M  V30 56 N 5.9124 1.20967 1.01018 0
M  V30 57 C 7.3234 1.02319 1.56165 0
M  V30 58 C 7.6744 -0.418546 1.91684 0
M  V30 59 O 6.7994 -1.30096 1.72928 0
M  V30 60 C 7.3944 1.85109 2.8376 0
M  V30 61 C 5.9534 1.70809 3.35412 0
M  V30 62 C 5.1004 1.82643 2.08655 0
M  V30 63 H 8.0514 1.35065 0.833255 0
M  V30 64 H 8.0724 1.35827 3.55431 0
M  V30 65 H 7.5844 2.90035 2.57878 0
M  V30 66 H 5.6854 0.685464 3.66241 0
M  V30 67 H 5.7984 2.52467 4.07182 0
M  V30 68 H 4.1624 1.25896 2.21409 0
M  V30 69 H 4.9454 2.89066 1.85191 0
M  V30 70 N 7.3905 -1.2043 1.01659 0
M  V30 71 C 8.3405 -2.21076 0.557623 0
M  V30 72 C 9.3245 -1.56176 -0.387029 0
M  V30 73 O 10.5165 -1.7575 -0.209996 0
M  V30 74 C 7.6455 -3.43146 -0.102707 0
M  V30 75 C 6.7315 -4.15213 0.863652 0
M  V30 76 N 7.1225 -4.63662 2.02117 0
M  V30 77 C 5.4205 -4.40716 0.684472 0
M  V30 78 C 6.1215 -5.18868 2.62966 0
M  V30 79 N 5.0975 -5.0893 1.91027 0
M  V30 80 H 8.8995 -2.56201 1.44008 0
M  V30 81 H 6.4135 -1.36366 0.881931 0
M  V30 82 H 8.4105 -4.14475 -0.449054 0
M  V30 83 H 7.0705 -3.09526 -0.981003 0
M  V30 84 H 8.0815 -4.58877 2.40109 0
M  V30 85 H 4.7585 -4.17245 -0.14577 0
M  V30 86 H 6.1485 -5.6673 3.60924 0
M  V30 87 N 8.8686 -0.792821 -1.36206 0
M  V30 88 C 10.1456 -0.290627 -1.93429 0
M  V30 89 C 10.5256 1.21773 -1.72437 0
M  V30 90 O 9.8736 2.0108 -1.08531 0
M  V30 91 C 10.0836 -0.686973 -3.42172 0
M  V30 92 C 11.4316 -0.668643 -4.19302 0
M  V30 93 O 12.4556 -0.627658 -3.50626 0
M  V30 94 O 11.3146 -0.714597 -5.41808 0
M  V30 95 H 8.4086 -0.0727927 -0.82379 0
M  V30 96 H 10.9546 -0.875593 -1.45367 0
M  V30 97 H 9.7266 -1.72711 -3.51122 0
M  V30 98 H 9.3496 -0.0760733 -3.97527 0
M  V30 99 N 10.3467 1.47872 -0.545128 0
M  V30 100 C 11.2967 2.26842 0.229456 0
M  V30 101 C 12.2807 1.33626 0.896267 0
M  V30 102 O 13.4727 1.58063 0.79657 0
M  V30 103 C 10.6017 3.19089 1.26638 0
M  V30 104 C 9.6877 4.19783 0.603598 0
M  V30 105 N 10.0787 5.0479 -0.319405 0
M  V30 106 C 8.3767 4.3765 0.858989 0
M  V30 107 C 9.0777 5.77433 -0.703241 0
M  V30 108 N 8.0537 5.43566 -0.0608309 0
M  V30 109 H 11.8557 2.89947 -0.480391 0
M  V30 110 H 9.3697 1.58263 -0.364209 0
M  V30 111 H 11.3667 3.74337 1.83515 0
M  V30 112 H 10.0267 2.5754 1.97745 0
M  V30 113 H 11.0377 5.13244 -0.692889 0
M  V30 114 H 7.7147 3.87281 1.55948 0
M  V30 115 H 9.1047 6.55824 -1.46098 0
M  V30 116 N 11.8248 0.280983 1.55075 0
M  V30 117 C 13.0548 -0.336804 2.03836 0
M  V30 118 C 13.4628 -1.49577 1.15859 0
M  V30 119 O 12.8058 -1.82888 0.172503 0
M  V30 120 C 12.8678 -0.874616 3.48699 0
M  V30 121 C 12.5318 0.156478 4.56732 0
M  V30 122 C 13.5288 0.978032 5.10618 0
M  V30 123 C 11.2138 0.292409 5.01448 0
M  V30 124 C 13.2078 1.92165 6.07743 0
M  V30 125 C 10.8948 1.23949 5.98398 0
M  V30 126 C 11.8928 2.05261 6.51427 0
M  V30 127 O 11.5808 2.98367 7.4648 0
M  V30 128 H 11.3128 -0.0800885 0.671239 0
M  V30 129 H 13.8668 0.412589 2.01213 0
M  V30 130 H 12.0968 -1.67418 3.4858 0
M  V30 131 H 13.7858 -1.40612 3.80766 0
M  V30 132 H 14.5518 0.883782 4.7688 0
M  V30 133 H 10.4308 -0.330498 4.59814 0
M  V30 134 H 13.9748 2.55672 6.49059 0
M  V30 135 H 9.8718 1.33454 6.31554 0
M  V30 136 H 10.6398 2.93116 7.64215 0
M  V30 137 N 13.3029 -1.57598 0.00835791 0
M  V30 138 C 14.2129 -2.12385 -0.996487 0
M  V30 139 C 15.2289 -1.07108 -1.37127 0
M  V30 140 O 16.4049 -1.39055 -1.4569 0
M  V30 141 C 13.4699 -2.62314 -2.26699 0
M  V30 142 C 12.5309 -3.82225 -1.95456 0
M  V30 143 C 11.7639 -4.29763 -3.16449 0
M  V30 144 O 11.9869 -3.76584 -4.28416 0
M  V30 145 O 10.9209 -5.21832 -2.99958 0
M  V30 146 H 14.7469 -2.98479 -0.560725 0
M  V30 147 H 12.3319 -1.47903 -0.210987 0
M  V30 148 H 14.2139 -2.94589 -3.01322 0
M  V30 149 H 12.8889 -1.79313 -2.69497 0
M  V30 150 H 11.7959 -3.54909 -1.18282 0
M  V30 151 H 13.1289 -4.66324 -1.57489 0
M  V30 152 N 14.781 0.264519 -1.55364 0
M  V30 153 C 16.192 0.834936 -1.6699 0
M  V30 154 C 16.543 1.86718 -0.602552 0
M  V30 155 O 15.668 2.14899 0.254425 0
M  V30 156 C 16.263 1.5212 -3.02729 0
M  V30 157 C 14.822 2.03954 -3.16354 0
M  V30 158 C 13.969 0.884498 -2.62815 0
M  V30 159 H 16.92 0.0406869 -1.58648 0
M  V30 160 H 16.941 2.38853 -2.96191 0
M  V30 161 H 16.453 0.769668 -3.80392 0
M  V30 162 H 14.554 2.82041 -2.43482 0
M  V30 163 H 14.667 2.24902 -4.23032 0
M  V30 164 H 13.031 1.2802 -2.20188 0
M  V30 165 H 13.814 0.14634 -3.42988 0
M  V30 166 N 16.2591 1.48442 0.529413 0
M  V30 167 C 17.6751 1.34575 0.858004 0
M  V30 168 C 17.8751 0.3572 1.98309 0
M  V30 169 O 16.9311 -0.221379 2.51528 0
M  V30 170 C 18.2441 2.74617 1.22499 0
M  V30 171 C 19.7921 2.83109 1.33484 0
M  V30 172 C 20.2671 4.23854 1.73526 0
M  V30 173 N 21.7581 4.2653 1.80628 0
M  V30 174 C 22.4931 5.32372 2.12997 0
M  V30 175 N 21.9891 6.48491 2.43786 0
M  V30 176 N 23.7821 5.19766 2.14008 0
M  V30 177 H 15.9331 2.1133 -0.212925 0
M  V30 178 H 18.1961 0.947439 -0.0326199 0
M  V30 179 H 17.9021 3.4852 0.471905 0
M  V30 180 H 17.7761 3.08177 2.17501 0
M  V30 181 H 20.1631 2.09462 2.0787 0
M  V30 182 H 20.2441 2.53168 0.366027 0
M  V30 183 H 19.8881 4.98018 0.997013 0
M  V30 184 H 19.8181 4.5124 2.71459 0
M  V30 185 H 22.3091 3.42772 1.59108 0
M  V30 186 H 22.6221 7.24993 2.67592 0
M  V30 187 H 20.9671 6.51765 2.41304 0
M  V30 188 H 24.1581 4.28066 1.89412 0
M  V30 189 H 24.3311 6.02354 2.38902 0
M  V30 190 N 17.7372 -0.778329 1.37039 0
M  V30 191 C 18.9652 -1.56734 1.35063 0
M  V30 192 C 19.3802 -1.88686 -0.0655597 0
M  V30 193 O 18.7372 -1.5096 -1.02554 0
M  V30 194 C 18.7882 -2.88163 2.18276 0
M  V30 195 O 18.5092 -2.57583 3.54376 0
M  V30 196 C 20.0102 -3.82422 2.24206 0
M  V30 197 H 17.2302 -0.485778 0.462883 0
M  V30 198 H 19.7742 -0.965185 1.8029 0
M  V30 199 H 17.9292 -3.44818 1.76576 0
M  V30 200 H 18.3432 -3.41699 3.97922 0
M  V30 201 H 19.8172 -4.71667 2.86765 0
M  V30 202 H 20.2942 -4.21078 1.24861 0
M  V30 203 H 20.9002 -3.31697 2.6619 0
M  V30 204 N 19.2153 -1.21501 -1.00376 0
M  V30 205 C 20.4633 -1.03095 -1.73827 0
M  V30 206 C 20.7843 0.436341 -1.90055 0
M  V30 207 O 20.0543 1.31466 -1.45236 0
M  V30 208 H 18.6343 -0.378487 -0.644016 0
M  V30 209 H 21.2963 -1.52831 -1.20949 0
M  V30 210 H 20.3923 -1.49991 -2.73695 0
M  V30 211 N 20.6934 1.19889 -1.02296 0
M  V30 212 C 21.9424 1.88743 -0.711257 0
M  V30 213 C 22.2554 1.80112 0.762817 0
M  V30 214 O 23.4614 2.44161 1.18733 0
M  V30 215 C 21.9174 3.38525 -1.22185 0
M  V30 216 C 21.5254 3.55727 -2.72328 0
M  V30 217 C 23.2694 4.12893 -0.985864 0
M  V30 218 C 21.1764 4.99369 -3.16835 0
M  V30 219 H 20.1064 0.706885 -0.262353 0
M  V30 220 H 22.7574 1.35586 -1.23648 0
M  V30 221 H 21.1394 3.91044 -0.624571 0
M  V30 222 H 22.3134 3.13564 -3.3766 0
M  V30 223 H 20.6284 2.94739 -2.9414 0
M  V30 224 H 23.2254 5.18813 -1.29374 0
M  V30 225 H 23.5684 4.16228 0.0775055 0
M  V30 226 H 24.1014 3.66494 -1.54684 0
M  V30 227 H 20.8404 5.01193 -4.22476 0
M  V30 228 H 20.3604 5.42317 -2.56228 0
M  V30 229 H 22.0394 5.67988 -3.09837 0
M  V30 230 N 22.1715 0.800033 1.35784 0
M  V30 231 C 23.0815 0.207204 2.33683 0
M  V30 232 C 24.0975 -0.64631 1.61551 0
M  V30 233 O 25.2735 -0.559604 1.93469 0
M  V30 234 C 22.3385 -0.639659 3.40748 0
M  V30 235 C 21.3995 0.233585 4.28664 0
M  V30 236 C 20.6325 -0.572954 5.30616 0
M  V30 237 O 20.8555 -1.80816 5.40982 0
M  V30 238 O 19.7895 0.0327285 6.01891 0
M  V30 239 H 23.6155 1.01692 2.86169 0
M  V30 240 H 21.2005 0.561691 1.38439 0
M  V30 241 H 23.0825 -1.12223 4.06182 0
M  V30 242 H 21.7575 -1.42708 2.90544 0
M  V30 243 H 20.6645 0.763147 3.66233 0
M  V30 244 H 21.9975 0.984784 4.82248 0
M  V30 245 N 23.6496 -1.47581 0.552962 0
M  V30 246 C 24.5966 -2.29957 -0.197108 0
M  V30 247 C 25.5666 -1.38799 -0.912359 0
M  V30 248 O 26.7516 -1.67761 -0.908888 0
M  V30 249 C 23.8916 -3.22672 -1.22379 0
M  V30 250 C 23.0046 -4.28919 -0.515038 0
M  V30 251 C 22.1396 -5.0879 -1.52664 0
M  V30 252 C 21.1786 -6.06815 -0.802631 0
M  V30 253 N 20.3156 -6.7966 -1.76086 0
M  V30 254 H 25.1556 -2.93578 0.511486 0
M  V30 255 H 22.6926 -1.4471 0.264067 0
M  V30 256 H 24.6506 -3.74845 -1.83159 0
M  V30 257 H 23.2806 -2.60925 -1.90047 0
M  V30 258 H 22.3326 -3.79835 0.207192 0
M  V30 259 H 23.6446 -4.98773 0.0523425 0
M  V30 260 H 22.7986 -5.65091 -2.20809 0
M  V30 261 H 21.5376 -4.38828 -2.12794 0
M  V30 262 H 20.5426 -5.49695 -0.107238 0
M  V30 263 H 21.7676 -6.78784 -0.207135 0
M  V30 264 H 19.7136 -6.12432 -2.35081 0
M  V30 265 H 19.6306 -7.45669 -1.24552 0
M  V30 266 H 20.8986 -7.40538 -2.43359 0
M  V30 267 N 25.1277 -0.289203 -1.54924 0
M  V30 268 C 26.3737 0.316922 -2.00916 0
M  V30 269 C 26.7287 1.52424 -1.17408 0
M  V30 270 O 26.0217 1.90097 -0.239536 0
M  V30 271 C 26.2157 0.736119 -3.49737 0
M  V30 272 C 26.0447 -0.429036 -4.47649 0
M  V30 273 C 24.8147 -0.917311 -4.96904 0
M  V30 274 C 27.0127 -1.27016 -4.98369 0
M  V30 275 N 24.9947 -2.05046 -5.78644 0
M  V30 276 C 26.3657 -2.25097 -5.77695 0
M  V30 277 C 28.4207 -1.30188 -4.80578 0
M  V30 278 C 27.1237 -3.26114 -6.41126 0
M  V30 279 C 29.1497 -2.30057 -5.44819 0
M  V30 280 C 28.5117 -3.2687 -6.23968 0
M  V30 281 H 24.6107 0.0807535 -0.777819 0
M  V30 282 H 27.1947 -0.416434 -1.90194 0
M  V30 283 H 25.3657 1.43867 -3.60773 0
M  V30 284 H 27.0977 1.32078 -3.82541 0
M  V30 285 H 23.8527 -0.494248 -4.71014 0
M  V30 286 H 24.2767 -2.62108 -6.24202 0
M  V30 287 H 28.9187 -0.567163 -4.18979 0
M  V30 288 H 26.6367 -4.00512 -7.01866 0
M  V30 289 H 30.2227 -2.33271 -5.32988 0
M  V30 290 H 29.1027 -4.02883 -6.72796 0
M  V30 291 N 26.6058 1.57591 -0.0167156 0
M  V30 292 C 27.5358 2.12496 0.967858 0
M  V30 293 C 28.5168 1.03807 1.34752 0
M  V30 294 O 29.7018 1.31577 1.42833 0
M  V30 295 C 26.8318 2.64194 2.25431 0
M  V30 296 C 25.7858 3.77559 2.01576 0
M  V30 297 C 25.1118 4.15636 3.36379 0
M  V30 298 C 26.4118 5.04151 1.36489 0
M  V30 299 H 28.1058 2.95013 0.510643 0
M  V30 300 H 25.6518 1.41915 0.244181 0
M  V30 301 H 27.6048 3.01236 2.94678 0
M  V30 302 H 26.3288 1.78821 2.73296 0
M  V30 303 H 24.9878 3.40937 1.34751 0
M  V30 304 H 24.6358 3.27263 3.81979 0
M  V30 305 H 24.3358 4.92022 3.21229 0
M  V30 306 H 25.8598 4.5525 4.06915 0
M  V30 307 H 27.2738 5.38857 1.95718 0
M  V30 308 H 25.6708 5.85453 1.31776 0
M  V30 309 H 26.7408 4.83733 0.336219 0
M  V30 310 N 28.0839 -0.256276 1.55502 0
M  V30 311 C 29.0339 -1.31981 1.85916 0
M  V30 312 C 30.0179 -1.43927 0.719296 0
M  V30 313 O 31.2099 -1.47326 0.981019 0
M  V30 314 C 28.3389 -2.67703 2.14918 0
M  V30 315 C 27.4249 -2.59801 3.35208 0
M  V30 316 N 27.8159 -2.21524 4.54709 0
M  V30 317 C 26.1139 -2.90832 3.38131 0
M  V30 318 C 26.8149 -2.24024 5.36832 0
M  V30 319 N 25.7909 -2.63158 4.75656 0
M  V30 320 H 29.5929 -1.01423 2.75845 0
M  V30 321 H 27.1069 -0.464911 1.55603 0
M  V30 322 H 29.1039 -3.44445 2.34869 0
M  V30 323 H 27.7639 -2.99137 1.26282 0
M  V30 324 H 28.7749 -1.93223 4.80505 0
M  V30 325 H 25.4519 -3.26867 2.59739 0
M  V30 326 H 26.8419 -1.9685 6.42417 0
M  V30 327 N 29.562 -1.4872 -0.521534 0
M  V30 328 C 30.787 -1.61101 -1.30618 0
M  V30 329 C 31.212 -0.274611 -1.86085 0
M  V30 330 O 30.57 0.754937 -1.64834 0
M  V30 331 C 30.618 -2.66709 -2.4269 0
M  V30 332 O 29.722 -2.24456 -3.45967 0
M  V30 333 H 29.063 -0.539921 -0.386499 0
M  V30 334 H 31.593 -1.94767 -0.626645 0
M  V30 335 H 31.603 -2.88245 -2.88754 0
M  V30 336 H 30.278 -3.63727 -2.01682 0
M  V30 337 H 28.855 -2.13168 -3.05964 0
M  V30 338 N 31.0401 0.771051 -1.3745 0
M  V30 339 C 32.4561 1.07171 -1.18265 0
M  V30 340 C 32.6561 2.01491 -0.019287 0
M  V30 341 O 31.7121 2.44244 0.640408 0
M  V30 342 C 33.0251 1.66854 -2.50161 0
M  V30 343 C 34.5731 1.79109 -2.56689 0
M  V30 344 C 35.0481 2.42205 -3.88717 0
M  V30 345 N 36.5391 2.49655 -3.90162 0
M  V30 346 C 37.2741 2.9933 -4.8907 0
M  V30 347 N 36.7701 3.49172 -5.98374 0
M  V30 348 N 38.5631 2.9821 -4.76474 0
M  V30 349 H 30.7141 0.144796 -2.11906 0
M  V30 350 H 32.9771 0.126863 -0.939473 0
M  V30 351 H 32.6831 1.05017 -3.35655 0
M  V30 352 H 32.5571 2.6614 -2.673 0
M  V30 353 H 34.9441 2.40077 -1.71601 0
M  V30 354 H 35.0251 0.785757 -2.43433 0
M  V30 355 H 34.6691 1.81875 -4.74219 0
M  V30 356 H 34.5991 3.43345 -3.99276 0
M  V30 357 H 37.0901 2.14383 -3.11205 0
M  V30 358 H 37.4031 3.8548 -6.69795 0
M  V30 359 H 35.7481 3.47275 -6.02018 0
M  V30 360 H 38.9391 2.58572 -3.90203 0
M  V30 361 H 39.1121 3.36613 -5.53711 0
M  V30 362 N 32.5182 1.22032 0.997298 0
M  V30 363 C 33.4482 1.01065 2.10495 0
M  V30 364 C 34.4292 -0.0669542 1.69968 0
M  V30 365 O 35.6142 0.0943987 1.9397 0
M  V30 366 C 32.7442 0.582874 3.42374 0
M  V30 367 C 31.6982 1.60592 3.96729 0
M  V30 368 C 31.0242 1.03412 5.24605 0
M  V30 369 C 32.3242 2.99478 4.27914 0
M  V30 370 H 34.0182 1.93708 2.28292 0
M  V30 371 H 31.5642 0.932761 1.09707 0
M  V30 372 H 33.5172 0.423332 4.19268 0
M  V30 373 H 32.2412 -0.379213 3.24391 0
M  V30 374 H 30.9002 1.75316 3.21963 0
M  V30 375 H 30.5482 0.063518 5.0296 0
M  V30 376 H 30.2482 1.71754 5.61938 0
M  V30 377 H 31.7722 0.886066 6.04137 0
M  V30 378 H 33.1862 2.88153 4.95622 0
M  V30 379 H 31.5832 3.64903 4.76409 0
M  V30 380 H 32.6532 3.49742 3.3587 0
M  V30 381 N 33.9963 -1.19345 1.0293 0
M  V30 382 C 35.4073 -1.70725 0.755633 0
M  V30 383 C 35.7583 -1.82326 -0.724676 0
M  V30 384 O 34.8833 -1.49471 -1.56484 0
M  V30 385 C 35.4783 -3.10084 1.36503 0
M  V30 386 C 34.0373 -3.58723 1.13994 0
M  V30 387 C 33.1843 -2.35577 1.46283 0
M  V30 388 H 36.1353 -1.0418 1.19718 0
M  V30 389 H 36.1563 -3.72787 0.762217 0
M  V30 390 H 35.6683 -3.01609 2.44241 0
M  V30 391 H 33.7693 -3.72512 0.0807901 0
M  V30 392 H 33.8823 -4.42816 1.82894 0
M  V30 393 H 32.2463 -2.38935 0.88217 0
M  V30 394 H 33.0293 -2.29731 2.55105 0
M  V30 395 N 35.4744 -0.807222 -1.35358 0
M  V30 396 C 36.7234 -0.384376 -1.98004 0
M  V30 397 C 37.0364 1.0543 -1.64754 0
M  V30 398 O 38.2424 1.58029 -2.20769 0
M  V30 399 C 36.6984 -0.636326 -3.5423 0
M  V30 400 C 36.3064 -2.08759 -3.96388 0
M  V30 401 C 38.0504 -0.278869 -4.23583 0
M  V30 402 C 35.9574 -2.28525 -5.45463 0
M  V30 403 H 34.8874 -0.139986 -0.740891 0
M  V30 404 H 37.5384 -0.991369 -1.54415 0
M  V30 405 H 35.9204 0.0406256 -3.95979 0
M  V30 406 H 37.0944 -2.8024 -3.6579 0
M  V30 407 H 35.4094 -2.40497 -3.39926 0
M  V30 408 H 38.0064 -0.404599 -5.33167 0
M  V30 409 H 38.3494 0.775012 -4.09022 0
M  V30 410 H 38.8824 -0.909764 -3.87257 0
M  V30 411 H 35.6214 -3.32361 -5.64992 0
M  V30 412 H 35.1414 -1.61569 -5.77629 0
M  V30 413 H 36.8204 -2.10109 -6.11934 0
M  V30 414 N 36.9525 1.47285 -0.560781 0
M  V30 415 C 38.1985 2.02764 -0.0381184 0
M  V30 416 C 38.5315 1.43384 1.30976 0
M  V30 417 O 37.8065 0.590733 1.85312 0
M  V30 418 C 38.0895 3.60064 0.0511427 0
M  V30 419 C 37.9425 4.2987 -1.32408 0
M  V30 420 C 39.2615 4.33439 0.762795 0
M  V30 421 H 36.3805 0.736841 -0.0153264 0
M  V30 422 H 39.0225 1.75675 -0.723759 0
M  V30 423 H 37.1725 3.83274 0.635065 0
M  V30 424 H 38.8445 4.17989 -1.95148 0
M  V30 425 H 37.0875 3.90085 -1.8978 0
M  V30 426 H 37.7585 5.38478 -1.21431 0
M  V30 427 H 40.2345 4.15243 0.266965 0
M  V30 428 H 39.1105 5.43124 0.794221 0
M  V30 429 H 39.3715 4.02915 1.81966 0
M  V30 430 N 38.4306 0.297415 1.54768 0
M  V30 431 C 39.3936 -0.567375 2.22066 0
M  V30 432 C 40.3936 -1.06409 1.20556 0
M  V30 433 O 41.5836 -0.960691 1.45315 0
M  V30 434 C 38.7156 -1.78517 2.90421 0
M  V30 435 H 39.9086 0.0205534 2.99893 0
M  V30 436 H 37.4616 0.0482163 1.56226 0
M  V30 437 H 38.1966 -2.41303 2.16664 0
M  V30 438 H 37.9816 -1.43669 3.64831 0
M  V30 439 H 39.4716 -2.39964 3.41771 0
M  V30 440 N 39.9087 -1.5758 0.0250728 0
M  V30 441 C 40.8387 -2.13007 -0.956575 0
M  V30 442 C 41.8197 -1.0452 -1.342 0
M  V30 443 O 43.0047 -1.32332 -1.42133 0
M  V30 444 C 40.1347 -2.65386 -2.24026 0
M  V30 445 C 39.0887 -3.78623 -1.99571 0
M  V30 446 C 38.4147 -4.17414 -3.3417 0
M  V30 447 C 39.7147 -5.04867 -1.33814 0
M  V30 448 H 41.4087 -2.9528 -0.494991 0
M  V30 449 H 38.9547 -1.42042 -0.236651 0
M  V30 450 H 40.9077 -3.02794 -2.93076 0
M  V30 451 H 39.6317 -1.80268 -2.72343 0
M  V30 452 H 38.2907 -3.41646 -1.32941 0
M  V30 453 H 37.9387 -3.29284 -3.80238 0
M  V30 454 H 37.6387 -4.93719 -3.18615 0
M  V30 455 H 39.1627 -4.57402 -4.04495 0
M  V30 456 H 40.5767 -5.39888 -1.92857 0
M  V30 457 H 38.9737 -5.86144 -1.28669 0
M  V30 458 H 40.0437 -4.83904 -0.310561 0
M  V30 459 N 41.3868 0.248026 -1.55636 0
M  V30 460 C 42.3498 1.29044 -1.89421 0
M  V30 461 C 43.3498 1.41134 -0.770581 0
M  V30 462 O 44.5398 1.39854 -1.03858 0
M  V30 463 C 41.6718 2.66831 -2.12165 0
M  V30 464 H 42.8648 1.00305 -2.82629 0
M  V30 465 H 40.4178 0.487265 -1.48511 0
M  V30 466 H 41.1528 3.00711 -1.21422 0
M  V30 467 H 40.9378 2.59438 -2.93997 0
M  V30 468 H 42.4278 3.42103 -2.3949 0
M  V30 469 N 42.8649 1.48995 0.513639 0
M  V30 470 C 44.0949 1.61297 1.291 0
M  V30 471 C 44.5029 0.278656 1.87137 0
M  V30 472 O 43.8459 -0.744325 1.67945 0
M  V30 473 C 43.9079 2.61326 2.46879 0
M  V30 474 C 43.5719 4.05993 2.09807 0
M  V30 475 C 44.5689 4.93183 1.64519 0
M  V30 476 C 42.2539 4.51642 2.19829 0
M  V30 477 C 44.2479 6.24056 1.2974 0
M  V30 478 C 41.9349 5.82532 1.84662 0
M  V30 479 C 42.9329 6.68562 1.3969 0
M  V30 480 O 42.6209 7.97014 1.04992 0
M  V30 481 H 42.3529 0.546236 0.39825 0
M  V30 482 H 44.9069 1.95673 0.62459 0
M  V30 483 H 43.1369 2.22104 3.16554 0
M  V30 484 H 44.8259 2.6329 3.08923 0
M  V30 485 H 45.5919 4.59147 1.56233 0
M  V30 486 H 41.4709 3.84855 2.53786 0
M  V30 487 H 45.0149 6.91161 0.945659 0
M  V30 488 H 40.9119 6.16099 1.92594 0
M  V30 489 H 41.6799 8.09913 1.18249 0
M  V30 490 N 44.343 -0.763751 1.37857 0
M  V30 491 C 45.62 -1.51244 1.24035 0
M  V30 492 C 46 -2.10472 -0.162649 0
M  V30 493 O 45.348 -1.96206 -1.17112 0
M  V30 494 C 45.558 -2.58694 2.34261 0
M  V30 495 C 46.906 -3.25878 2.72193 0
M  V30 496 O 47.93 -2.68993 2.33497 0
M  V30 497 O 46.789 -4.2874 3.38887 0
M  V30 498 H 43.883 -0.670243 0.484462 0
M  V30 499 H 46.429 -0.800031 1.49658 0
M  V30 500 H 45.201 -2.13105 3.2818 0
M  V30 501 H 44.824 -3.37527 2.10146 0
M  V30 502 N 45.8211 -1.22559 -0.990812 0
M  V30 503 C 47.0491 -1.07779 -1.76611 0
M  V30 504 C 47.4641 0.371513 -1.85109 0
M  V30 505 O 46.8211 1.25737 -1.32274 0
M  V30 506 C 46.8721 -1.68512 -3.19822 0
M  V30 507 O 46.5931 -3.07774 -3.1178 0
M  V30 508 C 48.0941 -1.59035 -4.13791 0
M  V30 509 H 45.3141 -0.377729 -0.554583 0
M  V30 510 H 47.8581 -1.62195 -1.24551 0
M  V30 511 H 46.0131 -1.18154 -3.68942 0
M  V30 512 H 46.4271 -3.37062 -4.01858 0
M  V30 513 H 47.9011 -2.0625 -5.1202 0
M  V30 514 H 48.3781 -0.547273 -4.35777 0
M  V30 515 H 48.9841 -2.08709 -3.70568 0
M  V30 516 N 47.2992 1.18797 -1.03562 0
M  V30 517 C 48.5482 1.87978 -0.731235 0
M  V30 518 C 48.8612 1.80911 0.743671 0
M  V30 519 O 50.0672 2.45407 1.16137 0
M  V30 520 C 48.5232 3.3721 -1.25768 0
M  V30 521 C 48.1312 3.52818 -2.76085 0
M  V30 522 C 49.8752 4.11825 -1.0296 0
M  V30 523 C 47.7822 4.9598 -3.22114 0
M  V30 524 H 46.7122 0.704063 -0.269835 0
M  V30 525 H 49.3632 1.34266 -1.25079 0
M  V30 526 H 47.7452 3.90359 -0.666011 0
M  V30 527 H 48.9192 3.09965 -3.40966 0
M  V30 528 H 47.2342 2.91602 -2.97249 0
M  V30 529 H 49.8312 5.17411 -1.34869 0
M  V30 530 H 50.1742 4.16287 0.0333546 0
M  V30 531 H 50.7072 3.64833 -1.58562 0
M  V30 532 H 47.4462 4.96684 -4.27768 0
M  V30 533 H 46.9662 5.39569 -2.61965 0
M  V30 534 H 48.6452 5.6467 -3.15844 0
M  V30 535 N 48.7773 0.814389 1.34928 0
M  V30 536 C 49.7103 0.175641 2.27523 0
M  V30 537 C 50.6883 -0.662953 1.48471 0
M  V30 538 O 51.8723 -0.628545 1.77712 0
M  V30 539 C 48.9993 -0.755516 3.30166 0
M  V30 540 C 48.0453 0.00445305 4.265 0
M  V30 541 S 48.8783 1.34582 5.18313 0
M  V30 542 C 50.0343 0.419315 6.24494 0
M  V30 543 H 50.2673 0.960691 2.8135 0
M  V30 544 H 47.8003 0.609846 1.41846 0
M  V30 545 H 49.7583 -1.28723 3.89796 0
M  V30 546 H 48.4193 -1.51402 2.75202 0
M  V30 547 H 47.6123 -0.703077 4.99072 0
M  V30 548 H 47.2143 0.466447 3.7108 0
M  V30 549 H 49.5063 -0.392432 6.76362 0
M  V30 550 H 50.4493 1.11446 6.99275 0
M  V30 551 H 50.8573 0.0115389 5.64499 0
M  V30 552 N 50.2554 -1.46986 0.568584 0
M  V30 553 C 51.5044 -2.01646 0.0465894 0
M  V30 554 C 51.8174 -1.44721 -1.31587 0
M  V30 555 O 53.0234 -1.91113 -1.92842 0
M  V30 556 C 51.4794 -3.59885 0.032752 0
M  V30 557 C 51.0874 -4.25804 1.39266 0
M  V30 558 C 52.8314 -4.22255 -0.436038 0
M  V30 559 C 50.7384 -5.76081 1.33732 0
M  V30 560 H 49.6684 -0.753876 0.013647 0
M  V30 561 H 52.3194 -1.68864 0.718131 0
M  V30 562 H 50.7014 -3.8968 -0.704669 0
M  V30 563 H 51.8754 -4.07637 2.1487 0
M  V30 564 H 50.1904 -3.7547 1.80032 0
M  V30 565 H 52.7874 -5.32394 -0.49602 0
M  V30 566 H 53.1304 -3.90212 -1.45053 0
M  V30 567 H 53.6634 -3.97033 0.246877 0
M  V30 568 H 50.4024 -6.12761 2.32817 0
M  V30 569 H 49.9224 -5.96553 0.623267 0
M  V30 570 H 51.6014 -6.38518 1.0442 0
M  V30 571 N 51.7335 -0.305618 -1.54608 0
M  V30 572 C 53.1445 0.186098 -1.8577 0
M  V30 573 C 53.4955 1.53058 -1.22751 0
M  V30 574 O 52.6205 2.09888 -0.526893 0
M  V30 575 C 53.2155 0.344449 -3.37044 0
M  V30 576 C 51.7745 0.780384 -3.68221 0
M  V30 577 C 50.9215 -0.108554 -2.77087 0
M  V30 578 H 53.8725 -0.526485 -1.49712 0
M  V30 579 H 53.8935 1.17828 -3.61796 0
M  V30 580 H 53.4055 -0.634235 -3.82883 0
M  V30 581 H 51.5065 1.76945 -3.27904 0
M  V30 582 H 51.6195 0.596572 -4.75371 0
M  V30 583 H 49.9835 0.412931 -2.5133 0
M  V30 584 H 50.7665 -1.08368 -3.25747 0
M  V30 585 N 53.2116 1.57565 -0.0334293 0
M  V30 586 C 54.4396 1.9628 0.654347 0
M  V30 587 C 54.8546 0.910138 1.65414 0
M  V30 588 O 54.2116 -0.107595 1.82183 0
M  V30 589 C 54.2626 3.35067 1.35693 0
M  V30 590 O 53.9836 4.36296 0.397191 0
M  V30 591 C 55.4846 3.88439 2.13613 0
M  V30 592 H 52.7046 0.646369 0.180132 0
M  V30 593 H 55.2486 2.04282 -0.0944721 0
M  V30 594 H 53.4036 3.2827 2.05712 0
M  V30 595 H 53.8176 5.1678 0.896597 0
M  V30 596 H 55.2916 4.8788 2.58219 0
M  V30 597 H 55.7686 3.22914 2.97696 0
M  V30 598 H 56.3746 3.98516 1.48543 0
M  V30 599 N 54.6897 -0.239769 1.55765 0
M  V30 600 C 56.1007 -0.808263 1.68297 0
M  V30 601 C 56.4517 -1.85736 0.632181 0
M  V30 602 O 55.5767 -2.15277 -0.220204 0
M  V30 603 C 56.1717 -1.47284 3.05111 0
M  V30 604 C 54.7307 -1.98895 3.19559 0
M  V30 605 C 53.8777 -0.842575 2.64189 0
M  V30 606 H 56.8287 -0.0154422 1.58692 0
M  V30 607 H 56.8497 -2.34111 2.99954 0
M  V30 608 H 56.3617 -0.709053 3.81568 0
M  V30 609 H 54.4627 -2.78132 2.47938 0
M  V30 610 H 54.5757 -2.18143 4.26556 0
M  V30 611 H 52.9397 -1.24501 2.22197 0
M  V30 612 H 53.7227 -0.0917552 3.43177 0
M  V30 613 N 56.1678 -1.49265 -0.50573 0
M  V30 614 C 57.5838 -1.35923 -0.836486 0
M  V30 615 C 57.7838 -0.388704 -1.97715 0
M  V30 616 O 56.8398 0.181336 -2.51848 0
M  V30 617 C 58.1528 -2.76531 -1.18115 0
M  V30 618 C 59.7008 -2.85197 -1.28964 0
M  V30 619 C 60.1758 -4.26561 -1.66761 0
M  V30 620 N 61.6668 -4.2935 -1.73819 0
M  V30 621 C 62.4018 -5.35693 -2.045 0
M  V30 622 N 61.8978 -6.52287 -2.33438 0
M  V30 623 N 63.6908 -5.23105 -2.05711 0
M  V30 624 H 55.8418 -2.10965 0.246519 0
M  V30 625 H 58.1048 -0.9468 0.0476887 0
M  V30 626 H 57.8108 -3.49226 -0.416398 0
M  V30 627 H 57.6848 -3.11599 -2.1257 0
M  V30 628 H 60.0718 -2.12742 -2.04511 0
M  V30 629 H 60.1528 -2.53718 -0.325704 0
M  V30 630 H 59.7968 -4.99541 -0.917656 0
M  V30 631 H 59.7268 -4.55502 -2.64246 0
M  V30 632 H 62.2178 -3.4526 -1.53635 0
M  V30 633 H 62.5308 -7.29158 -2.56024 0
M  V30 634 H 60.8758 -6.55521 -2.30905 0
M  V30 635 H 64.0668 -4.31026 -1.82577 0
M  V30 636 H 64.2398 -6.06078 -2.29289 0
M  V30 637 N 57.6459 0.756429 -1.3826 0
M  V30 638 C 58.5939 1.89149 -1.35372 0
M  V30 639 C 59.5879 1.67691 -0.24004 0
M  V30 640 O 60.7939 1.75294 -0.408919 0
M  V30 641 H 57.1689 0.622271 -0.422236 0
M  V30 642 H 59.1399 1.88701 -2.31159 0
M  V30 643 C 57.8889 3.26599 -1.19284 0
M  V30 644 H 57.2119 3.43695 -2.0424 0
M  V30 645 H 58.6519 4.06274 -1.21316 0
M  V30 646 C 57.1109 3.3675 0.100454 0
M  V30 647 O 57.6409 3.86951 1.07851 0
M  V30 648 N 55.8469 2.90179 0.15633 0
M  V30 649 H 55.3939 2.49517 -0.640253 0
M  V30 650 H 55.3519 2.97352 1.02123 0
M  V30 651 N 59.124 1.23083 0.984299 0
M  V30 652 C 60.054 1.03292 2.09411 0
M  V30 653 C 61.035 -0.048923 1.7003 0
M  V30 654 O 62.22 0.114967 1.93859 0
M  V30 655 C 59.35 0.619155 3.41736 0
M  V30 656 C 58.304 1.64791 3.95004 0
M  V30 657 C 57.63 1.0897 5.23478 0
M  V30 658 C 58.93 3.03999 4.24714 0
M  V30 659 H 60.624 1.96119 2.26225 0
M  V30 660 H 58.17 0.944344 1.08711 0
M  V30 661 H 60.123 0.467777 4.18796 0
M  V30 662 H 58.847 -0.344786 3.24775 0
M  V30 663 H 57.506 1.78721 3.20085 0
M  V30 664 H 57.154 0.11686 5.02864 0
M  V30 665 H 56.854 1.77704 5.60085 0
M  V30 666 H 58.378 0.950093 6.03163 0
M  V30 667 H 59.792 2.93393 4.92538 0
M  V30 668 H 58.189 3.69936 4.72512 0
M  V30 669 H 59.259 3.53285 3.32142 0
M  V30 670 N 60.6021 -1.18246 1.0419 0
M  V30 671 C 61.5501 -2.23968 0.627792 0
M  V30 672 C 62.5441 -1.65828 -0.346019 0
M  V30 673 O 63.7501 -1.78733 -0.213175 0
M  V30 674 H 60.1251 -0.728939 0.184802 0
M  V30 675 H 62.0961 -2.56202 1.52981 0
M  V30 676 C 60.8451 -3.47699 0.00796591 0
M  V30 677 H 60.1681 -3.92734 0.748347 0
M  V30 678 H 61.6081 -4.23294 -0.24455 0
M  V30 679 C 60.0671 -3.13153 -1.24246 0
M  V30 680 O 60.5971 -3.27003 -2.33307 0
M  V30 681 N 58.8031 -2.67467 -1.13622 0
M  V30 682 H 58.3501 -2.56396 -0.248734 0
M  V30 683 H 58.3081 -2.44724 -1.97377 0
M  V30 684 N 62.0802 -0.821533 -1.34494 0
M  V30 685 C 63.3262 -0.418729 -1.99043 0
M  V30 686 C 63.6812 1.00672 -1.6396 0
M  V30 687 O 62.9742 1.69132 -0.900271 0
M  V30 688 C 63.1682 -0.556512 -3.53041 0
M  V30 689 C 62.9972 -1.9938 -4.03085 0
M  V30 690 C 61.7672 -2.62539 -4.31742 0
M  V30 691 C 63.9652 -2.96035 -4.20556 0
M  V30 692 N 61.9472 -3.97523 -4.67813 0
M  V30 693 C 63.3182 -4.15924 -4.59791 0
M  V30 694 C 65.3732 -2.9267 -4.02801 0
M  V30 695 C 64.0762 -5.32899 -4.83126 0
M  V30 696 C 66.1022 -4.08861 -4.27302 0
M  V30 697 C 65.4642 -5.275 -4.66822 0
M  V30 698 H 61.5632 -0.201299 -0.755647 0
M  V30 699 H 64.1472 -1.06594 -1.62929 0
M  V30 700 H 62.3182 0.0607924 -3.88352 0
M  V30 701 H 64.0502 -0.126842 -4.04501 0
M  V30 702 H 60.8052 -2.13789 -4.22601 0
M  V30 703 H 61.2292 -4.67061 -4.90085 0
M  V30 704 H 65.8712 -2.02088 -3.71376 0
M  V30 705 H 63.5892 -6.24041 -5.13418 0
M  V30 706 H 67.1752 -4.07654 -4.15101 0
M  V30 707 H 66.0552 -6.15913 -4.85408 0
M  V30 708 N 63.5583 1.46682 -0.576371 0
M  V30 709 C 64.4913 2.27243 0.208731 0
M  V30 710 C 65.4693 1.35238 0.902746 0
M  V30 711 O 66.6533 1.64641 0.917904 0
M  V30 712 C 63.7803 3.12802 1.29896 0
M  V30 713 C 62.8263 4.20524 0.711457 0
M  V30 714 S 63.6593 5.33548 -0.456781 0
M  V30 715 C 64.8153 6.22673 0.634798 0
M  V30 716 H 65.0483 2.93484 -0.474838 0
M  V30 717 H 62.5813 1.50069 -0.363118 0
M  V30 718 H 64.5393 3.62661 1.92321 0
M  V30 719 H 63.2003 2.45887 1.95444 0
M  V30 720 H 62.3933 4.80191 1.53076 0
M  V30 721 H 61.9953 3.73645 0.162999 0
M  V30 722 H 64.2873 6.60181 1.52209 0
M  V30 723 H 65.2303 7.0806 0.0750311 0
M  V30 724 H 65.6383 5.56684 0.936092 0
M  V30 725 N 65.0364 0.313813 1.54444 0
M  V30 726 C 66.2824 -0.284918 2.01395 0
M  V30 727 C 66.6374 -1.50537 1.19818 0
M  V30 728 O 65.9304 -1.89692 0.269748 0
M  V30 729 C 66.1244 -0.680386 3.50864 0
M  V30 730 C 65.9534 0.500198 4.4691 0
M  V30 731 C 64.7234 0.996248 4.95382 0
M  V30 732 C 66.9214 1.34928 4.96285 0
M  V30 733 N 64.9034 2.14226 5.75309 0
M  V30 734 C 66.2744 2.3426 5.7404 0
M  V30 735 C 68.3294 1.37818 4.78446 0
M  V30 736 C 67.0324 3.36272 6.35856 0
M  V30 737 C 69.0584 2.38695 5.4109 0
M  V30 738 C 68.4204 3.36755 6.18688 0
M  V30 739 H 64.5194 -0.0683689 0.779006 0
M  V30 740 H 67.1034 0.44664 1.89508 0
M  V30 741 H 65.2744 -1.38109 3.63016 0
M  V30 742 H 67.0064 -1.25975 3.84594 0
M  V30 743 H 63.7614 0.56912 4.70168 0
M  V30 744 H 64.1854 2.72005 6.19953 0
M  V30 745 H 68.8274 0.633747 4.18023 0
M  V30 746 H 66.5454 4.11627 6.95405 0
M  V30 747 H 70.1314 2.41721 5.29209 0
M  V30 748 H 69.0114 4.13535 6.66302 0
M  V30 749 N 66.5145 -1.57545 0.0417849 0
M  V30 750 C 67.7635 -1.91494 -0.633492 0
M  V30 751 C 68.0765 -0.921084 -1.72556 0
M  V30 752 O 69.2825 -1.15228 -2.45835 0
M  V30 753 C 67.7385 -3.40072 -1.17808 0
M  V30 754 C 67.3465 -4.47843 -0.118633 0
M  V30 755 C 69.0905 -3.8307 -1.82915 0
M  V30 756 C 66.9975 -5.87529 -0.675578 0
M  V30 757 H 65.9275 -0.714653 -0.24039 0
M  V30 758 H 68.5785 -1.83175 0.109148 0
M  V30 759 H 66.9605 -3.43364 -1.97274 0
M  V30 760 H 68.1345 -4.56128 0.654494 0
M  V30 761 H 66.4495 -4.14128 0.434414 0
M  V30 762 H 69.0465 -4.84794 -2.25563 0
M  V30 763 H 69.3895 -3.1881 -2.67705 0
M  V30 764 H 69.9225 -3.82255 -1.10119 0
M  V30 765 H 66.6615 -6.55362 0.134475 0
M  V30 766 H 66.1815 -5.82824 -1.4169 0
M  V30 767 H 67.8605 -6.36491 -1.1614 0
M  V30 768 N 67.9926 0.231505 -1.5589 0
M  V30 769 C 69.2386 0.954429 -1.79617 0
M  V30 770 C 69.5936 1.82367 -0.613199 0
M  V30 771 O 68.8866 1.87524 0.393094 0
M  V30 772 C 69.0806 1.83577 -3.0665 0
M  V30 773 C 68.9096 1.05334 -4.3719 0
M  V30 774 C 67.6796 0.75225 -4.99669 0
M  V30 775 C 69.8776 0.423444 -5.12554 0
M  V30 776 N 67.8596 -0.052627 -6.13877 0
M  V30 777 C 69.2306 -0.245287 -6.19515 0
M  V30 778 C 71.2856 0.335466 -4.96769 0
M  V30 779 C 69.9886 -0.993566 -7.12405 0
M  V30 780 C 72.0146 -0.399321 -5.9005 0
M  V30 781 C 71.3766 -1.05663 -6.9643 0
M  V30 782 H 67.4756 0.329846 -0.709031 0
M  V30 783 H 70.0596 0.226172 -1.93382 0
M  V30 784 H 68.2306 2.53592 -2.94186 0
M  V30 785 H 69.9626 2.49541 -3.18608 0
M  V30 786 H 66.7176 1.06783 -4.61405 0
M  V30 787 H 67.1416 -0.443609 -6.75545 0
M  V30 788 H 71.7836 0.829311 -4.14587 0
M  V30 789 H 69.5016 -1.49896 -7.94076 0
M  V30 790 H 73.0876 -0.468265 -5.79913 0
M  V30 791 H 71.9676 -1.61612 -7.67366 0
M  V30 792 N 69.4707 1.49531 0.497807 0
M  V30 793 C 70.7187 1.58865 1.24926 0
M  V30 794 C 71.0397 0.278721 1.92998 0
M  V30 795 O 70.3097 -0.702144 1.82885 0
M  V30 796 H 68.8897 0.585343 0.464094 0
M  V30 797 H 71.5517 1.86174 0.57666 0
M  V30 798 H 70.6477 2.38633 2.01149 0
M  V30 799 N 70.9488 -0.749086 1.3866 0
M  V30 800 C 72.1948 -1.51056 1.35314 0
M  V30 801 C 72.5278 -1.94121 -0.0553751 0
M  V30 802 O 71.8028 -1.65763 -1.01749 0
M  V30 803 C 72.0858 -2.76003 2.31288 0
M  V30 804 C 71.9388 -2.39047 3.8102 0
M  V30 805 C 73.2578 -3.78046 2.2532 0
M  V30 806 H 70.3768 -0.547972 0.492844 0
M  V30 807 H 73.0188 -0.857628 1.69543 0
M  V30 808 H 71.1688 -3.31716 2.02229 0
M  V30 809 H 72.8408 -1.89074 4.20771 0
M  V30 810 H 71.0838 -1.71449 3.98482 0
M  V30 811 H 71.7548 -3.28462 4.4364 0
M  V30 812 H 74.2308 -3.31884 2.50983 0
M  V30 813 H 73.1068 -4.63159 2.94576 0
M  V30 814 H 73.3678 -4.23957 1.25352 0
M  V30 815 N 72.4269 -1.23603 -0.977757 0
M  V30 816 C 73.6729 -1.07129 -1.72195 0
M  V30 817 C 74.0059 0.390501 -1.90233 0
M  V30 818 O 73.2809 1.28902 -1.45653 0
M  V30 819 C 73.5639 -1.80031 -3.11867 0
M  V30 820 C 73.4169 -3.33899 -3.01383 0
M  V30 821 C 74.7359 -1.56492 -4.11337 0
M  V30 822 H 71.8549 -0.390571 -0.624999 0
M  V30 823 H 74.4969 -1.52142 -1.13811 0
M  V30 824 H 72.6469 -1.41768 -3.6171 0
M  V30 825 H 74.3189 -3.81699 -2.59043 0
M  V30 826 H 72.5619 -3.62796 -2.37827 0
M  V30 827 H 73.2329 -3.801 -4.00285 0
M  V30 828 H 75.7089 -1.89757 -3.70313 0
M  V30 829 H 74.5849 -2.09973 -5.07151 0
M  V30 830 H 74.8459 -0.500874 -4.39254 0
M  V30 831 N 73.905 1.17692 -1.04816 0
M  V30 832 C 74.835 2.23777 -0.666791 0
M  V30 833 C 75.816 1.66796 0.33361 0
M  V30 834 O 77.001 1.93039 0.212042 0
M  V30 835 C 74.131 3.47281 -0.0367933 0
M  V30 836 C 73.085 4.17059 -0.961546 0
M  V30 837 C 72.411 5.34342 -0.195626 0
M  V30 838 C 73.711 4.69713 -2.28402 0
M  V30 839 H 75.405 2.55933 -1.55367 0
M  V30 840 H 72.951 1.23019 -0.748484 0
M  V30 841 H 74.904 4.20706 0.241775 0
M  V30 842 H 73.628 3.14381 0.885004 0
M  V30 843 H 72.287 3.45541 -1.22462 0
M  V30 844 H 71.935 4.97692 0.728816 0
M  V30 845 H 71.635 5.81966 -0.811775 0
M  V30 846 H 73.159 6.10553 0.0757473 0
M  V30 847 H 74.573 5.34794 -2.06563 0
M  V30 848 H 72.97 5.279 -2.8538 0
M  V30 849 H 74.04 3.86726 -2.92525 0
M  V30 850 N 75.3831 0.828654 1.34056 0
M  V30 851 C 76.3461 0.259927 2.27721 0
M  V30 852 C 77.3461 -0.565478 1.50529 0
M  V30 853 O 78.5361 -0.38075 1.69988 0
M  V30 854 C 75.6681 -0.634944 3.34935 0
M  V30 855 H 76.8611 1.0863 2.79534 0
M  V30 856 H 74.4141 0.600951 1.44285 0
M  V30 857 H 75.1491 -1.48416 2.88346 0
M  V30 858 H 74.9341 -0.0444999 3.92075 0
M  V30 859 H 76.4241 -1.02648 4.04788 0
M  V30 860 N 76.8612 -1.46375 0.584142 0
M  V30 861 C 78.1082 -2.02378 0.0702675 0
M  V30 862 C 78.4362 -1.45545 -1.29023 0
M  V30 863 O 77.6912 -0.610967 -1.85918 0
M  V30 864 C 77.9902 -3.57373 -0.0439342 0
M  V30 865 C 77.6562 -4.33252 1.24915 0
M  V30 866 C 76.3182 -4.53701 1.60341 0
M  V30 867 C 78.6702 -4.7681 2.1048 0
M  V30 868 C 75.9982 -5.1496 2.81128 0
M  V30 869 C 78.3502 -5.39404 3.30494 0
M  V30 870 C 77.0142 -5.5808 3.66201 0
M  V30 871 H 76.2842 -0.740554 0.0257127 0
M  V30 872 H 78.9312 -1.75727 0.761065 0
M  V30 873 H 77.2362 -3.83169 -0.817869 0
M  V30 874 H 78.9332 -3.98384 -0.457318 0
M  V30 875 H 75.5232 -4.17633 0.963364 0
M  V30 876 H 79.7072 -4.60766 1.84414 0
M  V30 877 H 74.9632 -5.27611 3.08928 0
M  V30 878 H 79.1372 -5.72114 3.97063 0
M  V30 879 H 76.7642 -6.05318 4.59885 0
M  V30 880 N 78.3393 -0.321999 -1.54275 0
M  V30 881 C 79.5793 0.281657 -2.0245 0
M  V30 882 C 79.9433 1.49468 -1.20513 0
M  V30 883 O 81.1443 2.17109 -1.58484 0
M  V30 884 C 79.4153 0.609014 -3.52173 0
M  V30 885 S 80.9743 1.19255 -4.22284 0
M  V30 886 H 77.7923 0.0852825 -0.705867 0
M  V30 887 H 80.3943 -0.454758 -1.90137 0
M  V30 888 H 79.0983 -0.281982 -4.0943 0
M  V30 889 H 78.6293 1.37567 -3.68563 0
M  V30 890 H 80.6443 2.47944 -4.29812 0
M  V30 891 N 79.8174 1.5752 -0.0501392 0
M  V30 892 C 80.7474 2.14502 0.922566 0
M  V30 893 C 81.7284 1.06642 1.3252 0
M  V30 894 O 82.9134 1.34577 1.4001 0
M  V30 895 C 80.0434 2.68916 2.19776 0
M  V30 896 C 78.9974 3.8175 1.93523 0
M  V30 897 C 78.3234 4.22677 3.27487 0
M  V30 898 C 79.6234 5.06932 1.25765 0
M  V30 899 H 81.3174 2.9603 0.447952 0
M  V30 900 H 78.8634 1.42401 0.214024 0
M  V30 901 H 80.8164 3.07419 2.88222 0
M  V30 902 H 79.5404 1.84578 2.69441 0
M  V30 903 H 78.1994 3.43718 1.27489 0
M  V30 904 H 77.8474 3.35291 3.74952 0
M  V30 905 H 77.5474 4.98725 3.1072 0
M  V30 906 H 79.0714 4.63779 3.97166 0
M  V30 907 H 80.4854 5.42888 1.84244 0
M  V30 908 H 78.8824 5.88116 1.19328 0
M  V30 909 H 79.9524 4.84337 0.233536 0
M  V30 910 N 81.2955 -0.223234 1.56011 0
M  V30 911 C 82.5415 -0.949279 1.79211 0
M  V30 912 C 82.8745 -1.84054 0.619494 0
M  V30 913 O 82.1495 -1.90726 -0.381317 0
M  V30 914 C 82.4325 -1.78965 3.12479 0
M  V30 915 C 82.2855 -0.924997 4.40186 0
M  V30 916 C 83.6045 -2.76774 3.42175 0
M  V30 917 H 80.7235 -0.343676 0.651963 0
M  V30 918 H 83.3655 -0.218253 1.88742 0
M  V30 919 H 81.5155 -2.41291 3.04485 0
M  V30 920 H 83.1875 -0.318615 4.60198 0
M  V30 921 H 81.4305 -0.230344 4.33188 0
M  V30 922 H 82.1015 -1.54735 5.29869 0
M  V30 923 H 84.5775 -2.24584 3.50287 0
M  V30 924 H 83.4535 -3.32678 4.36597 0
M  V30 925 H 83.7145 -3.54429 2.64258 0
M  V30 926 N 82.7736 -1.49793 -0.48987 0
M  V30 927 C 83.7036 -1.70201 -1.59856 0
M  V30 928 C 84.6846 -0.55076 -1.60937 0
M  V30 929 O 85.8696 -0.787841 -1.77501 0
M  V30 930 C 82.9996 -1.77882 -2.98287 0
M  V30 931 C 81.9536 -2.92907 -3.12073 0
M  V30 932 C 81.2796 -2.85712 -4.51965 0
M  V30 933 C 82.5796 -4.3369 -2.91051 0
M  V30 934 H 84.2736 -2.63025 -1.43032 0
M  V30 935 H 81.8196 -1.26574 -0.686664 0
M  V30 936 H 83.7726 -1.90744 -3.75759 0
M  V30 937 H 82.4966 -0.816653 -3.16225 0
M  V30 938 H 81.1556 -2.79665 -2.37029 0
M  V30 939 H 80.8036 -1.8738 -4.66795 0
M  V30 940 H 80.5036 -3.62921 -4.62128 0
M  V30 941 H 82.0276 -3.00598 -5.31482 0
M  V30 942 H 83.4416 -4.47555 -3.58284 0
M  V30 943 H 81.8386 -5.12205 -3.12675 0
M  V30 944 H 82.9086 -4.47362 -1.87071 0
M  V30 945 N 84.2517 0.741722 -1.39055 0
M  V30 946 C 85.1837 1.8657 -1.33133 0
M  V30 947 C 86.1967 1.61001 -0.241329 0
M  V30 948 O 87.3857 1.7136 -0.499784 0
M  V30 949 C 84.4857 3.22457 -1.04283 0
M  V30 950 C 83.6587 3.75435 -2.24427 0
M  V30 951 C 82.7177 4.89867 -1.92138 0
M  V30 952 O 81.7437 5.03879 -2.64754 0
M  V30 953 N 82.9457 5.73738 -0.88347 0
M  V30 954 H 85.7107 1.92156 -2.29991 0
M  V30 955 H 83.2717 0.922172 -1.3307 0
M  V30 956 H 85.2637 3.9657 -0.807128 0
M  V30 957 H 83.8337 3.12181 -0.161807 0
M  V30 958 H 83.0537 2.92751 -2.6399 0
M  V30 959 H 84.3417 4.07563 -3.04581 0
M  V30 960 H 83.7397 5.64999 -0.281517 0
M  V30 961 H 82.2967 6.47947 -0.707662 0
M  V30 962 N 85.7298 1.2412 0.971189 0
M  V30 963 C 86.9788 1.07284 1.70801 0
M  V30 964 C 87.2918 -0.388902 1.91695 0
M  V30 965 O 88.4978 -0.677379 2.62914 0
M  V30 966 C 86.9538 1.87145 3.07416 0
M  V30 967 C 86.5618 3.37707 2.94377 0
M  V30 968 C 88.3058 1.78828 3.84995 0
M  V30 969 C 86.2128 4.09925 4.26281 0
M  V30 970 H 85.1428 0.397854 0.64049 0
M  V30 971 H 87.7938 1.4817 1.0825 0
M  V30 972 H 86.1758 1.39071 3.70777 0
M  V30 973 H 87.3498 3.93335 2.4005 0
M  V30 974 H 85.6648 3.46938 2.30267 0
M  V30 975 H 88.2618 2.30089 4.82662 0
M  V30 976 H 88.6048 0.75284 4.09436 0
M  V30 977 H 89.1378 2.24563 3.28354 0
M  V30 978 H 85.8768 5.13813 4.07033 0
M  V30 979 H 85.3968 3.59083 4.80437 0
M  V30 980 H 87.0758 4.1673 4.94919 0
M  V30 981 N 87.2079 -1.17134 1.05439 0
M  V30 982 C 88.4539 -1.87733 0.767077 0
M  V30 983 C 88.7869 -1.8098 -0.704253 0
M  V30 984 O 88.0619 -1.21951 -1.5152 0
M  V30 985 C 88.3449 -3.37659 1.25133 0
M  V30 986 C 88.1979 -3.53149 2.78578 0
M  V30 987 C 89.5169 -4.31768 0.852324 0
M  V30 988 H 86.6359 -0.681687 0.280129 0
M  V30 989 H 89.2779 -1.37732 1.30881 0
M  V30 990 H 87.4279 -3.80373 0.790469 0
M  V30 991 H 89.0999 -3.19434 3.32806 0
M  V30 992 H 87.3429 -2.95345 3.17732 0
M  V30 993 H 88.0139 -4.58403 3.07523 0
M  V30 994 H 90.4899 -3.96909 1.24911 0
M  V30 995 H 89.3659 -5.35199 1.21873 0
M  V30 996 H 89.6269 -4.41429 -0.243485 0
M  V30 997 N 88.686 -0.835752 -1.33615 0
M  V30 998 C 89.914 -0.443344 -2.02094 0
M  V30 999 C 90.329 0.954522 -1.62894 0
M  V30 1000 O 89.686 1.61982 -0.840723 0
M  V30 1001 C 89.737 -0.550775 -3.5728 0
M  V30 1002 O 89.458 -1.89356 -3.95065 0
M  V30 1003 C 90.959 -0.154919 -4.43029 0
M  V30 1004 H 88.179 -0.176359 -0.647409 0
M  V30 1005 H 90.723 -1.12746 -1.70612 0
M  V30 1006 H 88.878 0.0853997 -3.87306 0
M  V30 1007 H 89.292 -1.87687 -4.89769 0
M  V30 1008 H 90.766 -0.281144 -5.51284 0
M  V30 1009 H 91.243 0.902863 -4.2982 0
M  V30 1010 H 91.849 -0.765404 -4.18356 0
M  V30 1011 N 90.1641 1.46063 -0.591896 0
M  V30 1012 C 91.4121 2.01938 -0.0808391 0
M  V30 1013 C 91.7331 1.46475 1.28725 0
M  V30 1014 O 91.0031 0.652944 1.84698 0
M  V30 1015 H 89.5831 0.746516 -0.0268938 0
M  V30 1016 H 92.2451 1.79055 -0.769752 0
M  V30 1017 H 91.3411 3.12094 -0.0187578 0
M  V30 1018 N 91.6422 0.330177 1.54103 0
M  V30 1019 C 92.8912 -0.271336 1.99867 0
M  V30 1020 C 93.2042 -1.52723 1.22209 0
M  V30 1021 O 94.4102 -2.20515 1.58383 0
M  V30 1022 C 92.8662 -0.534032 3.55916 0
M  V30 1023 C 92.4742 0.705193 4.42415 0
M  V30 1024 C 94.2182 -1.09514 4.1013 0
M  V30 1025 C 92.1252 0.414035 5.89949 0
M  V30 1026 H 91.0552 -0.105166 0.74663 0
M  V30 1027 H 93.7062 0.443429 1.78062 0
M  V30 1028 H 92.0882 -1.30915 3.73734 0
M  V30 1029 H 93.2622 1.4804 4.36372 0
M  V30 1030 H 91.5772 1.18698 3.99124 0
M  V30 1031 H 94.1742 -1.3277 5.17954 0
M  V30 1032 H 94.5172 -2.04656 3.62521 0
M  V30 1033 H 95.0502 -0.381038 3.95971 0
M  V30 1034 H 91.7892 1.33481 6.41766 0
M  V30 1035 H 91.3092 -0.323336 5.98928 0
M  V30 1036 H 92.9882 0.0263105 6.46995 0
M  V30 1037 N 93.1203 -1.57491 0.0584922 0
M  V30 1038 C 94.3663 -1.93264 -0.614558 0
M  V30 1039 C 94.6993 -0.937717 -1.7006 0
M  V30 1040 O 93.9743 0.0351652 -1.94468 0
M  V30 1041 C 94.2573 -3.3938 -1.20386 0
M  V30 1042 C 94.1103 -4.49625 -0.125375 0
M  V30 1043 C 95.4293 -3.86039 -2.11334 0
M  V30 1044 H 92.5483 -0.702791 -0.221933 0
M  V30 1045 H 95.1903 -1.8961 0.12175 0
M  V30 1046 H 93.3403 -3.42626 -1.83139 0
M  V30 1047 H 95.0123 -4.58506 0.506971 0
M  V30 1048 H 93.2553 -4.30354 0.545672 0
M  V30 1049 H 93.9263 -5.48967 -0.577861 0
M  V30 1050 H 96.4023 -3.84716 -1.58534 0
M  V30 1051 H 95.2783 -4.88914 -2.49507 0
M  V30 1052 H 95.5393 -3.23215 -3.01636 0
M  V30 1053 N 94.5984 0.214957 -1.56127 0
M  V30 1054 C 95.5284 1.2695 -1.95974 0
M  V30 1055 C 96.5094 1.48539 -0.828868 0
M  V30 1056 O 97.6944 1.60611 -1.09168 0
M  V30 1057 C 94.8244 2.61794 -2.28214 0
M  V30 1058 C 93.7784 2.54851 -3.43853 0
M  V30 1059 C 93.1044 3.93785 -3.61715 0
M  V30 1060 C 94.4044 2.09065 -4.78632 0
M  V30 1061 H 96.0984 0.93846 -2.84312 0
M  V30 1062 H 93.6444 0.449996 -1.36788 0
M  V30 1063 H 95.5974 3.35731 -2.54682 0
M  V30 1064 H 94.3214 2.96599 -1.36736 0
M  V30 1065 H 92.9804 1.8337 -3.17444 0
M  V30 1066 H 92.6284 4.25908 -2.67602 0
M  V30 1067 H 92.3284 3.90019 -4.39498 0
M  V30 1068 H 93.8524 4.69374 -3.90539 0
M  V30 1069 H 95.2664 2.7275 -5.04262 0
M  V30 1070 H 93.6634 2.16346 -5.59745 0
M  V30 1071 H 94.7334 1.04315 -4.73547 0
M  V30 1072 N 96.0765 1.50051 0.48192 0
M  V30 1073 C 97.0395 1.67584 1.5636 0
M  V30 1074 C 98.0395 0.546894 1.51214 0
M  V30 1075 O 99.2295 0.813725 1.54026 0
M  V30 1076 C 96.3615 1.691 2.96003 0
M  V30 1077 H 97.5545 2.64078 1.42136 0
M  V30 1078 H 95.1075 1.39369 0.707533 0
M  V30 1079 H 95.8425 0.742589 3.15684 0
M  V30 1080 H 95.6275 2.51105 3.01146 0
M  V30 1081 H 97.1175 1.84656 3.74556 0
M  V30 1082 N 97.5546 -0.734337 1.39446 0
M  V30 1083 C 98.4876 -1.85715 1.32609 0
M  V30 1084 C 99.4656 -1.6137 0.199636 0
M  V30 1085 O 100.65 -1.84626 0.380195 0
M  V30 1086 C 97.7766 -3.21709 1.05929 0
M  V30 1087 C 96.8226 -3.64913 2.20773 0
M  V30 1088 S 97.6556 -3.74203 3.83056 0
M  V30 1089 C 98.8116 -5.12986 3.58603 0
M  V30 1090 H 99.0446 -1.91232 2.27635 0
M  V30 1091 H 96.5776 -0.899263 1.25509 0
M  V30 1092 H 98.5356 -4.00236 0.912203 0
M  V30 1093 H 97.1966 -3.13848 0.125883 0
M  V30 1094 H 96.3896 -4.63606 1.97699 0
M  V30 1095 H 95.9916 -2.93593 2.31688 0
M  V30 1096 H 98.2836 -5.99339 3.15909 0
M  V30 1097 H 99.2266 -5.41088 4.5676 0
M  V30 1098 H 99.6346 -4.82694 2.9269 0
M  V30 1099 N 99.0327 -1.24633 -0.964593 0
M  V30 1100 C 99.9827 -1.00841 -2.04487 0
M  V30 1101 C 100.967 0.0512468 -1.60818 0
M  V30 1102 O 102.159 -0.162865 -1.76249 0
M  V30 1103 C 99.2877 -0.618474 -3.37683 0
M  V30 1104 C 98.3737 -1.71437 -3.87905 0
M  V30 1105 N 98.7647 -2.9477 -4.11029 0
M  V30 1106 C 97.0627 -1.5926 -4.16596 0
M  V30 1107 C 97.7637 -3.65834 -4.52261 0
M  V30 1108 N 96.7397 -2.9341 -4.57615 0
M  V30 1109 H 100.542 -1.94487 -2.20345 0
M  V30 1110 H 98.0557 -1.14805 -1.14863 0
M  V30 1111 H 100.053 -0.429247 -4.14684 0
M  V30 1112 H 98.7127 0.310766 -3.23209 0
M  V30 1113 H 99.7237 -3.30917 -3.9839 0
M  V30 1114 H 96.4007 -0.731606 -4.1104 0
M  V30 1115 H 97.7907 -4.71646 -4.78539 0
M  V30 1116 N 100.511 1.16574 -1.06058 0
M  V30 1117 C 101.741 1.90675 -0.795397 0
M  V30 1118 C 102.149 1.77547 0.653735 0
M  V30 1119 O 101.492 1.11611 1.45907 0
M  V30 1120 C 101.554 3.42011 -1.10764 0
M  V30 1121 C 101.218 3.78924 -2.55471 0
M  V30 1122 C 102.215 3.81042 -3.53699 0
M  V30 1123 C 99.8998 4.09626 -2.90708 0
M  V30 1124 C 101.894 4.13346 -4.85205 0
M  V30 1125 C 99.5808 4.41597 -4.22416 0
M  V30 1126 C 100.579 4.43436 -5.19474 0
M  V30 1127 O 100.267 4.74649 -6.48817 0
M  V30 1128 H 99.9988 0.611554 -0.288058 0
M  V30 1129 H 102.553 1.48711 -1.41683 0
M  V30 1130 H 100.783 3.84312 -0.429128 0
M  V30 1131 H 102.472 3.97384 -0.827077 0
M  V30 1132 H 103.238 3.57437 -3.27817 0
M  V30 1133 H 99.1168 4.07361 -2.15819 0
M  V30 1134 H 102.661 4.14696 -5.60957 0
M  V30 1135 H 98.5578 4.64667 -4.48056 0
M  V30 1136 H 99.3258 4.9247 -6.5377 0
M  V30 1137 N 101.989 0.842826 1.3317 0
M  V30 1138 C 103.217 0.454055 2.01856 0
M  V30 1139 C 103.632 -0.94587 1.63397 0
M  V30 1140 O 102.989 -1.61534 0.849302 0
M  V30 1141 C 103.04 0.569715 3.56982 0
M  V30 1142 O 102.761 1.91448 3.94055 0
M  V30 1143 C 104.262 0.178412 4.42941 0
M  V30 1144 H 101.482 0.17979 0.646465 0
M  V30 1145 H 104.026 1.1365 1.70012 0
M  V30 1146 H 102.181 -0.0648587 3.87346 0
M  V30 1147 H 102.595 1.90282 4.88767 0
M  V30 1148 H 104.069 0.310376 5.51127 0
M  V30 1149 H 104.546 -0.880056 4.30293 0
M  V30 1150 H 105.152 0.787579 4.17944 0
M  V30 1151 N 103.467 -1.45747 0.599634 0
M  V30 1152 C 104.878 -1.85853 0.177681 0
M  V30 1153 C 105.229 -1.50102 -1.26348 0
M  V30 1154 O 104.354 -0.923905 -1.95686 0
M  V30 1155 C 104.949 -3.37326 0.315688 0
M  V30 1156 C 103.508 -3.76365 -0.0515144 0
M  V30 1157 C 102.655 -2.69722 0.643822 0
M  V30 1158 H 105.606 -1.36661 0.806814 0
M  V30 1159 H 105.627 -3.77778 -0.454321 0
M  V30 1160 H 105.139 -3.63315 1.36468 0
M  V30 1161 H 103.24 -3.55993 -1.09999 0
M  V30 1162 H 103.353 -4.77916 0.336594 0
M  V30 1163 H 101.717 -2.54567 0.0822881 0
M  V30 1164 H 102.5 -2.98549 1.6948 0
M  V30 1165 N 104.945 -0.338344 -1.53925 0
M  V30 1166 C 105.895 0.536712 -2.21593 0
M  V30 1167 C 106.879 1.07015 -1.20153 0
M  V30 1168 O 108.071 1.00471 -1.45721 0
M  V30 1169 C 105.2 1.68977 -2.98834 0
M  V30 1170 C 104.286 1.17052 -4.07627 0
M  V30 1171 N 104.677 0.372085 -5.0443 0
M  V30 1172 C 102.975 1.44789 -4.21844 0
M  V30 1173 C 103.676 0.0909171 -5.81629 0
M  V30 1174 N 102.652 0.681131 -5.39316 0
M  V30 1175 H 106.454 -0.0804298 -2.9379 0
M  V30 1176 H 103.968 -0.144943 -1.61752 0
M  V30 1177 H 105.965 2.32857 -3.45808 0
M  V30 1178 H 104.625 2.31024 -2.28162 0
M  V30 1179 H 105.636 0.0136217 -5.17898 0
M  V30 1180 H 102.313 2.07313 -3.62391 0
M  V30 1181 H 103.703 -0.552817 -6.69622 0
M  V30 1182 N 106.423 1.57458 -0.0668435 0
M  V30 1183 C 107.669 1.93587 0.6043 0
M  V30 1184 C 108.002 0.946722 1.69561 0
M  V30 1185 O 107.277 -0.0248516 1.94484 0
M  V30 1186 C 107.56 3.40014 1.18585 0
M  V30 1187 C 107.413 4.49685 0.101529 0
M  V30 1188 C 108.732 3.87154 2.09284 0
M  V30 1189 H 105.851 0.703958 0.218202 0
M  V30 1190 H 108.493 1.89542 -0.131804 0
M  V30 1191 H 106.643 3.43592 1.81319 0
M  V30 1192 H 108.315 4.5823 -0.531279 0
M  V30 1193 H 106.558 4.30059 -0.568487 0
M  V30 1194 H 107.229 5.49266 0.54874 0
M  V30 1195 H 109.705 3.85551 1.56491 0
M  V30 1196 H 108.581 4.90231 2.46911 0
M  V30 1197 H 108.842 3.2481 2.99918 0
M  V30 1198 N 107.901 -0.206675 1.56239 0
M  V30 1199 C 109.178 -0.954051 1.70755 0
M  V30 1200 C 109.558 -2.01841 0.618353 0
M  V30 1201 O 108.906 -2.25444 -0.372434 0
M  V30 1202 C 109.116 -1.551 3.12642 0
M  V30 1203 C 110.464 -2.03757 3.72516 0
M  V30 1204 O 111.488 -1.64965 3.15698 0
M  V30 1205 O 110.347 -2.75103 4.72208 0
M  V30 1206 H 107.441 -0.446636 0.696021 0
M  V30 1207 H 109.987 -0.197283 1.68549 0
M  V30 1208 H 108.759 -0.783212 3.83382 0
M  V30 1209 H 108.382 -2.37291 3.19028 0
M  V30 1210 N 109.379 -1.50304 -0.473955 0
M  V30 1211 C 110.309 -1.71886 -1.58042 0
M  V30 1212 C 111.29 -0.567799 -1.60344 0
M  V30 1213 O 112.475 -0.806623 -1.76656 0
M  V30 1214 C 109.605 -1.81036 -2.96384 0
M  V30 1215 C 108.559 -2.962 -3.08949 0
M  V30 1216 C 107.885 -2.9049 -4.48909 0
M  V30 1217 C 109.185 -4.36752 -2.86434 0
M  V30 1218 H 110.879 -2.64527 -1.40234 0
M  V30 1219 H 108.425 -1.27295 -0.673201 0
M  V30 1220 H 110.378 -1.94719 -3.73714 0
M  V30 1221 H 109.102 -0.850147 -3.15341 0
M  V30 1222 H 107.761 -2.82164 -2.3405 0
M  V30 1223 H 107.409 -1.92321 -4.64781 0
M  V30 1224 H 107.109 -3.67802 -4.58253 0
M  V30 1225 H 108.633 -3.06218 -5.28264 0
M  V30 1226 H 110.047 -4.5133 -3.53517 0
M  V30 1227 H 108.444 -5.15493 -3.07225 0
M  V30 1228 H 109.514 -4.49321 -1.82316 0
M  V30 1229 N 110.857 0.726932 -1.39834 0
M  V30 1230 C 111.82 1.82269 -1.38962 0
M  V30 1231 C 112.82 1.58248 -0.285334 0
M  V30 1232 O 114.01 1.65499 -0.54366 0
M  V30 1233 C 111.142 3.20186 -1.17019 0
M  V30 1234 H 112.335 1.84443 -2.36476 0
M  V30 1235 H 109.888 0.931416 -1.25516 0
M  V30 1236 H 110.623 3.23669 -0.202204 0
M  V30 1237 H 110.408 3.3902 -1.96998 0
M  V30 1238 H 111.898 4.00235 -1.1917 0
M  V30 1239 N 112.336 1.25143 0.95797 0
M  V30 1240 C 113.583 1.09692 1.70217 0
M  V30 1241 C 113.911 -0.362654 1.91089 0
M  V30 1242 O 113.166 -1.28386 1.47701 0
M  V30 1243 C 113.465 1.79272 3.09187 0
M  V30 1244 C 113.131 3.29196 3.08125 0
M  V30 1245 C 111.793 3.70096 3.07543 0
M  V30 1246 C 114.145 4.24995 3.0171 0
M  V30 1247 C 111.473 5.05213 2.9829 0
M  V30 1248 C 113.825 5.60132 2.93999 0
M  V30 1249 C 112.489 6.00365 2.9175 0
M  V30 1250 H 111.759 0.401393 0.622868 0
M  V30 1251 H 114.406 1.55372 1.11945 0
M  V30 1252 H 112.711 1.26014 3.70982 0
M  V30 1253 H 114.408 1.64773 3.65583 0
M  V30 1254 H 110.998 2.96651 3.09348 0
M  V30 1255 H 115.182 3.9439 3.01281 0
M  V30 1256 H 110.438 5.35569 2.94916 0
M  V30 1257 H 114.612 6.3406 2.87996 0
M  V30 1258 H 112.239 7.05023 2.84336 0
M  V30 1259 N 113.814 -1.1601 1.06675 0
M  V30 1260 C 114.777 -2.18724 0.685001 0
M  V30 1261 C 115.777 -1.58496 -0.271246 0
M  V30 1262 O 116.967 -1.74119 -0.0531156 0
M  V30 1263 C 114.099 -3.40899 0.00853648 0
M  V30 1264 H 115.292 -2.54011 1.59431 0
M  V30 1265 H 112.845 -1.30352 0.862441 0
M  V30 1266 H 113.58 -3.11173 -0.913337 0
M  V30 1267 H 113.365 -3.8587 0.696204 0
M  V30 1268 H 114.855 -4.16886 -0.24414 0
M  V30 1269 N 115.292 -0.849877 -1.32721 0
M  V30 1270 C 116.517 -0.463856 -2.02146 0
M  V30 1271 C 116.942 0.930449 -1.63476 0
M  V30 1272 O 116.3 1.61033 -0.832952 0
M  V30 1273 C 116.348 -0.604955 -3.55489 0
M  V30 1274 O 115.452 0.36425 -4.10788 0
M  V30 1275 H 114.793 -0.187046 -0.637111 0
M  V30 1276 H 117.323 -1.14775 -1.69375 0
M  V30 1277 H 117.333 -0.490696 -4.05038 0
M  V30 1278 H 116.008 -1.62174 -3.82978 0
M  V30 1279 H 114.585 0.206628 -3.72327 0
M  V30 1280 N 116.77 1.45427 -0.607355 0
M  V30 1281 C 118.016 2.0254 -0.102607 0
M  V30 1282 C 118.349 1.47478 1.26348 0
M  V30 1283 O 117.624 0.64939 1.83339 0
M  V30 1284 C 117.907 3.60044 -0.0634347 0
M  V30 1285 C 117.76 4.2544 -1.46017 0
M  V30 1286 C 119.079 4.35646 0.624514 0
M  V30 1287 H 116.198 0.73598 -0.0387607 0
M  V30 1288 H 118.84 1.73284 -0.779282 0
M  V30 1289 H 116.99 3.85101 0.512808 0
M  V30 1290 H 118.662 4.11569 -2.08347 0
M  V30 1291 H 116.905 3.83849 -2.02094 0
M  V30 1292 H 117.576 5.34342 -1.385 0
M  V30 1293 H 120.052 4.15882 0.134723 0
M  V30 1294 H 118.928 5.45376 0.621028 0
M  V30 1295 H 119.189 4.08501 1.69055 0
M  V30 1296 N 118.248 0.346503 1.53744 0
M  V30 1297 C 119.158 -0.517293 2.28826 0
M  V30 1298 C 120.174 -1.10935 1.3405 0
M  V30 1299 O 121.35 -1.1244 1.6709 0
M  V30 1300 C 118.415 -1.65098 3.04866 0
M  V30 1301 C 117.476 -1.0884 4.15274 0
M  V30 1302 C 116.709 -2.16806 4.87679 0
M  V30 1303 O 116.932 -3.3758 4.59778 0
M  V30 1304 O 115.866 -1.80934 5.74061 0
M  V30 1305 H 119.692 0.0931396 3.03557 0
M  V30 1306 H 117.277 0.111458 1.48984 0
M  V30 1307 H 119.159 -2.31053 3.5241 0
M  V30 1308 H 117.834 -2.24717 2.32989 0
M  V30 1309 H 116.741 -0.3933 3.72027 0
M  V30 1310 H 118.074 -0.537036 4.89261 0
M  V30 1311 N 119.726 -1.57421 0.075193 0
M  V30 1312 C 120.676 -2.09441 -0.901025 0
M  V30 1313 C 121.66 -1.00486 -1.25663 0
M  V30 1314 O 122.852 -1.2679 -1.23504 0
M  V30 1315 C 119.981 -2.66233 -2.16737 0
M  V30 1316 C 119.067 -3.82198 -1.83808 0
M  V30 1317 N 119.458 -4.91028 -1.21345 0
M  V30 1318 C 117.756 -3.91558 -2.13538 0
M  V30 1319 C 118.457 -5.71852 -1.06585 0
M  V30 1320 N 117.433 -5.20233 -1.57667 0
M  V30 1321 H 121.235 -2.90972 -0.413815 0
M  V30 1322 H 118.749 -1.6189 -0.128601 0
M  V30 1323 H 120.746 -3.01819 -2.87595 0
M  V30 1324 H 119.406 -1.8615 -2.66042 0
M  V30 1325 H 120.417 -5.10323 -0.88268 0
M  V30 1326 H 117.094 -3.22454 -2.65197 0
M  V30 1327 H 118.484 -6.69401 -0.578933 0
M  V30 1328 N 121.204 0.198386 -1.56346 0
M  V30 1329 C 122.453 0.917451 -1.79627 0
M  V30 1330 C 122.766 1.8456 -0.64784 0
M  V30 1331 O 123.972 2.60504 -0.764859 0
M  V30 1332 C 122.428 1.68175 -3.18191 0
M  V30 1333 C 122.036 0.798589 -4.40825 0
M  V30 1334 C 123.78 2.39065 -3.50782 0
M  V30 1335 C 121.687 1.56157 -5.70411 0
M  V30 1336 H 120.617 0.346317 -0.669762 0
M  V30 1337 H 123.268 0.170801 -1.82703 0
M  V30 1338 H 121.65 2.47216 -3.09354 0
M  V30 1339 H 122.824 0.0470665 -4.60776 0
M  V30 1340 H 121.139 0.200686 -4.15916 0
M  V30 1341 H 123.736 2.96692 -4.44835 0
M  V30 1342 H 124.079 3.13091 -2.74371 0
M  V30 1343 H 124.612 1.66993 -3.61052 0
M  V30 1344 H 121.351 0.864142 -6.49779 0
M  V30 1345 H 120.871 2.2871 -5.54483 0
M  V30 1346 H 122.55 2.11622 -6.11412 0
M  V30 1347 N 122.682 1.50554 0.465978 0
M  V30 1348 C 123.615 1.64436 1.58227 0
M  V30 1349 C 124.593 0.492367 1.54966 0
M  V30 1350 O 125.777 0.712536 1.74514 0
M  V30 1351 C 122.904 1.63165 2.96808 0
M  V30 1352 C 121.95 2.83987 3.18204 0
M  V30 1353 S 122.783 4.45219 2.97557 0
M  V30 1354 C 123.939 4.46649 4.3847 0
M  V30 1355 H 124.172 2.58861 1.46213 0
M  V30 1356 H 121.705 1.3988 0.653678 0
M  V30 1357 H 123.663 1.63116 3.76701 0
M  V30 1358 H 122.324 0.69967 3.06208 0
M  V30 1359 H 121.517 2.79416 4.19455 0
M  V30 1360 H 121.119 2.81629 2.46092 0
M  V30 1361 H 123.411 4.20526 5.31191 0
M  V30 1362 H 124.354 5.48295 4.48082 0
M  V30 1363 H 124.762 3.76296 4.20787 0
M  V30 1364 N 124.16 -0.719506 1.40217 0
M  V30 1365 C 125.576 -1.02707 1.22161 0
M  V30 1366 C 125.776 -2.0128 0.0940557 0
M  V30 1367 O 124.832 -2.46452 -0.549318 0
M  V30 1368 C 126.145 -1.57454 2.56181 0
M  V30 1369 C 127.693 -1.69458 2.63159 0
M  V30 1370 C 128.168 -2.27611 3.97438 0
M  V30 1371 N 129.659 -2.35002 3.99159 0
M  V30 1372 C 130.394 -2.80972 4.99842 0
M  V30 1373 N 129.89 -3.26723 6.10921 0
M  V30 1374 N 131.683 -2.80321 4.87213 0
M  V30 1375 H 123.834 -0.0660492 2.12297 0
M  V30 1376 H 126.097 -0.0919077 0.943534 0
M  V30 1377 H 125.803 -0.924873 3.39321 0
M  V30 1378 H 125.677 -2.56036 2.76993 0
M  V30 1379 H 128.064 -2.33543 1.80393 0
M  V30 1380 H 128.145 -0.694867 2.46181 0
M  V30 1381 H 127.789 -1.6415 4.80643 0
M  V30 1382 H 127.719 -3.2829 4.11744 0
M  V30 1383 H 130.21 -2.02685 3.18947 0
M  V30 1384 H 130.523 -3.60355 6.8364 0
M  V30 1385 H 128.868 -3.24692 6.14492 0
M  V30 1386 H 132.059 -2.43912 3.9953 0
M  V30 1387 H 132.232 -3.15831 5.65822 0
M  V30 1388 N 125.638 -1.25649 -0.95132 0
M  V30 1389 C 126.586 -1.06118 -2.06982 0
M  V30 1390 C 127.58 0.00889169 -1.69398 0
M  V30 1391 O 128.786 -0.146988 -1.79399 0
M  V30 1392 H 125.161 -0.326248 -0.677544 0
M  V30 1393 H 127.132 -2.00932 -2.2061 0
M  V30 1394 C 125.881 -0.700145 -3.40578 0
M  V30 1395 H 125.204 -1.51537 -3.69968 0
M  V30 1396 H 126.644 -0.603211 -4.19687 0
M  V30 1397 C 125.103 0.59403 -3.31622 0
M  V30 1398 O 125.633 1.63522 -3.66911 0
M  V30 1399 N 123.839 0.58089 -2.84735 0
M  V30 1400 H 123.386 -0.266783 -2.56215 0
M  V30 1401 H 123.344 1.44695 -2.79125 0
M  V30 1402 N 127.117 1.15442 -1.07289 0
M  V30 1403 C 128.363 1.86489 -0.796846 0
M  V30 1404 C 128.696 1.82078 0.675371 0
M  V30 1405 O 127.971 1.24346 1.4956 0
M  V30 1406 C 128.254 3.35626 -1.30489 0
M  V30 1407 C 128.107 3.48673 -2.84161 0
M  V30 1408 C 129.426 4.30357 -0.920907 0
M  V30 1409 H 126.545 0.677144 -0.290939 0
M  V30 1410 H 129.187 1.35633 -1.33056 0
M  V30 1411 H 127.337 3.79068 -0.850883 0
M  V30 1412 H 129.009 3.14099 -3.37846 0
M  V30 1413 H 127.252 2.90253 -3.22391 0
M  V30 1414 H 127.923 4.53453 -3.14777 0
M  V30 1415 H 130.399 3.94871 -1.3121 0
M  V30 1416 H 129.275 5.33193 -1.30372 0
M  V30 1417 H 129.536 4.4176 0.173226 0
M  V30 1418 N 128.595 0.856903 1.32268 0
M  V30 1419 C 129.543 0.291987 2.3076 0
M  V30 1420 C 130.537 -0.585857 1.58947 0
M  V30 1421 O 131.743 -0.47341 1.73663 0
M  V30 1422 H 128.118 0.075721 0.748178 0
M  V30 1423 H 130.089 1.13687 2.75895 0
M  V30 1424 C 128.838 -0.502869 3.44044 0
M  V30 1425 H 128.161 0.163328 3.99466 0
M  V30 1426 H 129.601 -0.863691 4.1511 0
M  V30 1427 C 128.06 -1.68898 2.91505 0
M  V30 1428 O 128.59 -2.78811 2.89184 0
M  V30 1429 N 126.796 -1.51679 2.47875 0
M  V30 1430 H 126.343 -0.622666 2.49961 0
M  V30 1431 H 126.301 -2.31184 2.13076 0
M  V30 1432 N 130.073 -1.45103 0.615059 0
M  V30 1433 C 131.321 -2.01784 0.112955 0
M  V30 1434 C 131.642 -1.48504 -1.26378 0
M  V30 1435 O 130.912 -0.682245 -1.83636 0
M  V30 1436 H 129.492 -0.745993 0.0387668 0
M  V30 1437 H 132.154 -1.77808 0.798141 0
M  V30 1438 H 131.25 -3.12025 0.0684069 0
M  V30 1439 N 131.551 -0.354651 -1.53558 0
M  V30 1440 C 132.799 0.237972 -2.00694 0
M  V30 1441 C 133.12 1.50173 -1.24391 0
M  V30 1442 O 132.39 1.92673 -0.354135 0
M  V30 1443 H 130.97 0.0909256 -0.741446 0
M  V30 1444 H 133.632 -0.478368 -1.88938 0
M  V30 1445 H 132.728 0.47264 -3.085 0
M  V30 1446 N 133.029 1.57378 -0.0835403 0
M  V30 1447 C 134.276 1.9393 0.58287 0
M  V30 1448 C 134.604 0.964455 1.68904 0
M  V30 1449 O 133.859 -0.0179474 1.95692 0
M  V30 1450 C 134.158 3.37063 1.1884 0
M  V30 1451 C 133.824 4.50424 0.207194 0
M  V30 1452 C 132.486 4.81159 -0.0627115 0
M  V30 1453 C 134.838 5.19136 -0.463426 0
M  V30 1454 C 132.166 5.77939 -1.01012 0
M  V30 1455 C 134.518 6.16931 -1.39924 0
M  V30 1456 C 133.182 6.46078 -1.67749 0
M  V30 1457 H 132.452 0.70964 0.213287 0
M  V30 1458 H 135.099 1.90856 -0.156916 0
M  V30 1459 H 133.404 3.3666 2.00418 0
M  V30 1460 H 135.101 3.6264 1.71153 0
M  V30 1461 H 131.691 4.2646 0.427747 0
M  V30 1462 H 135.875 4.95576 -0.268034 0
M  V30 1463 H 131.131 5.98842 -1.23283 0
M  V30 1464 H 135.305 6.69273 -1.92476 0
M  V30 1465 H 132.932 7.2088 -2.41321 0
M  V30 1466 N 134.507 -0.190092 1.56449 0
M  V30 1467 C 135.44 -1.26375 1.90012 0
M  V30 1468 C 136.418 -1.43705 0.760765 0
M  V30 1469 O 137.602 -1.59014 1.01226 0
M  V30 1470 C 134.729 -2.62962 2.13468 0
M  V30 1471 C 133.775 -2.62474 3.36169 0
M  V30 1472 S 134.608 -2.13412 4.91137 0
M  V30 1473 C 135.764 -3.51812 5.17667 0
M  V30 1474 H 135.997 -0.977181 2.80782 0
M  V30 1475 H 133.53 -0.393814 1.49293 0
M  V30 1476 H 135.488 -3.41583 2.27664 0
M  V30 1477 H 134.149 -2.88828 1.23439 0
M  V30 1478 H 133.342 -3.62918 3.49723 0
M  V30 1479 H 132.944 -1.91937 3.20992 0
M  V30 1480 H 135.236 -4.47706 5.08494 0
M  V30 1481 H 136.179 -3.43148 6.19399 0
M  V30 1482 H 136.587 -3.46956 4.45288 0
M  V30 1483 N 135.985 -1.50799 -0.457987 0
M  V30 1484 C 136.915 -1.73553 -1.5621 0
M  V30 1485 C 137.896 -0.584774 -1.59732 0
M  V30 1486 O 139.081 -0.825314 -1.7579 0
M  V30 1487 C 136.211 -1.84169 -2.94447 0
M  V30 1488 C 135.165 -2.99461 -3.0579 0
M  V30 1489 C 134.491 -2.95235 -4.45803 0
M  V30 1490 C 135.791 -4.39766 -2.81786 0
M  V30 1491 H 137.485 -2.66 -1.37421 0
M  V30 1492 H 135.031 -1.28002 -0.659662 0
M  V30 1493 H 136.984 -1.98672 -3.71628 0
M  V30 1494 H 135.708 -0.883545 -3.14422 0
M  V30 1495 H 134.367 -2.8463 -2.31044 0
M  V30 1496 H 134.015 -1.97239 -4.62715 0
M  V30 1497 H 133.715 -3.72642 -4.54326 0
M  V30 1498 H 135.239 -3.11803 -5.24987 0
M  V30 1499 H 136.653 -4.55054 -3.4871 0
M  V30 1500 H 135.05 -5.18722 -3.0174 0
M  V30 1501 H 136.12 -4.51229 -1.7754 0
M  V30 1502 N 137.463 0.71206 -1.40597 0
M  V30 1503 C 138.879 1.02058 -1.22704 0
M  V30 1504 C 139.079 2.01228 -0.104729 0
M  V30 1505 O 138.135 2.4674 0.53624 0
M  V30 1506 C 139.448 1.56094 -2.57012 0
M  V30 1507 C 140.996 1.6806 -2.64054 0
M  V30 1508 C 141.471 2.25501 -3.9864 0
M  V30 1509 N 142.962 2.32882 -4.004 0
M  V30 1510 C 143.697 2.78317 -5.01325 0
M  V30 1511 N 143.193 3.23478 -6.12645 0
M  V30 1512 N 144.986 2.77733 -4.88693 0
M  V30 1513 H 137.137 0.0547896 -2.12329 0
M  V30 1514 H 139.4 0.0869027 -0.944008 0
M  V30 1515 H 139.106 0.906865 -3.39807 0
M  V30 1516 H 138.98 2.54564 -2.78347 0
M  V30 1517 H 141.367 2.32583 -1.81629 0
M  V30 1518 H 141.448 0.681802 -2.46546 0
M  V30 1519 H 141.092 1.61598 -4.81506 0
M  V30 1520 H 141.022 3.26102 -4.13479 0
M  V30 1521 H 143.513 2.00991 -3.20017 0
M  V30 1522 H 143.826 3.56725 -6.85542 0
M  V30 1523 H 142.171 3.21429 -6.16205 0
M  V30 1524 H 145.362 2.4179 -4.00818 0
M  V30 1525 H 145.535 3.12826 -5.67489 0
M  V30 1526 N 138.941 1.26152 0.944643 0
M  V30 1527 C 140.171 1.14094 1.72239 0
M  V30 1528 C 140.579 -0.306931 1.86694 0
M  V30 1529 O 139.922 -1.22222 1.3714 0
M  V30 1530 C 139.984 1.73316 3.14963 0
M  V30 1531 C 139.648 3.2239 3.23904 0
M  V30 1532 C 140.645 4.19252 3.07447 0
M  V30 1533 C 138.33 3.62788 3.47405 0
M  V30 1534 C 140.324 5.54491 3.14353 0
M  V30 1535 C 138.011 4.98162 3.53947 0
M  V30 1536 C 139.009 5.93823 3.37436 0
M  V30 1537 O 138.697 7.26732 3.43679 0
M  V30 1538 H 138.429 0.398292 0.546205 0
M  V30 1539 H 140.983 1.67201 1.19301 0
M  V30 1540 H 139.213 1.14667 3.69308 0
M  V30 1541 H 140.902 1.56214 3.74636 0
M  V30 1542 H 141.668 3.8938 2.8915 0
M  V30 1543 H 137.547 2.88816 3.59313 0
M  V30 1544 H 141.091 6.29137 3.01384 0
M  V30 1545 H 136.988 5.27695 3.71763 0
M  V30 1546 H 137.756 7.3496 3.60245 0
M  V30 1547 N 140.419 -1.14872 1.07899 0
M  V30 1548 C 141.349 -2.2193 0.725887 0
M  V30 1549 C 142.33 -1.67622 -0.28927 0
M  V30 1550 O 143.515 -1.93533 -0.160787 0
M  V30 1551 C 140.645 -3.47061 0.128856 0
M  V30 1552 C 139.599 -4.14363 1.07178 0
M  V30 1553 C 138.925 -5.33636 0.337229 0
M  V30 1554 C 140.225 -4.63492 2.40775 0
M  V30 1555 H 141.919 -2.51724 1.62097 0
M  V30 1556 H 139.465 -1.20991 0.780838 0
M  V30 1557 H 141.418 -4.21199 -0.130147 0
M  V30 1558 H 140.142 -3.16617 -0.80134 0
M  V30 1559 H 138.801 -3.42173 1.3158 0
M  V30 1560 H 138.449 -4.99449 -0.596606 0
M  V30 1561 H 138.149 -5.79609 0.965788 0
M  V30 1562 H 139.673 -6.10539 0.0861567 0
M  V30 1563 H 141.087 -5.2913 2.20669 0
M  V30 1564 H 139.484 -5.20148 2.99276 0
M  V30 1565 H 140.554 -3.78834 3.02676 0
M  V30 1566 N 141.898 -0.863906 -1.31812 0
M  V30 1567 C 142.848 -0.286898 -2.26188 0
M  V30 1568 C 143.832 0.572577 -1.50367 0
M  V30 1569 O 145.024 0.420447 -1.71934 0
M  V30 1570 C 142.153 0.515849 -3.39402 0
M  V30 1571 C 141.239 -0.356531 -4.22599 0
M  V30 1572 N 141.63 -1.44716 -4.84656 0
M  V30 1573 C 139.928 -0.147898 -4.45755 0
M  V30 1574 C 140.629 -1.98462 -5.46798 0
M  V30 1575 N 139.605 -1.28247 -5.28255 0
M  V30 1576 H 143.407 -1.12055 -2.717 0
M  V30 1577 H 140.921 -0.711012 -1.46008 0
M  V30 1578 H 142.918 0.945701 -4.06032 0
M  V30 1579 H 141.578 1.34718 -2.95434 0
M  V30 1580 H 142.589 -1.83008 -4.84488 0
M  V30 1581 H 139.266 0.647973 -4.12441 0
M  V30 1582 H 140.656 -2.89932 -6.06126 0
M  V30 1583 N 143.376 1.44774 -0.622745 0
M  V30 1584 C 144.339 2.29069 0.0774015 0
M  V30 1585 C 145.339 1.4059 0.780461 0
M  V30 1586 O 146.529 1.62551 0.626322 0
M  V30 1587 C 143.661 3.21974 1.12006 0
M  V30 1588 H 144.854 2.92459 -0.663901 0
M  V30 1589 H 142.407 1.51548 -0.382486 0
M  V30 1590 H 143.142 2.63417 1.89162 0
M  V30 1591 H 142.927 3.87168 0.619951 0
M  V30 1592 H 144.417 3.85318 1.60995 0
M  V30 1593 N 144.854 0.36279 1.53368 0
M  V30 1594 C 145.802 -0.500155 2.27159 0
M  V30 1595 C 146.796 -1.08575 1.3003 0
M  V30 1596 O 148.002 -1.02927 1.47668 0
M  V30 1597 H 144.377 -0.180009 0.730138 0
M  V30 1598 H 146.348 0.14401 2.98052 0
M  V30 1599 C 145.097 -1.62937 3.07159 0
M  V30 1600 H 144.42 -1.18806 3.8174 0
M  V30 1601 H 145.86 -2.20795 3.61975 0
M  V30 1602 C 144.319 -2.57007 2.17829 0
M  V30 1603 O 144.849 -3.59752 1.78721 0
M  V30 1604 N 143.055 -2.26131 1.82518 0
M  V30 1605 H 142.602 -1.42616 2.14519 0
M  V30 1606 H 142.56 -2.89327 1.23034 0
M  V30 1607 N 146.332 -1.57332 0.0918853 0
M  V30 1608 C 147.58 -1.93853 -0.571446 0
M  V30 1609 C 147.901 -0.974212 -1.6892 0
M  V30 1610 O 147.171 -0.0257254 -1.95883 0
M  V30 1611 H 145.751 -0.715666 -0.214082 0
M  V30 1612 H 148.413 -1.94287 0.154464 0
M  V30 1613 H 147.509 -2.96191 -0.983729 0
M  V30 1614 N 147.81 0.181792 -1.56548 0
M  V30 1615 C 148.773 1.20894 -1.94724 0
M  V30 1616 C 149.773 1.37738 -0.829747 0
M  V30 1617 O 150.963 1.35323 -1.09697 0
M  V30 1618 C 148.095 2.57593 -2.23291 0
M  V30 1619 H 149.288 0.882275 -2.86629 0
M  V30 1620 H 146.841 0.423838 -1.50444 0
M  V30 1621 H 147.576 2.95291 -1.34067 0
M  V30 1622 H 147.361 2.46735 -3.04736 0
M  V30 1623 H 148.851 3.31637 -2.53785 0
M  V30 1624 N 149.288 1.51039 0.449983 0
M  V30 1625 C 150.513 1.6715 1.22783 0
M  V30 1626 C 150.938 0.363081 1.84563 0
M  V30 1627 O 150.296 -0.675433 1.68249 0
M  V30 1628 C 150.344 2.77985 2.29689 0
M  V30 1629 O 149.448 2.40707 3.34864 0
M  V30 1630 H 148.789 0.557746 0.360299 0
M  V30 1631 H 151.319 1.97535 0.533005 0
M  V30 1632 H 151.329 3.01693 2.74673 0
M  V30 1633 H 150.004 3.72935 1.84098 0
M  V30 1634 H 148.581 2.27523 2.95445 0
M  V30 1635 N 150.766 -0.704594 1.40972 0
M  V30 1636 C 151.696 -1.83124 1.44872 0
M  V30 1637 C 152.677 -1.67281 0.30838 0
M  V30 1638 O 153.862 -1.87149 0.518556 0
M  V30 1639 C 150.992 -3.21181 1.32136 0
M  V30 1640 C 149.946 -3.51714 2.43888 0
M  V30 1641 C 149.272 -4.89032 2.16222 0
M  V30 1642 C 150.572 -3.516 3.86232 0
M  V30 1643 H 152.266 -1.80117 2.39161 0
M  V30 1644 H 149.812 -0.865145 1.15114 0
M  V30 1645 H 151.765 -3.99702 1.33479 0
M  V30 1646 H 150.489 -3.24791 0.343279 0
M  V30 1647 H 149.148 -2.75539 2.41813 0
M  V30 1648 H 148.796 -4.89256 1.16778 0
M  V30 1649 H 148.496 -5.10426 2.911 0
M  V30 1650 H 150.02 -5.69873 2.19265 0
M  V30 1651 H 151.434 -4.2014 3.9007 0
M  V30 1652 H 149.831 -3.84523 4.60719 0
M  V30 1653 H 150.901 -2.50757 4.15029 0
M  V30 1654 N 152.244 -1.26651 -0.937939 0
M  V30 1655 C 153.491 -1.12387 -1.6845 0
M  V30 1656 C 153.819 0.332208 -1.91642 0
M  V30 1657 O 153.074 1.2602 -1.49725 0
M  V30 1658 C 153.373 -1.84168 -3.06295 0
M  V30 1659 C 153.039 -3.34056 -3.02849 0
M  V30 1660 C 151.701 -3.74942 -3.01616 0
M  V30 1661 C 154.053 -4.29741 -2.9491 0
M  V30 1662 C 151.381 -5.09894 -2.90215 0
M  V30 1663 C 153.733 -5.64738 -2.8505 0
M  V30 1664 C 152.397 -6.0493 -2.82162 0
M  V30 1665 H 151.667 -0.411252 -0.616403 0
M  V30 1666 H 154.314 -1.57134 -1.09459 0
M  V30 1667 H 152.619 -1.319 -3.6893 0
M  V30 1668 H 154.316 -1.70569 -3.62915 0
M  V30 1669 H 150.906 -3.01534 -3.0459 0
M  V30 1670 H 155.09 -3.99133 -2.94969 0
M  V30 1671 H 150.346 -5.40194 -2.86358 0
M  V30 1672 H 154.52 -6.38561 -2.77872 0
M  V30 1673 H 152.147 -7.09457 -2.73084 0
M  V30 1674 N 153.722 1.14298 -1.08507 0
M  V30 1675 C 154.969 1.85359 -0.815373 0
M  V30 1676 C 155.297 1.83001 0.658865 0
M  V30 1677 O 154.552 1.25655 1.50031 0
M  V30 1678 C 154.851 3.33547 -1.28379 0
M  V30 1679 C 154.517 3.56093 -2.76602 0
M  V30 1680 C 153.179 3.61955 -3.17084 0
M  V30 1681 C 155.531 3.64834 -3.72217 0
M  V30 1682 C 152.859 3.74082 -4.51973 0
M  V30 1683 C 155.211 3.78487 -5.06883 0
M  V30 1684 C 153.875 3.82598 -5.46969 0
M  V30 1685 H 153.145 0.678276 -0.298366 0
M  V30 1686 H 155.792 1.35002 -1.35819 0
M  V30 1687 H 154.097 3.86191 -0.660593 0
M  V30 1688 H 155.794 3.86959 -1.05186 0
M  V30 1689 H 152.384 3.52179 -2.4427 0
M  V30 1690 H 156.568 3.59595 -3.42061 0
M  V30 1691 H 151.824 3.75527 -4.82483 0
M  V30 1692 H 155.998 3.84193 -5.80834 0
M  V30 1693 H 153.625 3.91747 -6.51489 0
M  V30 1694 N 155.201 0.870884 1.31352 0
M  V30 1695 C 156.45 0.478408 1.95944 0
M  V30 1696 C 156.763 -0.974493 1.69597 0
M  V30 1697 O 157.969 -1.47316 2.28058 0
M  V30 1698 C 156.425 0.804609 3.50791 0
M  V30 1699 C 156.033 2.27433 3.85977 0
M  V30 1700 C 157.777 0.480648 4.2177 0
M  V30 1701 C 155.684 2.5429 5.33939 0
M  V30 1702 H 154.614 0.175175 0.733369 0
M  V30 1703 H 157.265 1.06391 1.4951 0
M  V30 1704 H 155.647 0.148347 3.95722 0
M  V30 1705 H 156.821 2.97373 3.52002 0
M  V30 1706 H 155.136 2.56442 3.28065 0
M  V30 1707 H 157.733 0.658519 5.30629 0
M  V30 1708 H 158.076 -0.578979 4.12254 0
M  V30 1709 H 158.609 1.09349 3.82476 0
M  V30 1710 H 155.348 3.58939 5.48491 0
M  V30 1711 H 154.868 1.88945 5.69263 0
M  V30 1712 H 156.547 2.39066 6.01212 0
M  V30 1713 N 156.679 -1.44442 0.630414 0
M  V30 1714 C 157.642 -2.29107 -0.0652523 0
M  V30 1715 C 158.642 -1.41002 -0.772995 0
M  V30 1716 O 159.832 -1.62881 -0.617692 0
M  V30 1717 C 156.964 -3.22564 -1.10296 0
M  V30 1718 H 158.157 -2.92103 0.679401 0
M  V30 1719 H 155.71 -1.51343 0.390517 0
M  V30 1720 H 156.445 -2.64416 -1.87762 0
M  V30 1721 H 156.23 -3.87491 -0.59941 0
M  V30 1722 H 157.72 -3.86167 -1.5895 0
M  V30 1723 N 158.157 -0.370918 -1.53173 0
M  V30 1724 C 159.403 0.217423 -2.01631 0
M  V30 1725 C 159.736 1.47983 -1.25756 0
M  V30 1726 O 159.011 1.91274 -0.352764 0
M  V30 1727 C 159.294 0.503982 -3.56556 0
M  V30 1728 C 159.147 -0.77243 -4.43118 0
M  V30 1729 C 160.466 1.30234 -4.20389 0
M  V30 1730 H 157.585 0.0775486 -0.732909 0
M  V30 1731 H 160.227 -0.496863 -1.83388 0
M  V30 1732 H 158.377 1.11248 -3.72231 0
M  V30 1733 H 160.049 -1.4098 -4.39229 0
M  V30 1734 H 158.292 -1.39167 -4.10871 0
M  V30 1735 H 158.963 -0.526815 -5.4948 0
M  V30 1736 H 161.439 0.787546 -4.08579 0
M  V30 1737 H 160.315 1.47158 -5.28806 0
M  V30 1738 H 160.576 2.31237 -3.76805 0
M  V30 1739 N 159.635 1.57281 -0.100228 0
M  V30 1740 C 160.865 1.98591 0.569681 0
M  V30 1741 C 161.273 0.978315 1.61943 0
M  V30 1742 O 160.616 -0.0396108 1.83657 0
M  V30 1743 C 160.678 3.36282 1.271 0
M  V30 1744 C 160.342 4.55488 0.371409 0
M  V30 1745 C 161.339 5.18491 -0.382504 0
M  V30 1746 C 159.024 5.01474 0.287965 0
M  V30 1747 C 161.018 6.25852 -1.20779 0
M  V30 1748 C 158.705 6.08701 -0.540965 0
M  V30 1749 C 159.703 6.70755 -1.28749 0
M  V30 1750 O 159.391 7.75914 -2.10269 0
M  V30 1751 H 159.123 0.65752 0.156982 0
M  V30 1752 H 161.677 2.0463 -0.177734 0
M  V30 1753 H 159.907 3.26941 2.0651 0
M  V30 1754 H 161.596 3.62005 1.83595 0
M  V30 1755 H 162.362 4.83891 -0.3278 0
M  V30 1756 H 158.241 4.52932 0.858689 0
M  V30 1757 H 161.785 6.74218 -1.79096 0
M  V30 1758 H 157.682 6.42732 -0.597131 0
M  V30 1759 H 158.45 7.92925 -2.03007 0
M  V30 1760 N 161.113 -0.173488 1.56642 0
M  V30 1761 C 162.043 -1.2171 1.99271 0
M  V30 1762 C 163.024 -1.46289 0.867959 0
M  V30 1763 O 164.209 -1.5766 1.13388 0
M  V30 1764 C 161.339 -2.55651 2.35074 0
M  V30 1765 C 160.293 -2.45645 3.50489 0
M  V30 1766 C 159.619 -3.84056 3.72028 0
M  V30 1767 C 160.919 -1.96302 4.84007 0
M  V30 1768 H 162.613 -0.86275 2.867 0
M  V30 1769 H 160.159 -0.413571 1.37933 0
M  V30 1770 H 162.112 -3.2886 2.63494 0
M  V30 1771 H 160.836 -2.92869 1.44552 0
M  V30 1772 H 159.495 -1.7489 3.22194 0
M  V30 1773 H 159.143 -4.18664 2.788 0
M  V30 1774 H 158.843 -3.7823 4.49684 0
M  V30 1775 H 160.367 -4.58854 4.02846 0
M  V30 1776 H 161.781 -2.59284 5.11317 0
M  V30 1777 H 160.178 -2.01429 5.65284 0
M  V30 1778 H 161.248 -0.917226 4.76146 0
M  V30 1779 N 162.591 -1.51276 -0.441967 0
M  V30 1780 C 163.541 -1.6864 -1.53442 0
M  V30 1781 C 164.525 -0.540444 -1.51552 0
M  V30 1782 O 165.717 -0.796157 -1.58083 0
M  V30 1783 C 162.846 -1.8106 -2.91672 0
M  V30 1784 C 161.932 -3.01424 -2.98336 0
M  V30 1785 N 162.323 -4.2467 -2.74752 0
M  V30 1786 C 160.621 -3.00584 -3.29493 0
M  V30 1787 C 161.322 -5.05891 -2.87139 0
M  V30 1788 N 160.298 -4.40442 -3.18609 0
M  V30 1789 H 164.1 -2.61598 -1.33954 0
M  V30 1790 H 161.614 -1.4886 -0.6492 0
M  V30 1791 H 163.611 -1.91609 -3.70259 0
M  V30 1792 H 162.271 -0.892795 -3.12185 0
M  V30 1793 H 163.282 -4.53691 -2.49769 0
M  V30 1794 H 159.959 -2.18417 -3.55809 0
M  V30 1795 H 161.349 -6.13983 -2.72899 0
M  V30 1796 N 164.069 0.697108 -1.41344 0
M  V30 1797 C 165.318 1.45279 -1.39918 0
M  V30 1798 C 165.631 1.95597 -0.0109624 0
M  V30 1799 O 166.837 2.71208 0.125919 0
M  V30 1800 C 165.293 2.62695 -2.46007 0
M  V30 1801 C 164.901 2.19169 -3.90729 0
M  V30 1802 C 166.645 3.40336 -2.53715 0
M  V30 1803 C 164.552 3.33535 -4.88373 0
M  V30 1804 H 163.482 0.545692 -0.520323 0
M  V30 1805 H 166.133 0.756929 -1.67161 0
M  V30 1806 H 164.515 3.34541 -2.11892 0
M  V30 1807 H 165.689 1.54623 -4.34083 0
M  V30 1808 H 164.004 1.54525 -3.86666 0
M  V30 1809 H 166.601 4.2547 -3.2385 0
M  V30 1810 H 166.944 3.85418 -1.5735 0
M  V30 1811 H 167.477 2.75546 -2.86913 0
M  V30 1812 H 164.216 2.93468 -5.86137 0
M  V30 1813 H 163.736 3.96936 -4.49668 0
M  V30 1814 H 165.415 3.99335 -5.09059 0
M  V30 1815 N 165.547 1.27147 0.931209 0
M  V30 1816 C 166.794 1.13278 1.67852 0
M  V30 1817 C 167.122 -0.32204 1.91815 0
M  V30 1818 O 166.377 -1.25224 1.50391 0
M  V30 1819 C 166.676 1.8579 3.05314 0
M  V30 1820 C 166.342 3.35657 3.01073 0
M  V30 1821 C 165.004 3.76536 2.99623 0
M  V30 1822 C 167.356 4.31299 2.92627 0
M  V30 1823 C 164.684 5.11426 2.87506 0
M  V30 1824 C 167.036 5.66242 2.82051 0
M  V30 1825 C 165.7 6.06418 2.7895 0
M  V30 1826 H 164.97 0.414515 0.614214 0
M  V30 1827 H 167.617 1.57712 1.08624 0
M  V30 1828 H 165.922 1.33854 3.68226 0
M  V30 1829 H 167.619 1.72491 3.62005 0
M  V30 1830 H 164.209 3.03146 3.02986 0
M  V30 1831 H 168.393 4.00692 2.92848 0
M  V30 1832 H 163.649 5.41705 2.83489 0
M  V30 1833 H 167.823 6.40026 2.74481 0
M  V30 1834 H 165.45 7.10895 2.69318 0
M  V30 1835 N 167.025 -1.13721 1.09112 0
M  V30 1836 C 168.441 -1.36914 0.820174 0
M  V30 1837 C 168.641 -1.93356 -0.567079 0
M  V30 1838 O 167.697 -2.15093 -1.32255 0
M  V30 1839 C 169.01 -2.3235 1.90877 0
M  V30 1840 C 170.558 -2.45973 1.93562 0
M  V30 1841 C 171.033 -3.44714 3.01556 0
M  V30 1842 N 172.524 -3.52263 3.00775 0
M  V30 1843 C 173.259 -4.28536 3.80978 0
M  V30 1844 N 172.755 -5.07991 4.71081 0
M  V30 1845 N 174.548 -4.23804 3.69251 0
M  V30 1846 H 166.699 -0.754348 1.98553 0
M  V30 1847 H 168.962 -0.3944 0.862063 0
M  V30 1848 H 168.668 -1.98027 2.90651 0
M  V30 1849 H 168.542 -3.32332 1.78424 0
M  V30 1850 H 170.929 -2.79584 0.944286 0
M  V30 1851 H 171.01 -1.45926 2.10093 0
M  V30 1852 H 170.654 -3.11835 4.00901 0
M  V30 1853 H 170.584 -4.44558 2.82269 0
M  V30 1854 H 173.075 -2.95567 2.35475 0
M  V30 1855 H 173.388 -5.63487 5.28869 0
M  V30 1856 H 171.733 -5.07235 4.75119 0
M  V30 1857 H 174.924 -3.60806 2.98222 0
M  V30 1858 H 175.097 -4.82995 4.31995 0
M  V30 1859 N 168.503 -0.877838 -1.30888 0
M  V30 1860 C 169.751 -0.491723 -1.96027 0
M  V30 1861 C 170.072 0.960827 -1.69685 0
M  V30 1862 O 169.342 1.67462 -1.01654 0
M  V30 1863 H 167.922 -0.17885 -0.725273 0
M  V30 1864 H 170.584 -1.11935 -1.59551 0
M  V30 1865 H 169.68 -0.656016 -3.05128 0
M  V30 1866 N 169.982 1.44106 -0.638065 0
M  V30 1867 C 170.912 2.33448 0.0494287 0
M  V30 1868 C 171.893 1.48606 0.827672 0
M  V30 1869 O 173.078 1.77308 0.792173 0
M  V30 1870 C 170.208 3.31771 1.02691 0
M  V30 1871 C 169.162 4.26485 0.359823 0
M  V30 1872 C 168.488 5.14729 1.44769 0
M  V30 1873 C 169.788 5.17056 -0.738296 0
M  V30 1874 H 171.482 2.91183 -0.696636 0
M  V30 1875 H 169.028 1.40014 -0.336456 0
M  V30 1876 H 170.981 3.93161 1.51666 0
M  V30 1877 H 169.705 2.7226 1.80395 0
M  V30 1878 H 168.364 3.66437 -0.10934 0
M  V30 1879 H 168.012 4.51566 2.21578 0
M  V30 1880 H 167.712 5.78913 1.00668 0
M  V30 1881 H 169.236 5.78991 1.93911 0
M  V30 1882 H 170.65 5.72342 -0.331354 0
M  V30 1883 H 169.047 5.89879 -1.10286 0
M  V30 1884 H 170.117 4.57652 -1.60258 0
M  V30 1885 N 171.46 0.379036 1.52974 0
M  V30 1886 C 172.69 -0.20649 2.05566 0
M  V30 1887 C 173.098 -1.41906 1.25137 0
M  V30 1888 O 172.441 -1.81421 0.288464 0
M  V30 1889 C 172.503 -0.651086 3.53555 0
M  V30 1890 C 172.167 0.446626 4.54812 0
M  V30 1891 C 173.164 1.30079 5.03364 0
M  V30 1892 C 170.849 0.610719 4.98573 0
M  V30 1893 C 172.843 2.30426 5.94292 0
M  V30 1894 C 170.53 1.61754 5.89304 0
M  V30 1895 C 171.528 2.46274 6.37054 0
M  V30 1896 O 171.216 3.45237 7.25994 0
M  V30 1897 H 170.948 -0.0372381 0.674974 0
M  V30 1898 H 173.502 0.539718 1.98182 0
M  V30 1899 H 171.732 -1.44911 3.58522 0
M  V30 1900 H 173.421 -1.16112 3.88938 0
M  V30 1901 H 174.187 1.18527 4.70294 0
M  V30 1902 H 170.066 -0.0374044 4.60985 0
M  V30 1903 H 173.61 2.96432 6.31485 0
M  V30 1904 H 169.507 1.73348 6.21788 0
M  V30 1905 H 170.275 3.41124 7.44027 0
M  V30 1906 N 172.938 -1.57226 0.108567 0
M  V30 1907 C 174.168 -1.9889 -0.559142 0
M  V30 1908 C 174.576 -0.986889 -1.61422 0
M  V30 1909 O 173.919 0.0298705 -1.83676 0
M  V30 1910 C 173.981 -3.36952 -1.25315 0
M  V30 1911 C 173.645 -4.55679 -0.347248 0
M  V30 1912 C 174.642 -5.18281 0.409996 0
M  V30 1913 C 172.327 -5.0162 -0.261367 0
M  V30 1914 C 174.321 -6.25203 1.24096 0
M  V30 1915 C 172.008 -6.08405 0.573238 0
M  V30 1916 C 173.006 -6.70063 1.32304 0
M  V30 1917 O 172.694 -7.74788 2.14381 0
M  V30 1918 H 172.426 -0.658343 -0.153492 0
M  V30 1919 H 174.98 -2.04532 0.188584 0
M  V30 1920 H 173.21 -3.28032 -2.04773 0
M  V30 1921 H 174.899 -3.62974 -1.81673 0
M  V30 1922 H 175.665 -4.8371 0.353457 0
M  V30 1923 H 171.544 -4.53381 -0.834656 0
M  V30 1924 H 175.088 -6.73259 1.82669 0
M  V30 1925 H 170.985 -6.42406 0.631208 0
M  V30 1926 H 171.753 -7.91837 2.07209 0
M  V30 1927 N 174.416 0.165178 -1.56732 0
M  V30 1928 C 175.664 0.879068 -1.8198 0
M  V30 1929 C 175.985 1.82514 -0.686561 0
M  V30 1930 O 175.255 1.93694 0.293146 0
M  V30 1931 H 173.835 0.327608 -0.671329 0
M  V30 1932 H 176.497 0.163526 -1.94213 0
M  V30 1933 H 175.593 1.45228 -2.76252 0
M  V30 1934 N 175.894 1.51508 0.433938 0
M  V30 1935 C 177.119 1.68443 1.21003 0
M  V30 1936 C 177.544 0.382636 1.84167 0
M  V30 1937 O 176.902 -0.65755 1.68956 0
M  V30 1938 C 176.95 2.80405 2.26727 0
M  V30 1939 O 176.054 2.44245 3.32292 0
M  V30 1940 H 175.395 0.561536 0.354363 0
M  V30 1941 H 177.925 1.9809 0.512024 0
M  V30 1942 H 177.935 3.0459 2.71457 0
M  V30 1943 H 176.61 3.74867 1.80132 0
M  V30 1944 H 175.187 2.30644 2.93015 0
M  V30 1945 N 177.372 -0.689602 1.41712 0
M  V30 1946 C 178.602 -1.47613 1.44548 0
M  V30 1947 C 179.01 -1.89132 0.0509034 0
M  V30 1948 O 178.353 -1.57741 -0.94146 0
M  V30 1949 C 178.415 -2.76596 2.2964 0
M  V30 1950 C 178.079 -2.57245 3.77722 0
M  V30 1951 C 179.076 -2.22804 4.69739 0
M  V30 1952 C 176.761 -2.727 4.2183 0
M  V30 1953 C 178.755 -2.04064 6.03851 0
M  V30 1954 C 176.442 -2.53576 5.56006 0
M  V30 1955 C 177.44 -2.1931 6.46832 0
M  V30 1956 O 177.128 -2.00359 7.78532 0
M  V30 1957 H 176.86 -0.461227 0.494212 0
M  V30 1958 H 179.414 -0.856045 1.86711 0
M  V30 1959 H 177.644 -3.41033 1.82301 0
M  V30 1960 H 179.333 -3.38424 2.24107 0
M  V30 1961 H 180.099 -2.10473 4.36951 0
M  V30 1962 H 175.978 -2.98353 3.51435 0
M  V30 1963 H 179.522 -1.77241 6.74708 0
M  V30 1964 H 175.419 -2.65499 5.88371 0
M  V30 1965 H 176.187 -2.15075 7.89737 0
M  V30 1966 N 178.85 -1.27639 -0.924453 0
M  V30 1967 C 179.797 -1.10644 -2.0255 0
M  V30 1968 C 180.767 -0.00658438 -1.66099 0
M  V30 1969 O 181.952 -0.16952 -1.90045 0
M  V30 1970 C 179.092 -0.76309 -3.36557 0
M  V30 1971 C 178.205 -1.94091 -3.85944 0
M  V30 1972 C 177.34 -1.53914 -5.08413 0
M  V30 1973 C 176.379 -2.68425 -5.50104 0
M  V30 1974 N 175.516 -2.28815 -6.63768 0
M  V30 1975 H 180.356 -2.04858 -2.16419 0
M  V30 1976 H 177.893 -1.01974 -1.06017 0
M  V30 1977 H 179.851 -0.544822 -4.13627 0
M  V30 1978 H 178.481 0.142102 -3.22487 0
M  V30 1979 H 177.533 -2.27162 -3.05125 0
M  V30 1980 H 178.845 -2.7998 -4.12811 0
M  V30 1981 H 177.999 -1.28231 -5.92994 0
M  V30 1982 H 176.738 -0.651391 -4.8333 0
M  V30 1983 H 175.743 -2.94819 -4.64071 0
M  V30 1984 H 176.968 -3.57826 -5.7718 0
M  V30 1985 H 174.914 -1.42495 -6.40337 0
M  V30 1986 H 174.831 -3.08242 -6.90306 0
M  V30 1987 H 176.099 -2.06387 -7.51681 0
M  V30 1988 N 180.328 1.1314 -1.09713 0
M  V30 1989 C 181.291 2.16831 -0.742751 0
M  V30 1990 C 182.291 1.59159 0.229129 0
M  V30 1991 O 183.481 1.74199 0.00693237 0
M  V30 1992 C 180.613 3.40756 -0.0989168 0
M  V30 1993 H 181.806 2.49695 -1.66109 0
M  V30 1994 H 179.359 1.2802 -0.896699 0
M  V30 1995 H 180.094 3.13485 0.830514 0
M  V30 1996 H 179.879 3.83888 -0.798265 0
M  V30 1997 H 181.369 4.17386 0.133524 0
M  V30 1998 N 181.806 0.884767 1.30421 0
M  V30 1999 C 183.217 0.553656 1.78302 0
M  V30 2000 C 183.568 -0.930153 1.7275 0
M  V30 2001 O 182.693 -1.72681 1.30423 0
M  V30 2002 C 183.288 0.998234 3.2376 0
M  V30 2003 C 181.847 0.71854 3.69478 0
M  V30 2004 C 180.994 1.18132 2.50879 0
M  V30 2005 H 183.945 1.06901 1.17294 0
M  V30 2006 H 183.966 0.327118 3.79091 0
M  V30 2007 H 183.478 2.0782 3.27769 0
M  V30 2008 H 181.579 -0.349444 3.70958 0
M  V30 2009 H 181.692 1.30595 4.60958 0
M  V30 2010 H 180.056 0.600669 2.47516 0
M  V30 2011 H 180.839 2.26902 2.57624 0
M  V30 2012 N 183.284 -1.43765 0.645699 0
M  V30 2013 C 184.7 -1.56509 0.312591 0
M  V30 2014 C 184.9 -1.6307 -1.18365 0
M  V30 2015 O 183.956 -1.58167 -1.96824 0
M  V30 2016 C 185.269 -2.82968 1.01733 0
M  V30 2017 C 186.817 -2.96701 0.996865 0
M  V30 2018 C 187.292 -4.25982 1.68236 0
M  V30 2019 N 188.783 -4.32829 1.64964 0
M  V30 2020 C 189.518 -5.31613 2.14885 0
M  V30 2021 N 189.014 -6.36718 2.73061 0
M  V30 2022 N 190.807 -5.23217 2.05428 0
M  V30 2023 H 182.958 -1.3775 1.61675 0
M  V30 2024 H 185.221 -0.661067 0.679481 0
M  V30 2025 H 184.927 -2.84156 2.0724 0
M  V30 2026 H 184.801 -3.72957 0.564177 0
M  V30 2027 H 187.188 -2.95058 -0.0497719 0
M  V30 2028 H 187.269 -2.08022 1.48865 0
M  V30 2029 H 186.913 -4.28386 2.72852 0
M  V30 2030 H 186.843 -5.13545 1.16529 0
M  V30 2031 H 189.334 -3.57493 1.22503 0
M  V30 2032 H 189.647 -7.08401 3.08848 0
M  V30 2033 H 187.992 -6.37362 2.77118 0
M  V30 2034 H 191.183 -4.40019 1.59689 0
M  V30 2035 H 191.356 -6.00045 2.44643 0
M  V30 2036 N 184.763 -0.387143 -1.52771 0
M  V30 2037 C 185.673 0.456442 -2.30117 0
M  V30 2038 C 186.689 1.07342 -1.36944 0
M  V30 2039 O 187.865 1.07971 -1.70013 0
M  V30 2040 C 184.93 1.56957 -3.09136 0
M  V30 2041 C 183.991 0.977916 -4.18014 0
M  V30 2042 C 183.224 2.038 -4.93256 0
M  V30 2043 O 183.447 3.25271 -4.68567 0
M  V30 2044 O 182.381 1.6565 -5.78657 0
M  V30 2045 H 186.207 -0.17359 -3.03203 0
M  V30 2046 H 183.792 -0.150919 -1.48636 0
M  V30 2047 H 185.674 2.21628 -3.58412 0
M  V30 2048 H 184.349 2.18461 -2.38865 0
M  V30 2049 H 183.256 0.294525 -3.72939 0
M  V30 2050 H 184.589 0.407128 -4.90513 0
M  V30 2051 N 186.241 1.57166 -0.116904 0
M  V30 2052 C 187.487 1.95412 0.542405 0
M  V30 2053 C 187.82 1.00019 1.66463 0
M  V30 2054 O 187.095 0.0370346 1.94465 0
M  V30 2055 C 187.378 3.43615 1.07708 0
M  V30 2056 C 187.231 4.49781 -0.0415868 0
M  V30 2057 C 188.55 3.93616 1.96861 0
M  V30 2058 H 185.669 0.710543 0.195696 0
M  V30 2059 H 188.311 1.89027 -0.192038 0
M  V30 2060 H 186.461 3.49187 1.70296 0
M  V30 2061 H 188.133 4.56308 -0.676793 0
M  V30 2062 H 186.376 4.28033 -0.705019 0
M  V30 2063 H 187.047 5.50733 0.373717 0
M  V30 2064 H 189.523 3.90335 1.44146 0
M  V30 2065 H 188.399 4.97838 2.3119 0
M  V30 2066 H 188.66 3.34188 2.89432 0
M  V30 2067 N 187.719 -0.156864 1.56817 0
M  V30 2068 C 188.947 -0.886316 1.86955 0
M  V30 2069 C 189.362 -1.75185 0.703975 0
M  V30 2070 O 188.719 -1.79555 -0.326552 0
M  V30 2071 C 188.77 -1.75117 3.16253 0
M  V30 2072 O 188.491 -0.920537 4.2832 0
M  V30 2073 C 189.992 -2.58905 3.59837 0
M  V30 2074 H 187.212 -0.25678 0.619923 0
M  V30 2075 H 189.756 -0.152615 2.0393 0
M  V30 2076 H 187.911 -2.43805 3.01062 0
M  V30 2077 H 188.325 -1.51337 5.02192 0
M  V30 2078 H 189.799 -3.1518 4.53172 0
M  V30 2079 H 190.276 -3.34472 2.84649 0
M  V30 2080 H 190.882 -1.95526 3.7769 0
M  V30 2081 N 189.197 -1.51736 -0.425897 0
M  V30 2082 C 190.443 -1.66174 -1.17294 0
M  V30 2083 C 190.798 -0.37876 -1.88635 0
M  V30 2084 O 190.091 0.626021 -1.81084 0
M  V30 2085 C 190.285 -2.81103 -2.20717 0
M  V30 2086 C 190.114 -4.20453 -1.59529 0
M  V30 2087 C 188.884 -4.86225 -1.37525 0
M  V30 2088 C 191.082 -5.03146 -1.06528 0
M  V30 2089 N 189.064 -6.09657 -0.720537 0
M  V30 2090 C 190.435 -6.17674 -0.536506 0
M  V30 2091 C 192.49 -4.88594 -0.958127 0
M  V30 2092 C 191.193 -7.19245 0.0888917 0
M  V30 2093 C 193.219 -5.90383 -0.346608 0
M  V30 2094 C 192.581 -7.04191 0.171564 0
M  V30 2095 H 188.68 -0.661871 -0.416475 0
M  V30 2096 H 191.264 -1.88997 -0.467801 0
M  V30 2097 H 189.435 -2.59924 -2.88607 0
M  V30 2098 H 191.167 -2.84662 -2.87663 0
M  V30 2099 H 187.922 -4.44293 -1.64015 0
M  V30 2100 H 188.346 -6.75756 -0.410292 0
M  V30 2101 H 192.988 -4.0085 -1.34459 0
M  V30 2102 H 190.706 -8.06628 0.48746 0
M  V30 2103 H 194.292 -5.81194 -0.265451 0
M  V30 2104 H 193.172 -7.81606 0.637309 0
M  V30 2105 N 190.675 0.682077 -1.42076 0
M  V30 2106 C 191.924 1.43786 -1.41451 0
M  V30 2107 C 192.237 1.95574 -0.0317074 0
M  V30 2108 O 193.443 2.71326 0.0971462 0
M  V30 2109 C 191.899 2.60071 -2.48779 0
M  V30 2110 C 191.507 2.15013 -3.93031 0
M  V30 2111 C 193.251 3.37626 -2.57311 0
M  V30 2112 C 191.158 3.28336 -4.91883 0
M  V30 2113 H 190.088 0.540143 -0.526082 0
M  V30 2114 H 192.739 0.739157 -1.67955 0
M  V30 2115 H 191.121 3.32275 -2.15429 0
M  V30 2116 H 192.295 1.5001 -4.35699 0
M  V30 2117 H 190.61 1.50416 -3.88284 0
M  V30 2118 H 193.207 4.22012 -3.28345 0
M  V30 2119 H 193.55 3.83727 -1.61429 0
M  V30 2120 H 194.083 2.72488 -2.89819 0
M  V30 2121 H 190.822 2.87234 -5.89217 0
M  V30 2122 H 190.342 3.92145 -4.53853 0
M  V30 2123 H 192.021 3.93913 -5.13265 0
M  V30 2124 N 192.153 1.28127 0.917671 0
M  V30 2125 C 193.399 1.15223 1.66888 0
M  V30 2126 C 193.732 -0.299293 1.9188 0
M  V30 2127 O 193.007 -1.21805 1.51637 0
M  V30 2128 C 193.29 1.94706 3.02922 0
M  V30 2129 C 193.143 3.47898 2.85109 0
M  V30 2130 C 194.462 1.75939 4.03402 0
M  V30 2131 H 191.581 0.419946 0.605652 0
M  V30 2132 H 194.223 1.57398 1.06423 0
M  V30 2133 H 192.373 1.58864 3.54534 0
M  V30 2134 H 194.045 3.93624 2.40537 0
M  V30 2135 H 192.288 3.7373 2.20246 0
M  V30 2136 H 192.959 3.98765 3.81694 0
M  V30 2137 H 195.435 2.07209 3.60837 0
M  V30 2138 H 194.311 2.33931 4.96556 0
M  V30 2139 H 194.572 0.709877 4.36364 0
M  V30 2140 N 193.631 -1.12557 1.10312 0
M  V30 2141 C 194.879 -1.83675 0.843091 0
M  V30 2142 C 195.2 -1.84435 -0.633131 0
M  V30 2143 O 194.47 -1.30657 -1.45964 0
M  V30 2144 H 193.05 -0.680138 0.308904 0
M  V30 2145 H 195.712 -1.36301 1.39313 0
M  V30 2146 H 194.808 -2.87908 1.2048 0
M  V30 2147 N 195.109 -0.891671 -1.2995 0
M  V30 2148 C 196.042 -0.307994 -2.26112 0
M  V30 2149 C 197.02 0.575262 -1.52084 0
M  V30 2150 O 198.204 0.523864 -1.81074 0
M  V30 2151 C 195.331 0.561734 -3.34009 0
M  V30 2152 C 194.377 -0.253107 -4.25748 0
M  V30 2153 S 195.21 -1.64572 -5.09584 0
M  V30 2154 C 196.366 -0.782699 -6.20987 0
M  V30 2155 H 196.599 -1.12309 -2.75271 0
M  V30 2156 H 194.132 -0.691509 -1.38049 0
M  V30 2157 H 196.09 1.05777 -3.96638 0
M  V30 2158 H 194.751 1.35099 -2.83561 0
M  V30 2159 H 193.944 0.410908 -5.02322 0
M  V30 2160 H 193.546 -0.682004 -3.67729 0
M  V30 2161 H 195.838 -0.00257476 -6.775 0
M  V30 2162 H 196.781 -1.52026 -6.91588 0
M  V30 2163 H 197.189 -0.340638 -5.63471 0
M  V30 2164 N 196.587 1.43421 -0.653314 0
M  V30 2165 C 197.517 2.33487 0.0246656 0
M  V30 2166 C 198.498 1.49475 0.811863 0
M  V30 2167 O 199.683 1.78139 0.773322 0
M  V30 2168 C 196.813 3.32841 0.99166 0
M  V30 2169 C 195.767 4.26842 0.314568 0
M  V30 2170 C 195.093 5.16236 1.39302 0
M  V30 2171 C 196.393 5.16243 -0.793095 0
M  V30 2172 H 198.087 2.90427 -0.727481 0
M  V30 2173 H 195.633 1.39649 -0.351287 0
M  V30 2174 H 197.586 3.94747 1.47487 0
M  V30 2175 H 196.31 2.74158 1.77497 0
M  V30 2176 H 194.969 3.663 -0.148199 0
M  V30 2177 H 194.617 4.53891 2.16776 0
M  V30 2178 H 194.317 5.79948 0.945223 0
M  V30 2179 H 195.841 5.81015 1.87759 0
M  V30 2180 H 197.255 5.71958 -0.392039 0
M  V30 2181 H 195.652 5.88676 -1.16536 0
M  V30 2182 H 196.722 4.55927 -1.65103 0
M  V30 2183 N 198.065 0.39524 1.52563 0
M  V30 2184 C 199.314 -0.186321 2.00838 0
M  V30 2185 C 199.627 -1.47402 1.28577 0
M  V30 2186 O 200.833 -2.13599 1.67593 0
M  V30 2187 C 199.289 -0.382595 3.57861 0
M  V30 2188 C 198.897 0.892202 4.39026 0
M  V30 2189 C 200.641 -0.9202 4.14406 0
M  V30 2190 C 198.548 0.66388 5.87662 0
M  V30 2191 H 197.478 -0.0734041 0.750418 0
M  V30 2192 H 200.129 0.518552 1.76021 0
M  V30 2193 H 198.511 -1.14946 3.7895 0
M  V30 2194 H 199.685 1.66414 4.29701 0
M  V30 2195 H 198 1.35519 3.9373 0
M  V30 2196 H 200.597 -1.10683 5.23119 0
M  V30 2197 H 200.94 -1.89096 3.70875 0
M  V30 2198 H 201.473 -0.212751 3.97231 0
M  V30 2199 H 198.212 1.6058 6.35527 0
M  V30 2200 H 197.732 -0.0690193 5.9976 0
M  V30 2201 H 199.411 0.300699 6.46301 0
M  V30 2202 N 199.544 -1.57102 0.125237 0
M  V30 2203 C 200.774 -1.99472 -0.538015 0
M  V30 2204 C 201.182 -1.00395 -1.60366 0
M  V30 2205 O 200.525 0.0103875 -1.83697 0
M  V30 2206 C 200.587 -3.38262 -1.21734 0
M  V30 2207 C 200.251 -4.56021 -0.298897 0
M  V30 2208 C 201.248 -5.17817 0.464943 0
M  V30 2209 C 198.933 -5.01869 -0.208149 0
M  V30 2210 C 200.927 -6.23852 1.3072 0
M  V30 2211 C 198.614 -6.07763 0.637736 0
M  V30 2212 C 199.612 -6.68622 1.39403 0
M  V30 2213 O 199.3 -7.7247 2.22586 0
M  V30 2214 H 199.032 -0.659934 -0.146501 0
M  V30 2215 H 201.586 -2.04321 0.210267 0
M  V30 2216 H 199.816 -3.30185 -2.01282 0
M  V30 2217 H 201.505 -3.6488 -1.77813 0
M  V30 2218 H 202.271 -4.83308 0.404741 0
M  V30 2219 H 198.15 -4.54241 -0.786522 0
M  V30 2220 H 201.694 -6.71284 1.898 0
M  V30 2221 H 197.591 -6.41701 0.699309 0
M  V30 2222 H 198.359 -7.89595 2.15596 0
M  V30 2223 N 201.022 0.148545 -1.56898 0
M  V30 2224 C 201.952 1.18524 -2.01182 0
M  V30 2225 C 202.933 1.4489 -0.891123 0
M  V30 2226 O 204.118 1.55836 -1.15882 0
M  V30 2227 C 201.248 2.51879 -2.39112 0
M  V30 2228 C 200.202 2.40038 -3.54353 0
M  V30 2229 C 199.528 3.78089 -3.78091 0
M  V30 2230 C 200.828 1.88577 -4.87069 0
M  V30 2231 H 202.522 0.817029 -2.88036 0
M  V30 2232 H 200.068 0.391575 -1.38574 0
M  V30 2233 H 202.021 3.24627 -2.68692 0
M  V30 2234 H 200.745 2.90532 -1.49193 0
M  V30 2235 H 199.404 1.69742 -3.24936 0
M  V30 2236 H 199.052 4.14175 -2.85426 0
M  V30 2237 H 198.752 3.71028 -4.55645 0
M  V30 2238 H 200.276 4.52387 -4.10095 0
M  V30 2239 H 201.69 2.51117 -5.15377 0
M  V30 2240 H 200.087 1.9241 -5.68417 0
M  V30 2241 H 201.157 0.84136 -4.77545 0
M  V30 2242 N 202.5 1.5196 0.417844 0
M  V30 2243 C 203.463 1.74065 1.49111 0
M  V30 2244 C 204.463 0.610537 1.48758 0
M  V30 2245 O 205.653 0.87832 1.50437 0
M  V30 2246 C 202.785 1.81502 2.88565 0
M  V30 2247 H 203.978 2.69869 1.30807 0
M  V30 2248 H 201.531 1.42244 0.647785 0
M  V30 2249 H 202.266 0.875813 3.1225 0
M  V30 2250 H 202.051 2.63651 2.90225 0
M  V30 2251 H 203.541 2.00376 3.66387 0
M  V30 2252 N 203.978 -0.674533 1.42435 0
M  V30 2253 C 204.911 -1.79924 1.40366 0
M  V30 2254 C 205.889 -1.60378 0.267899 0
M  V30 2255 O 207.073 -1.82847 0.458159 0
M  V30 2256 C 204.2 -3.16927 1.19478 0
M  V30 2257 C 203.246 -3.55221 2.36051 0
M  V30 2258 S 204.079 -3.5762 3.98583 0
M  V30 2259 C 205.235 -4.97315 3.80038 0
M  V30 2260 H 205.468 -1.81405 2.35541 0
M  V30 2261 H 203.001 -0.845221 1.29211 0
M  V30 2262 H 204.959 -3.96007 1.08114 0
M  V30 2263 H 203.62 -3.13031 0.258883 0
M  V30 2264 H 202.813 -4.54804 2.17185 0
M  V30 2265 H 202.415 -2.83502 2.43932 0
M  V30 2266 H 204.707 -5.85401 3.41045 0
M  V30 2267 H 205.65 -5.21228 4.79298 0
M  V30 2268 H 206.058 -4.69845 3.12899 0
M  V30 2269 N 205.456 -1.28612 -0.910864 0
M  V30 2270 C 206.389 -1.07109 -2.01502 0
M  V30 2271 C 207.367 0.013706 -1.62594 0
M  V30 2272 O 208.551 -0.134796 -1.88017 0
M  V30 2273 C 205.678 -0.628255 -3.32822 0
M  V30 2274 C 204.724 -1.71012 -3.90714 0
M  V30 2275 S 205.557 -3.30676 -4.21205 0
M  V30 2276 C 206.713 -2.88234 -5.55583 0
M  V30 2277 H 206.946 -2.00591 -2.19432 0
M  V30 2278 H 204.479 -1.12633 -1.05609 0
M  V30 2279 H 206.437 -0.37946 -4.08742 0
M  V30 2280 H 205.098 0.28678 -3.12788 0
M  V30 2281 H 204.291 -1.35195 -4.85529 0
M  V30 2282 H 203.893 -1.91186 -3.21441 0
M  V30 2283 H 206.185 -2.34584 -6.35591 0
M  V30 2284 H 207.128 -3.81857 -5.96314 0
M  V30 2285 H 207.536 -2.26862 -5.16908 0
M  V30 2286 N 206.934 1.1197 -1.10907 0
M  V30 2287 C 207.897 2.16031 -0.765707 0
M  V30 2288 C 208.897 1.59393 0.212235 0
M  V30 2289 O 210.087 1.74196 -0.0115441 0
M  V30 2290 C 207.219 3.40632 -0.135053 0
M  V30 2291 H 208.412 2.47919 -1.68748 0
M  V30 2292 H 205.965 1.27061 -0.910226 0
M  V30 2293 H 206.7 3.14348 0.797218 0
M  V30 2294 H 206.485 3.8302 -0.838937 0
M  V30 2295 H 207.975 4.17505 0.0892469 0
M  V30 2296 N 208.412 0.89855 1.29475 0
M  V30 2297 C 209.64 0.539261 1.99749 0
M  V30 2298 C 210.055 -0.875716 1.67262 0
M  V30 2299 O 209.412 -1.57786 0.917049 0
M  V30 2300 C 209.463 0.72061 3.54245 0
M  V30 2301 O 209.184 2.07989 3.8558 0
M  V30 2302 C 210.685 0.366118 4.41786 0
M  V30 2303 H 207.905 0.207047 0.638258 0
M  V30 2304 H 210.449 1.20758 1.65039 0
M  V30 2305 H 208.604 0.0994862 3.87272 0
M  V30 2306 H 209.018 2.10841 4.80257 0
M  V30 2307 H 210.492 0.543848 5.49314 0
M  V30 2308 H 210.969 -0.696763 4.33638 0
M  V30 2309 H 211.575 0.964135 4.14228 0
M  V30 2310 N 209.89 -1.43072 0.660911 0
M  V30 2311 C 210.853 -2.29194 -0.0166406 0
M  V30 2312 C 211.853 -1.42609 -0.742912 0
M  V30 2313 O 213.043 -1.64155 -0.583004 0
M  V30 2314 C 210.175 -3.24831 -1.0343 0
M  V30 2315 H 211.368 -2.90596 0.741208 0
M  V30 2316 H 208.921 -1.5048 0.422532 0
M  V30 2317 H 209.656 -2.68339 -1.82111 0
M  V30 2318 H 209.441 -3.88676 -0.517082 0
M  V30 2319 H 210.931 -3.89451 -1.50723 0
M  V30 2320 N 211.368 -0.403325 -1.52352 0
M  V30 2321 C 212.615 0.174347 -2.01748 0
M  V30 2322 C 212.943 1.45636 -1.2892 0
M  V30 2323 O 212.198 1.9193 -0.382258 0
M  V30 2324 C 212.497 0.474665 -3.54234 0
M  V30 2325 C 212.163 -0.717458 -4.45155 0
M  V30 2326 C 210.825 -1.04447 -4.69728 0
M  V30 2327 C 213.177 -1.51432 -4.98716 0
M  V30 2328 C 210.505 -2.16963 -5.45109 0
M  V30 2329 C 212.857 -2.6302 -5.75329 0
M  V30 2330 C 211.521 -2.96213 -5.98175 0
M  V30 2331 H 210.791 0.0637981 -0.738248 0
M  V30 2332 H 213.438 -0.543553 -1.83624 0
M  V30 2333 H 211.743 1.27406 -3.70506 0
M  V30 2334 H 213.44 0.934496 -3.89959 0
M  V30 2335 H 210.03 -0.452596 -4.26204 0
M  V30 2336 H 214.214 -1.27491 -4.79645 0
M  V30 2337 H 209.47 -2.43034 -5.61021 0
M  V30 2338 H 213.644 -3.25158 -6.15829 0
M  V30 2339 H 211.271 -3.83516 -6.56368 0
M  V30 2340 N 212.846 1.57033 -0.133567 0
M  V30 2341 C 213.779 2.11824 0.848872 0
M  V30 2342 C 214.757 1.03833 1.2513 0
M  V30 2343 O 215.941 1.31579 1.34978 0
M  V30 2344 C 213.068 2.62692 2.138 0
M  V30 2345 C 212.114 3.82705 1.88253 0
M  V30 2346 S 212.947 5.2438 1.08563 0
M  V30 2347 C 214.103 5.78627 2.38624 0
M  V30 2348 H 214.336 2.94824 0.38289 0
M  V30 2349 H 211.869 1.5419 0.0804796 0
M  V30 2350 H 213.827 2.92652 2.87863 0
M  V30 2351 H 212.488 1.79847 2.57515 0
M  V30 2352 H 211.681 4.16496 2.83809 0
M  V30 2353 H 211.283 3.53437 1.22305 0
M  V30 2354 H 213.575 5.8924 3.34369 0
M  V30 2355 H 214.518 6.76443 2.09358 0
M  V30 2356 H 214.926 5.06783 2.48658 0
M  V30 2357 N 214.325 -0.140222 1.56975 0
M  V30 2358 C 215.573 -0.850005 1.83356 0
M  V30 2359 C 215.894 -1.81399 0.71551 0
M  V30 2360 O 215.164 -1.94136 -0.262294 0
M  V30 2361 H 213.744 -0.316886 0.676456 0
M  V30 2362 H 216.406 -0.132608 1.94448 0
M  V30 2363 H 215.502 -1.40814 2.78528 0
M  V30 2364 N 215.803 -1.52179 -0.40978 0
M  V30 2365 C 217.033 -1.69807 -1.17682 0
M  V30 2366 C 217.441 -0.406908 -1.84773 0
M  V30 2367 O 216.784 0.626863 -1.72673 0
M  V30 2368 C 216.846 -2.77712 -2.2829 0
M  V30 2369 C 216.51 -4.19481 -1.81341 0
M  V30 2370 C 217.507 -5.03345 -1.30154 0
M  V30 2371 C 215.192 -4.65713 -1.88194 0
M  V30 2372 C 217.186 -6.31511 -0.864416 0
M  V30 2373 C 214.873 -5.93869 -1.44093 0
M  V30 2374 C 215.871 -6.76597 -0.933023 0
M  V30 2375 O 215.559 -8.02354 -0.49838 0
M  V30 2376 H 215.291 -0.572372 -0.359675 0
M  V30 2377 H 217.845 -1.99511 -0.488311 0
M  V30 2378 H 216.075 -2.43383 -3.00502 0
M  V30 2379 H 217.764 -2.83946 -2.90051 0
M  V30 2380 H 218.53 -4.68819 -1.24232 0
M  V30 2381 H 214.409 -4.01424 -2.26671 0
M  V30 2382 H 217.953 -6.96033 -0.467286 0
M  V30 2383 H 213.85 -6.27903 -1.49694 0
M  V30 2384 H 214.618 -8.16135 -0.621747 0
M  V30 2385 N 217.281 0.66697 -1.42791 0
M  V30 2386 C 218.527 1.4291 -1.43891 0
M  V30 2387 C 218.86 1.94114 -0.0578972 0
M  V30 2388 O 218.135 1.71414 0.91911 0
M  V30 2389 C 218.418 2.62049 -2.46987 0
M  V30 2390 C 218.271 2.16426 -3.94309 0
M  V30 2391 C 219.59 3.64266 -2.46978 0
M  V30 2392 H 216.709 0.518306 -0.523954 0
M  V30 2393 H 219.351 0.757321 -1.74255 0
M  V30 2394 H 217.501 3.19361 -2.21225 0
M  V30 2395 H 219.173 1.64221 -4.31079 0
M  V30 2396 H 217.416 1.47925 -4.078 0
M  V30 2397 H 218.087 3.02038 -4.62036 0
M  V30 2398 H 220.563 3.16686 -2.69906 0
M  V30 2399 H 219.439 4.45196 -3.21079 0
M  V30 2400 H 219.7 4.15927 -1.49857 0
M  V30 2401 N 218.759 1.29093 0.90403 0
M  V30 2402 C 219.689 1.16401 2.02418 0
M  V30 2403 C 220.67 0.0593085 1.69997 0
M  V30 2404 O 221.855 0.238021 1.92736 0
M  V30 2405 C 218.985 0.835233 3.37107 0
M  V30 2406 C 217.939 1.89578 3.83724 0
M  V30 2407 C 217.265 1.42041 5.15489 0
M  V30 2408 C 218.565 3.30394 4.04521 0
M  V30 2409 H 220.259 2.10109 2.13295 0
M  V30 2410 H 217.805 1.01157 1.02486 0
M  V30 2411 H 219.758 0.733169 4.14973 0
M  V30 2412 H 218.482 -0.137543 3.2631 0
M  V30 2413 H 217.141 1.98715 3.08071 0
M  V30 2414 H 216.789 0.436426 5.01103 0
M  V30 2415 H 216.489 2.12964 5.4765 0
M  V30 2416 H 218.013 1.33176 5.959 0
M  V30 2417 H 219.427 3.24123 4.72882 0
M  V30 2418 H 217.824 3.99237 4.48029 0
M  V30 2419 H 218.894 3.73692 3.09002 0
M  V30 2420 N 220.237 -1.11381 1.11499 0
M  V30 2421 C 221.648 -1.6465 0.880191 0
M  V30 2422 C 221.999 -1.87199 -0.587434 0
M  V30 2423 O 221.124 -1.60667 -1.44966 0
M  V30 2424 C 221.719 -2.99105 1.59128 0
M  V30 2425 C 220.278 -3.49279 1.40289 0
M  V30 2426 C 219.425 -2.24077 1.63354 0
M  V30 2427 H 222.376 -0.950123 1.27116 0
M  V30 2428 H 222.397 -3.66107 1.03664 0
M  V30 2429 H 221.909 -2.82661 2.65941 0
M  V30 2430 H 220.01 -3.70887 0.356888 0
M  V30 2431 H 220.123 -4.2803 2.15238 0
M  V30 2432 H 218.487 -2.31733 1.05698 0
M  V30 2433 H 219.27 -2.10175 2.71443 0
M  V30 2434 N 221.715 -0.905404 -1.28997 0
M  V30 2435 C 222.961 -0.544465 -1.95977 0
M  V30 2436 C 223.316 0.90041 -1.70031 0
M  V30 2437 O 222.609 1.63064 -1.00601 0
M  V30 2438 C 222.803 -0.779906 -3.48787 0
M  V30 2439 C 222.632 -2.24612 -3.89589 0
M  V30 2440 C 221.402 -2.89464 -4.14172 0
M  V30 2441 C 223.6 -3.22182 -4.00878 0
M  V30 2442 N 221.582 -4.26469 -4.41585 0
M  V30 2443 C 222.953 -4.44323 -4.32409 0
M  V30 2444 C 225.008 -3.17694 -3.83373 0
M  V30 2445 C 223.711 -5.62546 -4.48258 0
M  V30 2446 C 225.737 -4.35208 -4.00435 0
M  V30 2447 C 225.099 -5.56121 -4.3233 0
M  V30 2448 H 221.198 -0.248948 -0.741316 0
M  V30 2449 H 223.782 -1.1674 -1.5582 0
M  V30 2450 H 221.953 -0.186308 -3.87953 0
M  V30 2451 H 223.685 -0.383833 -4.02876 0
M  V30 2452 H 220.44 -2.40232 -4.08149 0
M  V30 2453 H 220.864 -4.97283 -4.5939 0
M  V30 2454 H 225.506 -2.25297 -3.57773 0
M  V30 2455 H 223.224 -6.55429 -4.72692 0
M  V30 2456 H 226.81 -4.33228 -3.88336 0
M  V30 2457 H 225.69 -6.45537 -4.45255 0
M  V30 2458 N 223.193 1.4272 -0.668489 0
M  V30 2459 C 224.441 2.01226 -0.187769 0
M  V30 2460 C 224.762 1.53092 1.2078 0
M  V30 2461 O 224.032 0.74993 1.80977 0
M  V30 2462 H 222.612 0.744041 -0.0664272 0
M  V30 2463 H 225.274 1.74723 -0.863583 0
M  V30 2464 H 224.37 3.11556 -0.184166 0
M  V30 2465 N 224.671 0.411399 1.52136 0
M  V30 2466 C 225.603 -0.448386 2.24771 0
M  V30 2467 C 226.616 -1.00828 1.27818 0
M  V30 2468 O 227.805 -0.906841 1.53749 0
M  V30 2469 C 224.905 -1.63636 2.96777 0
M  V30 2470 C 224.078 -1.19995 4.20618 0
M  V30 2471 C 223.137 -2.25509 4.75428 0
M  V30 2472 O 222.163 -1.86007 5.3795 0
M  V30 2473 N 223.365 -3.577 4.57199 0
M  V30 2474 H 226.13 0.174025 2.99194 0
M  V30 2475 H 223.691 0.238897 1.60128 0
M  V30 2476 H 225.683 -2.33793 3.30338 0
M  V30 2477 H 224.253 -2.16465 2.25526 0
M  V30 2478 H 223.473 -0.326421 3.92846 0
M  V30 2479 H 224.761 -0.885365 5.01038 0
M  V30 2480 H 224.159 -3.92543 4.07341 0
M  V30 2481 H 222.716 -4.23827 4.95191 0
M  V30 2482 N 226.149 -1.5696 0.141893 0
M  V30 2483 C 227.082 -2.12271 -0.837627 0
M  V30 2484 C 228.06 -1.04495 -1.24578 0
M  V30 2485 O 229.244 -1.32293 -1.34278 0
M  V30 2486 C 226.371 -2.63822 -2.12404 0
M  V30 2487 C 225.417 -3.83698 -1.86221 0
M  V30 2488 S 226.25 -5.24948 -1.05781 0
M  V30 2489 C 227.406 -5.79884 -2.35552 0
M  V30 2490 H 227.639 -2.95023 -0.367249 0
M  V30 2491 H 225.172 -1.54231 -0.0723014 0
M  V30 2492 H 227.13 -2.94175 -2.86307 0
M  V30 2493 H 225.791 -1.8121 -2.56557 0
M  V30 2494 H 224.984 -4.17995 -2.81596 0
M  V30 2495 H 224.586 -3.5408 -1.20429 0
M  V30 2496 H 226.878 -5.91005 -3.31239 0
M  V30 2497 H 227.821 -6.77544 -2.05767 0
M  V30 2498 H 228.229 -5.08095 -2.45967 0
M  V30 2499 N 227.627 0.131896 -1.57047 0
M  V30 2500 C 228.852 0.860418 -1.8871 0
M  V30 2501 C 229.277 1.73251 -0.73251 0
M  V30 2502 O 228.635 1.785 0.317429 0
M  V30 2503 C 228.683 1.68047 -3.19049 0
M  V30 2504 O 227.787 2.7862 -3.04047 0
M  V30 2505 H 227.128 0.238743 -0.619595 0
M  V30 2506 H 229.658 0.118169 -2.04258 0
M  V30 2507 H 229.668 2.07238 -3.51449 0
M  V30 2508 H 228.343 1.04018 -4.02682 0
M  V30 2509 H 226.92 2.42726 -2.83088 0
M  V30 2510 N 229.106 1.52395 0.401703 0
M  V30 2511 C 230.353 1.66817 1.14796 0
M  V30 2512 C 230.681 0.401772 1.90305 0
M  V30 2513 O 229.936 -0.615487 1.85769 0
M  V30 2514 C 230.235 2.84578 2.16217 0
M  V30 2515 C 229.901 4.22513 1.5746 0
M  V30 2516 C 228.563 4.60029 1.41161 0
M  V30 2517 C 230.915 5.0844 1.14622 0
M  V30 2518 C 228.243 5.81144 0.80552 0
M  V30 2519 C 230.595 6.30167 0.55428 0
M  V30 2520 C 229.259 6.66426 0.378482 0
M  V30 2521 H 228.529 0.610428 0.420069 0
M  V30 2522 H 231.176 1.86512 0.434212 0
M  V30 2523 H 229.481 2.59248 2.93764 0
M  V30 2524 H 231.178 2.92933 2.73845 0
M  V30 2525 H 227.768 3.92953 1.71132 0
M  V30 2526 H 231.952 4.80034 1.26021 0
M  V30 2527 H 227.208 6.07855 0.657399 0
M  V30 2528 H 231.382 6.96071 0.213983 0
M  V30 2529 H 229.009 7.60143 -0.0932606 0
M  V30 2530 N 230.584 -0.659388 1.43143 0
M  V30 2531 C 231.83 -1.41984 1.45644 0
M  V30 2532 C 232.185 -1.92245 0.0771718 0
M  V30 2533 O 231.478 -1.68976 -0.903205 0
M  V30 2534 C 231.672 -2.62206 2.42864 0
M  V30 2535 C 231.501 -2.23711 3.90107 0
M  V30 2536 C 230.271 -2.12332 4.58523 0
M  V30 2537 C 232.469 -1.84384 4.80112 0
M  V30 2538 N 230.451 -1.67102 5.9072 0
M  V30 2539 C 231.822 -1.5019 6.01534 0
M  V30 2540 C 233.877 -1.71512 4.67427 0
M  V30 2541 C 232.58 -1.04414 7.11681 0
M  V30 2542 C 234.606 -1.27142 5.77572 0
M  V30 2543 C 233.968 -0.938808 6.98116 0
M  V30 2544 H 230.067 -0.515448 0.588079 0
M  V30 2545 H 232.651 -0.759409 1.79279 0
M  V30 2546 H 230.822 -3.25917 2.11265 0
M  V30 2547 H 232.554 -3.28877 2.35843 0
M  V30 2548 H 229.309 -2.31893 4.12944 0
M  V30 2549 H 229.733 -1.46866 6.60878 0
M  V30 2550 H 234.375 -1.95868 3.74694 0
M  V30 2551 H 232.093 -0.788061 8.04248 0
M  V30 2552 H 235.679 -1.17681 5.69774 0
M  V30 2553 H 234.559 -0.6007 7.81896 0
M  V30 2554 N 232.062 -1.29571 -0.897171 0
M  V30 2555 C 233.31 -1.17456 -1.64464 0
M  V30 2556 C 233.631 0.273698 -1.9307 0
M  V30 2557 O 232.901 1.18684 -1.55855 0
M  V30 2558 H 231.481 -0.431706 -0.609622 0
M  V30 2559 H 234.143 -1.62531 -1.07562 0
M  V30 2560 H 233.239 -1.72648 -2.59998 0
M  V30 2561 N 233.54 1.10788 -1.12088 0
M  V30 2562 C 234.503 2.15207 -0.788577 0
M  V30 2563 C 235.503 1.59609 0.195317 0
M  V30 2564 O 236.693 1.74174 -0.0300193 0
M  V30 2565 C 233.825 3.4047 -0.171174 0
M  V30 2566 H 235.018 2.46116 -1.71368 0
M  V30 2567 H 232.571 1.26089 -0.923652 0
M  V30 2568 H 233.306 3.15176 0.763832 0
M  V30 2569 H 233.091 3.82109 -0.879514 0
M  V30 2570 H 234.581 4.17576 0.04496 0
M  V30 2571 N 235.018 0.912232 1.28515 0
M  V30 2572 C 236.246 0.560416 1.99166 0
M  V30 2573 C 236.661 -0.857927 1.68182 0
M  V30 2574 O 236.018 -1.56805 0.933733 0
M  V30 2575 C 236.069 0.758142 3.53461 0
M  V30 2576 O 235.79 2.12067 3.83352 0
M  V30 2577 C 237.291 0.412954 4.41372 0
M  V30 2578 H 234.511 0.213805 0.636026 0
M  V30 2579 H 237.055 1.22502 1.63749 0
M  V30 2580 H 235.21 0.140556 3.87145 0
M  V30 2581 H 235.624 2.15923 4.77993 0
M  V30 2582 H 237.098 0.60208 5.48707 0
M  V30 2583 H 237.575 -0.65073 4.34353 0
M  V30 2584 H 238.181 1.00802 4.13182 0
M  V30 2585 N 236.496 -1.42363 0.676048 0
M  V30 2586 C 237.742 -2.0182 0.199125 0
M  V30 2587 C 238.075 -1.53339 -1.19168 0
M  V30 2588 O 237.35 -0.736124 -1.80032 0
M  V30 2589 C 237.633 -3.59331 0.235144 0
M  V30 2590 C 237.486 -4.17989 1.66149 0
M  V30 2591 C 238.805 -4.3813 -0.41595 0
M  V30 2592 H 235.924 -0.733293 0.0738311 0
M  V30 2593 H 238.566 -1.69368 0.86107 0
M  V30 2594 H 236.716 -3.87109 -0.328487 0
M  V30 2595 H 238.388 -4.0116 2.27747 0
M  V30 2596 H 236.631 -3.7377 2.20178 0
M  V30 2597 H 237.302 -5.27126 1.63837 0
M  V30 2598 H 239.778 -4.16051 0.0638529 0
M  V30 2599 H 238.654 -5.47717 -0.360115 0
M  V30 2600 H 238.915 -4.16101 -1.49373 0
M  V30 2601 N 237.974 -0.419461 -1.51915 0
M  V30 2602 C 239.223 0.154346 -2.01109 0
M  V30 2603 C 239.536 1.45338 -1.30905 0
M  V30 2604 O 240.742 2.10906 -1.7097 0
M  V30 2605 C 239.198 0.325615 -3.58424 0
M  V30 2606 C 238.806 -0.961934 -4.37551 0
M  V30 2607 C 240.55 0.854155 -4.15818 0
M  V30 2608 C 238.457 -0.757287 -5.86531 0
M  V30 2609 H 237.387 0.0614563 -0.751491 0
M  V30 2610 H 240.038 -0.54649 -1.75173 0
M  V30 2611 H 238.42 1.08903 -3.80731 0
M  V30 2612 H 239.594 -1.7323 -4.26999 0
M  V30 2613 H 237.909 -1.41766 -3.91524 0
M  V30 2614 H 240.506 1.02346 -5.24814 0
M  V30 2615 H 240.849 1.83172 -3.73837 0
M  V30 2616 H 241.382 0.149528 -3.97519 0
M  V30 2617 H 238.121 -1.70671 -6.32892 0
M  V30 2618 H 237.641 -0.0264061 -5.99794 0
M  V30 2619 H 239.32 -0.403482 -6.45741 0
M  V30 2620 N 239.452 1.56882 -0.150215 0
M  V30 2621 C 240.68 2.00593 0.506948 0
M  V30 2622 C 241.095 1.03033 1.58208 0
M  V30 2623 O 240.452 0.0278396 1.82479 0
M  V30 2624 C 240.503 3.44209 1.10465 0
M  V30 2625 O 240.224 4.3804 0.0724636 0
M  V30 2626 C 241.725 4.03214 1.84211 0
M  V30 2627 H 238.945 0.65795 0.13169 0
M  V30 2628 H 241.489 2.03018 -0.245743 0
M  V30 2629 H 239.644 3.42625 1.80795 0
M  V30 2630 H 240.058 5.22007 0.510793 0
M  V30 2631 H 241.532 5.0569 2.21318 0
M  V30 2632 H 242.009 3.44107 2.72923 0
M  V30 2633 H 242.615 4.08437 1.18572 0
M  V30 2634 N 240.93 -0.123565 1.57115 0
M  V30 2635 C 242.178 -0.83051 1.84247 0
M  V30 2636 C 242.499 -1.80629 0.73471 0
M  V30 2637 O 241.769 -1.94403 -0.241688 0
M  V30 2638 H 240.349 -0.309694 0.679778 0
M  V30 2639 H 243.011 -0.111976 1.94578 0
M  V30 2640 H 242.107 -1.37852 2.80006 0
M  V30 2641 N 242.408 -1.52605 -0.393616 0
M  V30 2642 C 243.338 -1.80022 -1.48709 0
M  V30 2643 C 244.319 -0.651995 -1.57108 0
M  V30 2644 O 245.504 -0.89913 -1.72132 0
M  V30 2645 C 242.634 -1.96492 -2.86371 0
M  V30 2646 C 241.588 -3.12161 -2.92813 0
M  V30 2647 C 240.914 -3.13877 -4.3288 0
M  V30 2648 C 242.214 -4.51322 -2.6288 0
M  V30 2649 H 243.908 -2.71589 -1.26015 0
M  V30 2650 H 241.454 -1.30684 -0.604778 0
M  V30 2651 H 243.407 -2.14255 -3.62867 0
M  V30 2652 H 242.131 -1.01611 -3.10391 0
M  V30 2653 H 240.79 -2.94173 -2.18764 0
M  V30 2654 H 240.438 -2.16687 -4.53933 0
M  V30 2655 H 240.138 -3.91576 -4.38112 0
M  V30 2656 H 241.662 -3.33789 -5.1129 0
M  V30 2657 H 243.076 -4.69435 -3.29096 0
M  V30 2658 H 241.473 -5.31053 -2.79468 0
M  V30 2659 H 242.543 -4.58353 -1.58242 0
M  V30 2660 N 243.887 0.651787 -1.4349 0
M  V30 2661 C 245.134 1.41167 -1.45183 0
M  V30 2662 C 245.462 1.94349 -0.0766601 0
M  V30 2663 O 244.717 1.72804 0.918555 0
M  V30 2664 C 245.016 2.60914 -2.44251 0
M  V30 2665 C 244.682 2.26142 -3.9009 0
M  V30 2666 C 243.344 2.16371 -4.2981 0
M  V30 2667 C 245.696 1.98334 -4.81989 0
M  V30 2668 C 243.024 1.7695 -5.5938 0
M  V30 2669 C 245.376 1.6041 -6.11924 0
M  V30 2670 C 244.04 1.49166 -6.5062 0
M  V30 2671 H 243.31 0.516566 -0.531263 0
M  V30 2672 H 245.957 0.741099 -1.76579 0
M  V30 2673 H 244.262 3.3311 -2.06265 0
M  V30 2674 H 245.959 3.19127 -2.42815 0
M  V30 2675 H 242.549 2.34658 -3.58655 0
M  V30 2676 H 246.733 2.04803 -4.52072 0
M  V30 2677 H 241.989 1.66831 -5.88198 0
M  V30 2678 H 246.163 1.37925 -6.82605 0
M  V30 2679 H 243.79 1.1839 -7.50925 0
M  V30 2680 N 245.365 1.30045 0.890287 0
M  V30 2681 C 246.613 1.18327 1.63839 0
M  V30 2682 C 246.934 -0.263455 1.93212 0
M  V30 2683 O 246.204 -1.17856 1.56482 0
M  V30 2684 H 244.784 0.434933 0.607324 0
M  V30 2685 H 247.446 1.631 1.06698 0
M  V30 2686 H 246.542 1.74024 2.59079 0
M  V30 2687 N 246.843 -1.10192 1.12674 0
M  V30 2688 C 247.806 -2.14786 0.799979 0
M  V30 2689 C 248.806 -1.59711 -0.18685 0
M  V30 2690 O 249.996 -1.74156 0.0392558 0
M  V30 2691 C 247.128 -3.40374 0.189228 0
M  V30 2692 H 248.321 -2.45203 1.72671 0
M  V30 2693 H 245.874 -1.25597 0.930326 0
M  V30 2694 H 246.609 -3.15577 -0.747107 0
M  V30 2695 H 246.394 -3.81637 0.899766 0
M  V30 2696 H 247.884 -4.17594 -0.0228143 0
M  V30 2697 N 248.321 -0.919034 -1.28029 0
M  V30 2698 C 249.57 -0.550802 -1.94034 0
M  V30 2699 C 249.883 0.910877 -1.73096 0
M  V30 2700 O 251.089 1.3875 -2.33368 0
M  V30 2701 C 249.545 -0.934249 -3.47563 0
M  V30 2702 C 249.153 -2.41602 -3.7727 0
M  V30 2703 C 250.897 -0.636854 -4.19696 0
M  V30 2704 C 248.804 -2.73932 -5.24133 0
M  V30 2705 H 247.734 -0.202273 -0.726362 0
M  V30 2706 H 250.385 -1.11867 -1.45458 0
M  V30 2707 H 248.767 -0.295115 -3.94899 0
M  V30 2708 H 249.941 -3.10233 -3.40723 0
M  V30 2709 H 248.256 -2.68441 -3.18321 0
M  V30 2710 H 250.853 -0.855005 -5.2782 0
M  V30 2711 H 251.196 0.425575 -4.14119 0
M  V30 2712 H 251.729 -1.23469 -3.78154 0
M  V30 2713 H 248.468 -3.79049 -5.34792 0
M  V30 2714 H 247.988 -2.09942 -5.61858 0
M  V30 2715 H 249.667 -2.61215 -5.91925 0
M  V30 2716 N 249.799 1.42003 -0.683588 0
M  V30 2717 C 251.21 1.84501 -0.285736 0
M  V30 2718 C 251.561 1.57213 1.17382 0
M  V30 2719 O 250.686 1.03642 1.89966 0
M  V30 2720 C 251.281 3.34912 -0.511821 0
M  V30 2721 C 249.84 3.76025 -0.168005 0
M  V30 2722 C 248.987 2.6551 -0.799983 0
M  V30 2723 H 251.938 1.31724 -0.885119 0
M  V30 2724 H 251.959 3.79784 0.233292 0
M  V30 2725 H 251.471 3.54741 -1.57418 0
M  V30 2726 H 249.572 3.61801 0.890567 0
M  V30 2727 H 249.685 4.75141 -0.614661 0
M  V30 2728 H 248.049 2.53654 -0.230568 0
M  V30 2729 H 248.832 2.8816 -1.86597 0
M  V30 2730 N 251.277 0.427512 1.51691 0
M  V30 2731 C 252.525 -0.141948 2.01601 0
M  V30 2732 C 252.846 -1.44067 1.31414 0
M  V30 2733 O 252.116 -1.90763 0.445658 0
M  V30 2734 H 250.696 -0.0554468 0.744939 0
M  V30 2735 H 253.358 0.567968 1.86441 0
M  V30 2736 H 252.454 -0.324913 3.10404 0
M  V30 2737 N 252.755 -1.56801 0.158532 0
M  V30 2738 C 254.004 -1.95665 -0.489702 0
M  V30 2739 C 254.317 -1.04654 -1.65248 0
M  V30 2740 O 255.523 -1.33146 -2.3661 0
M  V30 2741 C 253.979 -3.47874 -0.922582 0
M  V30 2742 C 253.587 -4.47489 0.213893 0
M  V30 2743 C 255.331 -3.95583 -1.53996 0
M  V30 2744 C 253.238 -5.90921 -0.237903 0
M  V30 2745 H 252.168 -0.730516 -0.186716 0
M  V30 2746 H 254.819 -1.81861 0.244722 0
M  V30 2747 H 253.201 -3.57051 -1.71261 0
M  V30 2748 H 254.375 -4.50017 0.991036 0
M  V30 2749 H 252.69 -4.09764 0.740407 0
M  V30 2750 H 255.287 -5.0019 -1.8898 0
M  V30 2751 H 255.63 -3.37789 -2.43319 0
M  V30 2752 H 256.163 -3.8937 -0.814611 0
M  V30 2753 H 252.902 -6.52559 0.620236 0
M  V30 2754 H 252.422 -5.91729 -0.980676 0
M  V30 2755 H 254.101 -6.43352 -0.686067 0
M  V30 2756 N 254.233 0.115231 -1.57178 0
M  V30 2757 C 255.481 0.820727 -1.84685 0
M  V30 2758 C 255.802 1.80237 -0.744279 0
M  V30 2759 O 255.072 1.94529 0.231375 0
M  V30 2760 H 253.652 0.306084 -0.681411 0
M  V30 2761 H 256.314 0.101656 -1.94635 0
M  V30 2762 H 255.41 1.36366 -2.80733 0
M  V30 2763 N 255.711 1.52812 0.385517 0
M  V30 2764 C 256.661 1.74219 1.47078 0
M  V30 2765 C 257.645 0.59632 1.49442 0
M  V30 2766 O 258.837 0.85428 1.5502 0
M  V30 2767 C 255.966 1.9176 2.84751 0
M  V30 2768 C 255.052 3.12289 2.86943 0
M  V30 2769 N 255.443 4.34575 2.58802 0
M  V30 2770 C 253.741 3.12605 3.1811 0
M  V30 2771 C 254.442 5.162 2.68166 0
M  V30 2772 N 253.418 4.51964 3.02043 0
M  V30 2773 H 257.22 2.6639 1.24152 0
M  V30 2774 H 254.734 1.51166 0.593504 0
M  V30 2775 H 256.731 2.05218 3.62893 0
M  V30 2776 H 255.391 1.00805 3.08656 0
M  V30 2777 H 256.402 4.62649 2.32759 0
M  V30 2778 H 253.079 2.31472 3.47458 0
M  V30 2779 H 254.469 6.23689 2.49923 0
M  V30 2780 N 257.189 -0.644168 1.43834 0
M  V30 2781 C 258.414 -1.43642 1.49605 0
M  V30 2782 C 258.839 -1.8773 0.117913 0
M  V30 2783 O 258.197 -1.57938 -0.890239 0
M  V30 2784 C 258.245 -2.6416 2.45463 0
M  V30 2785 O 257.349 -3.63538 1.94714 0
M  V30 2786 H 256.69 -0.430329 0.50568 0
M  V30 2787 H 259.22 -0.787448 1.8884 0
M  V30 2788 H 259.23 -3.11864 2.63068 0
M  V30 2789 H 257.905 -2.31414 3.45572 0
M  V30 2790 H 256.482 -3.2273 1.86814 0
M  V30 2791 N 258.668 -1.30515 -0.883378 0
M  V30 2792 C 259.917 -1.18795 -1.63005 0
M  V30 2793 C 260.23 0.255923 -1.93919 0
M  V30 2794 O 261.436 0.494654 -2.66956 0
M  V30 2795 C 259.892 -2.07878 -2.93794 0
M  V30 2796 C 259.5 -3.57184 -2.70414 0
M  V30 2797 C 261.244 -2.04924 -3.71761 0
M  V30 2798 C 259.151 -4.38317 -3.97029 0
M  V30 2799 H 258.081 -0.441031 -0.611562 0
M  V30 2800 H 260.732 -1.55275 -0.977854 0
M  V30 2801 H 259.114 -1.64283 -3.60315 0
M  V30 2802 H 260.288 -4.08937 -2.12384 0
M  V30 2803 H 258.603 -3.61976 -2.0582 0
M  V30 2804 H 261.2 -2.62792 -4.65665 0
M  V30 2805 H 261.543 -1.0331 -4.03277 0
M  V30 2806 H 262.076 -2.46649 -3.12104 0
M  V30 2807 H 258.815 -5.40632 -3.70671 0
M  V30 2808 H 258.335 -3.91326 -4.54559 0
M  V30 2809 H 260.014 -4.49834 -4.65036 0
M  V30 2810 N 260.146 1.09593 -1.13257 0
M  V30 2811 C 261.078 2.16015 -0.766167 0
M  V30 2812 C 262.091 1.61423 0.211303 0
M  V30 2813 O 263.28 1.78498 -0.00863946 0
M  V30 2814 C 260.38 3.38706 -0.114662 0
M  V30 2815 C 259.553 4.22717 -1.12379 0
M  V30 2816 C 258.612 5.23835 -0.498301 0
M  V30 2817 O 257.638 5.573 -1.15781 0
M  V30 2818 N 258.84 5.75886 0.730417 0
M  V30 2819 H 261.605 2.48055 -1.68193 0
M  V30 2820 H 259.166 1.25292 -1.02535 0
M  V30 2821 H 261.158 4.03464 0.315991 0
M  V30 2822 H 259.728 3.04569 0.704011 0
M  V30 2823 H 258.948 3.54122 -1.73179 0
M  V30 2824 H 260.236 4.75673 -1.80589 0
M  V30 2825 H 259.634 5.50911 1.28504 0
M  V30 2826 H 258.191 6.42387 1.10376 0
M  V30 2827 N 261.624 0.925811 1.2754 0
M  V30 2828 C 262.852 0.581509 1.9856 0
M  V30 2829 C 263.267 -0.840041 1.69082 0
M  V30 2830 O 262.624 -1.55805 0.950312 0
M  V30 2831 C 262.675 0.795589 3.52637 0
M  V30 2832 O 262.396 2.16121 3.81082 0
M  V30 2833 C 263.897 0.459744 4.4091 0
M  V30 2834 H 261.117 0.220538 0.633722 0
M  V30 2835 H 263.661 1.24232 1.6244 0
M  V30 2836 H 261.816 0.18161 3.86974 0
M  V30 2837 H 262.23 2.2098 4.75676 0
M  V30 2838 H 263.704 0.660244 5.48037 0
M  V30 2839 H 264.181 -0.604625 4.35018 0
M  V30 2840 H 264.787 1.05178 4.12089 0
M  V30 2841 N 263.102 -1.41638 0.69111 0
M  V30 2842 C 264.348 -2.02104 0.229258 0
M  V30 2843 C 264.703 -1.53741 -1.15678 0
M  V30 2844 O 263.996 -0.736849 -1.76865 0
M  V30 2845 C 264.19 -3.56714 0.221277 0
M  V30 2846 C 264.019 -4.20083 1.605 0
M  V30 2847 C 262.789 -4.54566 2.20676 0
M  V30 2848 C 264.987 -4.46587 2.55078 0
M  V30 2849 N 262.969 -5.03199 3.5166 0
M  V30 2850 C 264.34 -4.96946 3.70735 0
M  V30 2851 C 266.395 -4.28593 2.53401 0
M  V30 2852 C 265.098 -5.31203 4.8499 0
M  V30 2853 C 267.124 -4.63936 3.66765 0
M  V30 2854 C 266.486 -5.14463 4.81152 0
M  V30 2855 H 262.585 -0.771256 0.12918 0
M  V30 2856 H 265.169 -1.72251 0.907626 0
M  V30 2857 H 263.34 -3.86051 -0.426562 0
M  V30 2858 H 265.072 -4.03896 -0.254983 0
M  V30 2859 H 261.827 -4.4087 1.73005 0
M  V30 2860 H 262.251 -5.31926 4.18789 0
M  V30 2861 H 266.893 -3.88771 1.66184 0
M  V30 2862 H 264.611 -5.69951 5.72871 0
M  V30 2863 H 268.197 -4.51677 3.66714 0
M  V30 2864 H 267.077 -5.41299 5.67419 0
M  V30 2865 N 264.58 -0.43555 -1.51462 0
M  V30 2866 C 265.51 0.367376 -2.30592 0
M  V30 2867 C 266.491 1.02263 -1.35928 0
M  V30 2868 O 267.676 1.02661 -1.64847 0
M  V30 2869 C 264.806 1.46983 -3.14664 0
M  V30 2870 C 263.76 0.938161 -4.17591 0
M  V30 2871 C 263.086 2.13622 -4.90173 0
M  V30 2872 C 264.386 -0.0261621 -5.22293 0
M  V30 2873 H 266.08 -0.292969 -2.97963 0
M  V30 2874 H 263.626 -0.14234 -1.43295 0
M  V30 2875 H 265.579 2.03873 -3.688 0
M  V30 2876 H 264.303 2.15843 -2.4511 0
M  V30 2877 H 262.962 0.391481 -3.64504 0
M  V30 2878 H 262.61 2.81098 -4.17124 0
M  V30 2879 H 262.31 1.78688 -5.59772 0
M  V30 2880 H 263.834 2.7107 -5.47132 0
M  V30 2881 H 265.248 0.452384 -5.71512 0
M  V30 2882 H 263.645 -0.287992 -5.99409 0
M  V30 2883 H 264.715 -0.963391 -4.75233 0
M  V30 2884 N 266.058 1.56714 -0.166846 0
M  V30 2885 C 266.988 2.20754 0.760913 0
M  V30 2886 C 267.969 1.16178 1.24244 0
M  V30 2887 O 269.154 1.44592 1.29641 0
M  V30 2888 C 266.284 2.84478 1.99223 0
M  V30 2889 C 265.238 3.95053 1.64672 0
M  V30 2890 C 264.564 4.45805 2.95232 0
M  V30 2891 C 265.864 5.14865 0.878155 0
M  V30 2892 H 267.558 2.98537 0.22713 0
M  V30 2893 H 265.104 1.43596 0.107805 0
M  V30 2894 H 267.057 3.27951 2.64624 0
M  V30 2895 H 265.781 2.04056 2.55007 0
M  V30 2896 H 264.44 3.52228 1.01641 0
M  V30 2897 H 264.088 3.62181 3.49047 0
M  V30 2898 H 263.788 5.204 2.7287 0
M  V30 2899 H 265.312 4.91962 3.6167 0
M  V30 2900 H 266.726 5.55059 1.43466 0
M  V30 2901 H 265.123 5.95348 0.753738 0
M  V30 2902 H 266.193 4.84735 -0.126377 0
M  V30 2903 N 267.536 -0.106894 1.57237 0
M  V30 2904 C 268.784 -0.810921 1.85117 0
M  V30 2905 C 269.105 -1.7984 0.753827 0
M  V30 2906 O 268.375 -1.94649 -0.221056 0
M  V30 2907 H 266.955 -0.302466 0.683025 0
M  V30 2908 H 269.617 -0.0913324 1.94686 0
M  V30 2909 H 268.713 -1.34875 2.81452 0
M  V30 2910 N 269.014 -1.53014 -0.377408 0
M  V30 2911 C 270.262 -1.6829 -1.11906 0
M  V30 2912 C 270.583 -0.431206 -1.90173 0
M  V30 2913 O 269.853 0.554595 -1.87886 0
M  V30 2914 H 268.433 -0.620371 -0.416112 0
M  V30 2915 H 271.095 -1.90167 -0.426893 0
M  V30 2916 H 270.191 -2.53862 -1.8155 0
M  V30 2917 N 270.492 0.636531 -1.44174 0
M  V30 2918 C 271.903 1.21806 -1.41493 0
M  V30 2919 C 272.254 1.95785 -0.1275 0
M  V30 2920 O 271.379 2.02147 0.772376 0
M  V30 2921 C 271.974 2.21551 -2.56321 0
M  V30 2922 C 270.533 2.75143 -2.56853 0
M  V30 2923 C 269.68 1.50052 -2.33195 0
M  V30 2924 H 272.631 0.427531 -1.52833 0
M  V30 2925 H 272.652 3.0405 -2.28765 0
M  V30 2926 H 272.164 1.67679 -3.50008 0
M  V30 2927 H 270.265 3.33033 -1.67093 0
M  V30 2928 H 270.378 3.2155 -3.55165 0
M  V30 2929 H 268.742 1.77993 -1.82183 0
M  V30 2930 H 269.525 0.980903 -3.28988 0
M  V30 2931 N 271.97 1.30982 0.876444 0
M  V30 2932 C 272.933 1.18054 1.96459 0
M  V30 2933 C 273.933 0.109399 1.60427 0
M  V30 2934 O 275.123 0.358173 1.70478 0
M  V30 2935 C 272.255 0.810616 3.31122 0
M  V30 2936 H 273.448 2.14735 2.09354 0
M  V30 2937 H 271.001 1.145 1.06392 0
M  V30 2938 H 271.736 -0.155322 3.23928 0
M  V30 2939 H 271.521 1.58481 3.58645 0
M  V30 2940 H 273.011 0.743876 4.10921 0
M  V30 2941 N 273.449 -1.08991 1.13837 0
M  V30 2942 C 274.695 -1.81526 0.90422 0
M  V30 2943 C 275.028 -1.85706 -0.568066 0
M  V30 2944 O 274.303 -1.32855 -1.42056 0
M  V30 2945 C 274.586 -3.27447 1.49835 0
M  V30 2946 C 274.439 -3.31512 3.04006 0
M  V30 2947 C 275.758 -4.24256 1.17025 0
M  V30 2948 H 272.877 -0.659029 0.329923 0
M  V30 2949 H 275.519 -1.27644 1.40737 0
M  V30 2950 H 273.669 -3.73462 1.07044 0
M  V30 2951 H 275.341 -2.93867 3.55584 0
M  V30 2952 H 273.584 -2.70963 3.38765 0
M  V30 2953 H 274.255 -4.34329 3.40679 0
M  V30 2954 H 276.731 -3.86549 1.54009 0
M  V30 2955 H 275.607 -5.24684 1.61237 0
M  V30 2956 H 275.868 -4.42019 0.0846274 0
M  V30 2957 N 274.927 -0.932562 -1.27047 0
M  V30 2958 C 276.204 -0.49377 -1.89265 0
M  V30 2959 C 276.584 1.02833 -1.8436 0
M  V30 2960 O 275.932 1.88461 -1.29209 0
M  V30 2961 C 276.142 -1.04536 -3.32976 0
M  V30 2962 C 277.49 -1.10879 -4.09867 0
M  V30 2963 O 278.514 -0.995327 -3.42011 0
M  V30 2964 O 277.373 -1.28417 -5.31198 0
M  V30 2965 H 274.467 -0.159596 -0.811454 0
M  V30 2966 H 277.013 -1.02457 -1.3528 0
M  V30 2967 H 275.785 -2.08913 -3.30864 0
M  V30 2968 H 275.408 -0.496494 -3.94488 0
M  V30 2969 N 276.405 1.4127 -0.698611 0
M  V30 2970 C 277.353 2.32588 -0.023855 0
M  V30 2971 C 278.347 1.51128 0.765292 0
M  V30 2972 O 279.553 1.67043 0.670571 0
M  V30 2973 H 275.928 0.751918 0.0110871 0
M  V30 2974 H 277.899 2.87167 -0.811031 0
M  V30 2975 C 276.648 3.35947 0.896369 0
M  V30 2976 H 275.971 3.98684 0.298548 0
M  V30 2977 H 277.411 4.02376 1.33676 0
M  V30 2978 C 275.87 2.70076 2.01396 0
M  V30 2979 O 276.4 2.55093 3.10307 0
M  V30 2980 N 274.606 2.28724 1.79259 0
M  V30 2981 H 274.153 2.4111 0.906841 0
M  V30 2982 H 274.111 1.84986 2.54219 0
M  V30 2983 N 277.883 0.443576 1.51229 0
M  V30 2984 C 278.846 -0.353132 2.26463 0
M  V30 2985 C 279.846 -0.944338 1.3015 0
M  V30 2986 O 281.036 -0.817813 1.5381 0
M  V30 2987 C 278.168 -1.50023 3.06114 0
M  V30 2988 H 279.361 0.3063 2.98332 0
M  V30 2989 H 276.914 0.196902 1.55055 0
M  V30 2990 H 277.649 -2.19553 2.38677 0
M  V30 2991 H 277.434 -1.08241 3.76864 0
M  V30 2992 H 278.924 -2.06296 3.63087 0
M  V30 2993 N 279.361 -1.56624 0.175154 0
M  V30 2994 C 280.589 -2.01374 -0.474971 0
M  V30 2995 C 281.004 -1.05537 -1.56548 0
M  V30 2996 O 280.361 -0.0568668 -1.82411 0
M  V30 2997 C 280.412 -3.45923 -1.04975 0
M  V30 2998 O 280.133 -4.381 -0.00276605 0
M  V30 2999 C 281.634 -4.06093 -1.77773 0
M  V30 3000 H 278.854 -0.659962 -0.121206 0
M  V30 3001 H 281.398 -2.02601 0.27801 0
M  V30 3002 H 279.553 -3.45458 -1.75321 0
M  V30 3003 H 279.967 -5.22753 -0.427681 0
M  V30 3004 H 281.441 -5.09147 -2.13245 0
M  V30 3005 H 281.918 -3.48405 -2.67414 0
M  V30 3006 H 282.524 -4.10272 -1.12059 0
M  V30 3007 N 280.839 0.0985539 -1.57292 0
M  V30 3008 C 281.769 1.12064 -2.04851 0
M  V30 3009 C 282.75 1.41981 -0.936767 0
M  V30 3010 O 283.935 1.52071 -1.20781 0
M  V30 3011 C 281.065 2.44144 -2.47004 0
M  V30 3012 C 280.019 2.28643 -3.6181 0
M  V30 3013 C 279.345 3.65869 -3.89929 0
M  V30 3014 C 280.645 1.72986 -4.92822 0
M  V30 3015 H 282.339 0.724979 -2.9049 0
M  V30 3016 H 279.885 0.34729 -1.39749 0
M  V30 3017 H 281.838 3.15914 -2.78884 0
M  V30 3018 H 280.562 2.85639 -1.5836 0
M  V30 3019 H 279.221 1.59318 -3.30172 0
M  V30 3020 H 278.869 4.04885 -2.98458 0
M  V30 3021 H 278.569 3.56344 -4.67218 0
M  V30 3022 H 280.093 4.39112 -4.2428 0
M  V30 3023 H 281.507 2.34593 -5.23105 0
M  V30 3024 H 279.904 1.74229 -5.74251 0
M  V30 3025 H 280.974 0.689007 -4.7998 0
M  V30 3026 N 282.317 1.53212 0.369288 0
M  V30 3027 C 283.265 1.80054 1.47253 0
M  V30 3028 C 284.259 0.669456 1.55611 0
M  V30 3029 O 285.465 0.852328 1.58541 0
M  V30 3030 H 281.84 0.570034 0.490475 0
M  V30 3031 H 283.811 2.72403 1.21817 0
M  V30 3032 C 282.56 2.00403 2.84137 0
M  V30 3033 H 281.883 2.86876 2.78464 0
M  V30 3034 H 283.323 2.23164 3.60519 0
M  V30 3035 C 281.782 0.782081 3.27697 0
M  V30 3036 O 282.312 -0.0310205 4.01688 0
M  V30 3037 N 280.518 0.606573 2.84199 0
M  V30 3038 H 280.065 1.26939 2.24152 0
M  V30 3039 H 280.023 -0.20962 3.137 0
M  V30 3040 N 283.795 -0.628877 1.44509 0
M  V30 3041 C 285.211 -0.947305 1.28446 0
M  V30 3042 C 285.411 -2.00275 0.221872 0
M  V30 3043 O 284.467 -2.49447 -0.391471 0
M  V30 3044 C 285.78 -1.40843 2.65676 0
M  V30 3045 C 287.328 -1.52379 2.73404 0
M  V30 3046 C 287.803 -2.01875 4.11109 0
M  V30 3047 N 289.294 -2.09142 4.13296 0
M  V30 3048 C 290.029 -2.48615 5.16699 0
M  V30 3049 N 289.525 -2.87209 6.30462 0
M  V30 3050 N 291.318 -2.48768 5.04054 0
M  V30 3051 H 283.469 0.0690977 2.12288 0
M  V30 3052 H 285.732 -0.0317164 0.947469 0
M  V30 3053 H 285.438 -0.707206 3.44516 0
M  V30 3054 H 285.312 -2.37902 2.92716 0
M  V30 3055 H 287.699 -2.21598 1.9488 0
M  V30 3056 H 287.78 -0.536898 2.50102 0
M  V30 3057 H 287.424 -1.3325 4.90109 0
M  V30 3058 H 287.354 -3.0144 4.31789 0
M  V30 3059 H 289.845 -1.81991 3.31191 0
M  V30 3060 H 290.158 -3.16149 7.05174 0
M  V30 3061 H 288.503 -2.84955 6.33897 0
M  V30 3062 H 291.694 -2.18009 4.14234 0
M  V30 3063 H 291.867 -2.79207 5.84763 0
M  V30 3064 N 285.273 -1.31445 -0.869486 0
M  V30 3065 C 286.52 -1.21158 -1.62256 0
M  V30 3066 C 286.848 0.230155 -1.93133 0
M  V30 3067 O 286.103 1.17906 -1.56194 0
M  V30 3068 C 286.402 -2.00145 -2.96102 0
M  V30 3069 C 286.068 -3.4964 -2.84715 0
M  V30 3070 C 284.73 -3.90403 -2.81317 0
M  V30 3071 C 287.082 -4.44769 -2.71716 0
M  V30 3072 C 284.41 -5.24561 -2.62778 0
M  V30 3073 C 286.762 -5.79054 -2.54714 0
M  V30 3074 C 285.426 -6.19037 -2.49699 0
M  V30 3075 H 284.696 -0.443348 -0.593737 0
M  V30 3076 H 287.343 -1.62715 -1.00976 0
M  V30 3077 H 285.648 -1.5127 -3.6142 0
M  V30 3078 H 287.345 -1.89566 -3.53363 0
M  V30 3079 H 283.935 -3.17256 -2.88178 0
M  V30 3080 H 288.119 -4.14208 -2.73397 0
M  V30 3081 H 283.375 -5.54613 -2.57321 0
M  V30 3082 H 287.549 -6.52393 -2.43632 0
M  V30 3083 H 285.176 -7.22935 -2.35093 0
M  V30 3084 N 286.751 1.08385 -1.14413 0
M  V30 3085 C 287.998 1.80776 -0.912482 0
M  V30 3086 C 288.326 1.86236 0.560934 0
M  V30 3087 O 287.581 1.33431 1.43159 0
M  V30 3088 C 287.88 3.26273 -1.45879 0
M  V30 3089 C 287.546 3.4093 -2.95089 0
M  V30 3090 C 286.208 3.44638 -3.35824 0
M  V30 3091 C 288.56 3.44591 -3.91033 0
M  V30 3092 C 285.888 3.49597 -4.71167 0
M  V30 3093 C 288.24 3.51086 -5.26233 0
M  V30 3094 C 286.904 3.53067 -5.6648 0
M  V30 3095 H 286.174 0.661507 -0.333901 0
M  V30 3096 H 288.821 1.27613 -1.42784 0
M  V30 3097 H 287.126 3.82146 -0.864376 0
M  V30 3098 H 288.823 3.80839 -1.2555 0
M  V30 3099 H 285.413 3.38736 -2.62594 0
M  V30 3100 H 289.597 3.40957 -3.60641 0
M  V30 3101 H 284.853 3.49424 -5.0171 0
M  V30 3102 H 289.027 3.52864 -6.00383 0
M  V30 3103 H 286.654 3.56662 -6.71339 0
M  V30 3104 N 288.23 0.939286 1.26551 0
M  V30 3105 C 289.455 0.602008 1.98471 0
M  V30 3106 C 289.88 -0.815624 1.69497 0
M  V30 3107 O 289.238 -1.54912 0.941905 0
M  V30 3108 C 289.286 0.848407 3.50477 0
M  V30 3109 O 288.39 -0.0804009 4.12322 0
M  V30 3110 H 287.731 0.23049 0.622712 0
M  V30 3111 H 290.261 1.2617 1.61066 0
M  V30 3112 H 290.271 0.768553 4.00696 0
M  V30 3113 H 288.946 1.88171 3.70897 0
M  V30 3114 H 287.523 0.0503508 3.72866 0
M  V30 3115 N 289.708 -1.40897 0.706093 0
M  V30 3116 C 290.638 -2.33418 0.0620085 0
M  V30 3117 C 291.619 -1.52385 -0.755827 0
M  V30 3118 O 292.804 -1.80886 -0.706674 0
M  V30 3119 C 289.934 -3.36293 -0.867445 0
M  V30 3120 C 288.888 -4.27716 -0.155932 0
M  V30 3121 C 288.214 -5.2105 -1.20046 0
M  V30 3122 C 289.514 -5.12944 0.984149 0
M  V30 3123 H 291.208 -2.87527 0.83477 0
M  V30 3124 H 288.754 -1.38249 0.402875 0
M  V30 3125 H 290.707 -3.99949 -1.32735 0
M  V30 3126 H 289.431 -2.80556 -1.67199 0
M  V30 3127 H 288.09 -3.65498 0.284047 0
M  V30 3128 H 287.738 -4.61624 -1.99781 0
M  V30 3129 H 287.438 -5.83056 -0.729328 0
M  V30 3130 H 288.962 -5.87584 -1.66066 0
M  V30 3131 H 290.376 -5.70109 0.604048 0
M  V30 3132 H 288.773 -5.83945 1.38304 0
M  V30 3133 H 289.843 -4.49485 1.81911 0
M  V30 3134 N 291.186 -0.45159 -1.50991 0
M  V30 3135 C 292.136 0.370861 -2.24964 0
M  V30 3136 C 293.12 0.978074 -1.2776 0
M  V30 3137 O 294.312 0.893854 -1.52772 0
M  V30 3138 C 291.441 1.46344 -3.10545 0
M  V30 3139 C 290.527 0.864924 -4.15187 0
M  V30 3140 N 290.918 -0.00311354 -5.058 0
M  V30 3141 C 289.216 1.13099 -4.31422 0
M  V30 3142 C 289.917 -0.340772 -5.80701 0
M  V30 3143 N 288.893 0.279203 -5.42883 0
M  V30 3144 H 292.695 -0.298134 -2.92384 0
M  V30 3145 H 290.209 -0.264528 -1.60231 0
M  V30 3146 H 292.206 2.06565 -3.62128 0
M  V30 3147 H 290.866 2.13463 -2.4467 0
M  V30 3148 H 291.877 -0.37058 -5.16572 0
M  V30 3149 H 288.554 1.79861 -3.76771 0
M  V30 3150 H 289.944 -1.048 -6.63677 0
M  V30 3151 N 292.664 1.56529 -0.183458 0
M  V30 3152 C 293.894 2.01331 0.463612 0
M  V30 3153 C 294.302 1.06278 1.5653 0
M  V30 3154 O 293.645 0.0577976 1.83609 0
M  V30 3155 C 293.707 3.42547 1.09096 0
M  V30 3156 C 293.371 4.56817 0.129442 0
M  V30 3157 C 294.368 5.15734 -0.656807 0
M  V30 3158 C 292.053 5.02295 0.02174 0
M  V30 3159 C 294.047 6.1857 -1.53784 0
M  V30 3160 C 291.734 6.04978 -0.862864 0
M  V30 3161 C 292.732 6.62988 -1.64123 0
M  V30 3162 O 292.42 7.63677 -2.51103 0
M  V30 3163 H 292.152 0.664917 0.121907 0
M  V30 3164 H 294.706 2.034 -0.285954 0
M  V30 3165 H 292.936 3.37428 1.88889 0
M  V30 3166 H 294.625 3.71228 1.64148 0
M  V30 3167 H 295.391 4.81473 -0.583839 0
M  V30 3168 H 291.27 4.56847 0.617392 0
M  V30 3169 H 294.814 6.63777 -2.14583 0
M  V30 3170 H 290.711 6.38663 -0.93699 0
M  V30 3171 H 291.479 7.81049 -2.44753 0
M  V30 3172 N 294.142 -0.090211 1.57342 0
M  V30 3173 C 295.072 -1.10976 2.05443 0
M  V30 3174 C 296.053 -1.41482 0.944284 0
M  V30 3175 O 297.238 -1.51428 1.21586 0
M  V30 3176 C 294.368 -2.42831 2.48295 0
M  V30 3177 C 293.322 -2.26721 3.63018 0
M  V30 3178 C 292.648 -3.63796 3.91863 0
M  V30 3179 C 293.948 -1.7037 4.93732 0
M  V30 3180 H 295.642 -0.709564 2.9087 0
M  V30 3181 H 293.188 -0.339874 1.39932 0
M  V30 3182 H 295.141 -3.14431 2.80555 0
M  V30 3183 H 293.865 -2.84795 1.59873 0
M  V30 3184 H 292.524 -1.57565 3.31012 0
M  V30 3185 H 292.172 -4.03297 3.00601 0
M  V30 3186 H 291.872 -3.53861 4.69101 0
M  V30 3187 H 293.396 -4.36855 4.26603 0
M  V30 3188 H 294.81 -2.31816 5.24342 0
M  V30 3189 H 293.207 -1.71181 5.75167 0
M  V30 3190 H 294.277 -0.663542 4.80339 0
M  V30 3191 N 295.62 -1.53406 -0.361157 0
M  V30 3192 C 296.55 -1.83136 -1.44857 0
M  V30 3193 C 297.531 -0.685174 -1.5569 0
M  V30 3194 O 298.716 -0.93544 -1.70186 0
M  V30 3195 C 295.846 -2.02522 -2.82138 0
M  V30 3196 C 294.8 -3.18302 -2.86126 0
M  V30 3197 C 294.126 -3.22989 -4.26125 0
M  V30 3198 C 295.426 -4.56796 -2.53248 0
M  V30 3199 H 297.12 -2.74201 -1.20226 0
M  V30 3200 H 294.666 -1.31938 -0.576922 0
M  V30 3201 H 296.619 -2.21904 -3.58241 0
M  V30 3202 H 295.343 -1.08172 -3.08166 0
M  V30 3203 H 294.002 -2.98747 -2.12475 0
M  V30 3204 H 293.65 -2.26267 -4.49235 0
M  V30 3205 H 293.35 -4.00781 -4.29708 0
M  V30 3206 H 294.874 -3.44559 -5.04094 0
M  V30 3207 H 296.288 -4.7631 -3.19064 0
M  V30 3208 H 294.685 -5.36862 -2.68141 0
M  V30 3209 H 295.755 -4.61606 -1.48484 0
M  V30 3210 N 297.098 0.621204 -1.44841 0
M  V30 3211 C 298.509 1.20298 -1.42777 0
M  V30 3212 C 298.86 1.95639 -0.148259 0
M  V30 3213 O 297.985 2.02955 0.750892 0
M  V30 3214 C 298.58 2.1882 -2.58657 0
M  V30 3215 C 297.139 2.72403 -2.59756 0
M  V30 3216 C 296.286 1.4757 -2.34773 0
M  V30 3217 H 299.237 0.411297 -1.53278 0
M  V30 3218 H 299.258 3.01607 -2.31977 0
M  V30 3219 H 298.77 1.63957 -3.51766 0
M  V30 3220 H 296.871 3.31242 -1.70615 0
M  V30 3221 H 296.984 3.17765 -3.58556 0
M  V30 3222 H 295.348 1.76051 -1.8406 0
M  V30 3223 H 296.131 0.945954 -3.3001 0
M  V30 3224 N 298.576 1.31904 0.862503 0
M  V30 3225 C 299.823 1.22017 1.61611 0
M  V30 3226 C 300.151 -0.21991 1.93253 0
M  V30 3227 O 299.406 -1.17076 1.56817 0
M  V30 3228 C 299.705 2.01713 2.95037 0
M  V30 3229 C 299.371 3.51145 2.82857 0
M  V30 3230 C 298.033 3.91889 2.79243 0
M  V30 3231 C 300.385 4.46204 2.69353 0
M  V30 3232 C 297.713 5.25947 2.59993 0
M  V30 3233 C 300.065 5.80397 2.5164 0
M  V30 3234 C 298.729 6.20352 2.46413 0
M  V30 3235 H 297.999 0.44649 0.591378 0
M  V30 3236 H 300.646 1.63248 1.00111 0
M  V30 3237 H 298.951 1.53185 3.60613 0
M  V30 3238 H 300.648 1.91437 3.52353 0
M  V30 3239 H 297.238 3.1878 2.86491 0
M  V30 3240 H 301.422 4.15652 2.71196 0
M  V30 3241 H 296.678 5.5597 2.54376 0
M  V30 3242 H 300.852 6.53676 2.40169 0
M  V30 3243 H 298.479 7.24172 2.31256 0
M  V30 3244 N 300.054 -1.07777 1.14986 0
M  V30 3245 C 301.3 -1.80557 0.923422 0
M  V30 3246 C 301.633 -1.86298 -0.548337 0
M  V30 3247 O 300.908 -1.34354 -1.40639 0
M  V30 3248 C 301.191 -3.25839 1.53299 0
M  V30 3249 C 301.044 -3.28269 3.07505 0
M  V30 3250 C 302.363 -4.22991 1.21518 0
M  V30 3251 H 299.482 -0.655493 0.336894 0
M  V30 3252 H 302.124 -1.26144 1.42083 0
M  V30 3253 H 300.274 -3.72306 1.10999 0
M  V30 3254 H 301.946 -2.90079 3.58681 0
M  V30 3255 H 300.189 -2.67355 3.4162 0
M  V30 3256 H 300.86 -4.30691 3.45266 0
M  V30 3257 H 303.336 -3.84894 1.581 0
M  V30 3258 H 302.212 -5.22945 1.66793 0
M  V30 3259 H 302.473 -4.41904 0.131505 0
M  V30 3260 N 301.532 -0.945985 -1.26051 0
M  V30 3261 C 302.781 -0.591836 -1.92822 0
M  V30 3262 C 303.094 0.873956 -1.7499 0
M  V30 3263 O 304.3 1.33769 -2.36259 0
M  V30 3264 C 302.756 -1.00776 -3.45503 0
M  V30 3265 C 302.364 -2.4955 -3.7206 0
M  V30 3266 C 304.108 -0.725735 -4.1825 0
M  V30 3267 C 302.015 -2.84988 -5.18205 0
M  V30 3268 H 300.945 -0.217635 -0.721908 0
M  V30 3269 H 303.596 -1.14927 -1.43052 0
M  V30 3270 H 301.978 -0.378812 -3.94184 0
M  V30 3271 H 303.152 -3.1739 -3.34066 0
M  V30 3272 H 301.467 -2.75133 -3.12555 0
M  V30 3273 H 304.064 -0.966771 -5.25887 0
M  V30 3274 H 304.407 0.337639 -4.14929 0
M  V30 3275 H 304.94 -1.31463 -3.7545 0
M  V30 3276 H 301.679 -3.90307 -5.26631 0
M  V30 3277 H 301.199 -2.21813 -5.57278 0
M  V30 3278 H 302.878 -2.73712 -5.86252 0
M  V30 3279 N 303.011 1.40521 -0.713556 0
M  V30 3280 C 303.974 2.29098 -0.0684347 0
M  V30 3281 C 304.974 1.45268 0.689472 0
M  V30 3282 O 306.164 1.66205 0.521677 0
M  V30 3283 C 303.296 3.28446 0.913024 0
M  V30 3284 H 304.489 2.87645 -0.84855 0
M  V30 3285 H 302.042 1.48809 -0.47809 0
M  V30 3286 H 302.777 2.74913 1.72027 0
M  V30 3287 H 302.562 3.90327 0.372472 0
M  V30 3288 H 304.052 3.94777 1.36165 0
M  V30 3289 N 304.489 0.459591 1.5075 0
M  V30 3290 C 305.452 -0.329093 2.26825 0
M  V30 3291 C 306.452 -0.930481 1.31144 0
M  V30 3292 O 307.642 -0.801453 1.54669 0
M  V30 3293 C 304.774 -1.46768 3.07688 0
M  V30 3294 H 305.967 0.337924 2.9799 0
M  V30 3295 H 303.52 0.213336 1.54837 0
M  V30 3296 H 304.255 -2.17009 2.40993 0
M  V30 3297 H 304.04 -1.04238 3.77991 0
M  V30 3298 H 305.53 -2.02433 3.65254 0
M  V30 3299 N 305.967 -1.56429 0.191757 0
M  V30 3300 C 306.897 -2.21937 -0.725696 0
M  V30 3301 C 307.878 -1.1814 -1.2238 0
M  V30 3302 O 309.063 -1.46636 -1.27325 0
M  V30 3303 C 306.193 -2.87611 -1.94672 0
M  V30 3304 C 305.147 -3.97623 -1.58366 0
M  V30 3305 C 304.473 -4.50446 -2.88102 0
M  V30 3306 C 305.773 -5.16197 -0.796133 0
M  V30 3307 H 307.467 -2.98861 -0.179606 0
M  V30 3308 H 305.013 -1.43749 -0.0849464 0
M  V30 3309 H 306.966 -3.3212 -2.59373 0
M  V30 3310 H 305.69 -2.08087 -2.51728 0
M  V30 3311 H 304.349 -3.53801 -0.960247 0
M  V30 3312 H 303.997 -3.67688 -3.43241 0
M  V30 3313 H 303.697 -5.24675 -2.64556 0
M  V30 3314 H 305.221 -4.97654 -3.53798 0
M  V30 3315 H 306.635 -5.57271 -1.34618 0
M  V30 3316 H 305.032 -5.96471 -0.658928 0
M  V30 3317 H 306.102 -4.84473 0.203478 0
M  V30 3318 N 307.445 0.0818655 -1.57387 0
M  V30 3319 C 308.691 0.784074 -1.8703 0
M  V30 3320 C 309.024 1.77729 -0.782689 0
M  V30 3321 O 308.299 1.93384 0.208051 0
M  V30 3322 C 308.582 1.50105 -3.27323 0
M  V30 3323 C 308.435 0.524925 -4.46727 0
M  V30 3324 C 309.754 2.44843 -3.65705 0
M  V30 3325 H 306.873 0.283582 -0.680257 0
M  V30 3326 H 309.515 0.0474352 -1.89941 0
M  V30 3327 H 307.665 2.12897 -3.24972 0
M  V30 3328 H 309.337 -0.0970111 -4.61198 0
M  V30 3329 H 307.58 -0.160606 -4.33503 0
M  V30 3330 H 308.251 1.064 -5.41648 0
M  V30 3331 H 310.727 1.92135 -3.69085 0
M  V30 3332 H 309.603 2.92018 -4.64776 0
M  V30 3333 H 309.864 3.29197 -2.95096 0
M  V30 3334 N 308.923 1.53595 0.353017 0
M  V30 3335 C 309.886 1.80232 1.41594 0
M  V30 3336 C 310.886 0.673081 1.46035 0
M  V30 3337 O 312.076 0.941335 1.46576 0
M  V30 3338 C 309.208 1.93578 2.80607 0
M  V30 3339 H 310.401 2.75174 1.19244 0
M  V30 3340 H 307.954 1.44864 0.586872 0
M  V30 3341 H 308.689 1.00746 3.08254 0
M  V30 3342 H 308.474 2.75724 2.78781 0
M  V30 3343 H 309.964 2.15735 3.57558 0
M  V30 3344 N 310.401 -0.613514 1.45168 0
M  V30 3345 C 311.65 -1.36874 1.4815 0
M  V30 3346 C 311.963 -1.952 0.124982 0
M  V30 3347 O 313.169 -2.71481 0.0324176 0
M  V30 3348 C 311.625 -2.47905 2.60904 0
M  V30 3349 C 311.233 -1.96016 4.02842 0
M  V30 3350 C 312.977 -3.24965 2.73126 0
M  V30 3351 C 310.884 -3.04494 5.06988 0
M  V30 3352 H 309.814 -0.514428 0.551253 0
M  V30 3353 H 312.465 -0.658182 1.7129 0
M  V30 3354 H 310.847 -3.21618 2.31037 0
M  V30 3355 H 312.021 -1.29051 4.4236 0
M  V30 3356 H 310.336 -1.31719 3.95018 0
M  V30 3357 H 312.933 -4.05865 3.48106 0
M  V30 3358 H 313.276 -3.75588 1.79553 0
M  V30 3359 H 313.809 -2.5835 3.0249 0
M  V30 3360 H 310.548 -2.58795 6.0225 0
M  V30 3361 H 310.068 -3.70044 4.72046 0
M  V30 3362 H 311.747 -3.68976 5.31475 0
M  V30 3363 N 311.879 -1.3236 -0.855495 0
M  V30 3364 C 312.829 -1.17809 -1.95205 0
M  V30 3365 C 313.813 -0.0852319 -1.60674 0
M  V30 3366 O 315.005 -0.311651 -1.74235 0
M  V30 3367 C 312.134 -0.902437 -3.31226 0
M  V30 3368 C 311.22 -2.03695 -3.7198 0
M  V30 3369 N 311.611 -3.28544 -3.84568 0
M  V30 3370 C 309.909 -1.93993 -4.016 0
M  V30 3371 C 310.61 -4.02847 -4.19629 0
M  V30 3372 N 309.586 -3.31138 -4.31102 0
M  V30 3373 H 313.388 -2.12462 -2.0307 0
M  V30 3374 H 310.902 -1.24127 -1.0472 0
M  V30 3375 H 312.899 -0.77915 -4.09554 0
M  V30 3376 H 311.559 0.0357267 -3.2468 0
M  V30 3377 H 312.57 -3.6349 -3.68911 0
M  V30 3378 H 309.247 -1.07733 -4.03361 0
M  V30 3379 H 310.637 -5.10506 -4.36845 0
M  V30 3380 N 313.357 1.07166 -1.15556 0
M  V30 3381 C 314.606 1.79181 -0.926132 0
M  V30 3382 C 314.919 1.87768 0.547967 0
M  V30 3383 O 316.125 2.56323 0.895036 0
M  V30 3384 C 314.581 3.22 -1.60761 0
M  V30 3385 C 314.189 3.21607 -3.11886 0
M  V30 3386 C 315.933 3.9861 -1.4598 0
M  V30 3387 C 313.84 4.59092 -3.72812 0
M  V30 3388 H 312.77 0.67154 -0.342856 0
M  V30 3389 H 315.421 1.2027 -1.3859 0
M  V30 3390 H 313.803 3.81115 -1.07553 0
M  V30 3391 H 314.977 2.72127 -3.71865 0
M  V30 3392 H 313.292 2.58495 -3.2645 0
M  V30 3393 H 315.889 5.00225 -1.88888 0
M  V30 3394 H 316.232 4.143 -0.407541 0
M  V30 3395 H 316.765 3.45996 -1.96295 0
M  V30 3396 H 313.504 4.48606 -4.77946 0
M  V30 3397 H 313.024 5.08803 -3.17616 0
M  V30 3398 H 314.703 5.28059 -3.73848 0
M  V30 3399 N 314.835 0.952656 1.25548 0
M  V30 3400 C 316.081 0.616826 1.93822 0
M  V30 3401 C 316.436 -0.836684 1.73255 0
M  V30 3402 O 315.729 -1.59218 1.06584 0
M  V30 3403 C 315.923 0.908818 3.45652 0
M  V30 3404 C 315.752 2.38916 3.80984 0
M  V30 3405 C 314.522 3.04637 4.03143 0
M  V30 3406 C 316.72 3.36838 3.88645 0
M  V30 3407 N 314.702 4.42565 4.25453 0
M  V30 3408 C 316.073 4.60065 4.1562 0
M  V30 3409 C 318.128 3.31704 3.71318 0
M  V30 3410 C 316.831 5.78795 4.2707 0
M  V30 3411 C 318.857 4.4977 3.84006 0
M  V30 3412 C 318.219 5.71783 4.11392 0
M  V30 3413 H 314.318 0.27629 0.731565 0
M  V30 3414 H 316.902 1.22443 1.5138 0
M  V30 3415 H 315.073 0.330166 3.86994 0
M  V30 3416 H 316.805 0.533093 4.01174 0
M  V30 3417 H 313.56 2.55215 3.98952 0
M  V30 3418 H 313.984 5.1399 4.40617 0
M  V30 3419 H 318.626 2.3842 3.49164 0
M  V30 3420 H 316.344 6.72521 4.48041 0
M  V30 3421 H 319.93 4.47342 3.71989 0
M  V30 3422 H 318.81 6.61617 4.2099 0
M  V30 3423 N 316.313 -1.40141 0.720998 0
M  V30 3424 C 317.276 -2.29058 0.0805834 0
M  V30 3425 C 318.276 -1.45632 -0.681758 0
M  V30 3426 O 319.466 -1.6648 -0.512856 0
M  V30 3427 C 316.598 -3.28925 -0.895593 0
M  V30 3428 H 317.791 -2.87191 0.863793 0
M  V30 3429 H 315.344 -1.48553 0.485975 0
M  V30 3430 H 316.079 -2.75822 -1.70566 0
M  V30 3431 H 315.864 -3.90519 -0.351766 0
M  V30 3432 H 317.354 -3.95494 -1.34069 0
M  V30 3433 N 317.792 -0.46758 -1.50504 0
M  V30 3434 C 319.039 0.0886219 -2.02306 0
M  V30 3435 C 319.367 1.40037 -1.34981 0
M  V30 3436 O 318.622 1.90136 -0.463318 0
M  V30 3437 C 318.921 0.323995 -3.55928 0
M  V30 3438 C 318.587 -0.905618 -4.41712 0
M  V30 3439 C 317.249 -1.24275 -4.64875 0
M  V30 3440 C 319.601 -1.72448 -4.91845 0
M  V30 3441 C 316.929 -2.39888 -5.35417 0
M  V30 3442 C 319.281 -2.87185 -5.63656 0
M  V30 3443 C 317.945 -3.21317 -5.85074 0
M  V30 3444 H 317.215 0.0324291 -0.74029 0
M  V30 3445 H 319.862 -0.620945 -1.81153 0
M  V30 3446 H 318.167 1.11577 -3.75577 0
M  V30 3447 H 319.864 0.76826 -3.93572 0
M  V30 3448 H 316.454 -0.632956 -4.239 0
M  V30 3449 H 320.638 -1.4772 -4.73806 0
M  V30 3450 H 315.894 -2.66611 -5.50208 0
M  V30 3451 H 320.068 -3.50985 -6.01484 0
M  V30 3452 H 317.695 -4.1101 -6.39511 0
M  V30 3453 N 319.27 1.56325 -0.20005 0
M  V30 3454 C 320.22 2.15939 0.731743 0
M  V30 3455 C 321.204 1.10154 1.17281 0
M  V30 3456 O 322.396 1.36203 1.13038 0
M  V30 3457 C 319.525 2.82614 1.94895 0
M  V30 3458 C 318.611 3.95596 1.52855 0
M  V30 3459 N 319.002 4.99118 0.819418 0
M  V30 3460 C 317.3 4.07288 1.81748 0
M  V30 3461 C 318.001 5.78513 0.608053 0
M  V30 3462 N 316.977 5.31117 1.15828 0
M  V30 3463 H 320.779 2.9334 0.181285 0
M  V30 3464 H 318.293 1.624 -0.000452172 0
M  V30 3465 H 320.29 3.23718 2.62702 0
M  V30 3466 H 318.95 2.06702 2.50408 0
M  V30 3467 H 319.961 5.15723 0.47436 0
M  V30 3468 H 316.638 3.42509 2.38734 0
M  V30 3469 H 318.028 6.71885 0.0451619 0
M  V30 3470 N 320.748 -0.0735177 1.57428 0
M  V30 3471 C 321.973 -0.789787 1.91774 0
M  V30 3472 C 322.398 -1.70413 0.796306 0
M  V30 3473 O 321.756 -1.79555 -0.250961 0
M  V30 3474 C 321.804 -1.5609 3.25067 0
M  V30 3475 O 320.908 -2.67144 3.14178 0
M  V30 3476 H 320.249 -0.215582 0.628029 0
M  V30 3477 H 322.779 -0.0422781 2.04556 0
M  V30 3478 H 322.789 -1.94052 3.58898 0
M  V30 3479 H 321.464 -0.890015 4.06265 0
M  V30 3480 H 320.041 -2.32052 2.91901 0
M  V30 3481 N 322.226 -1.5378 -0.344866 0
M  V30 3482 C 323.454 -1.74899 -1.10534 0
M  V30 3483 C 323.869 -0.487534 -1.82397 0
M  V30 3484 O 323.226 0.540741 -1.74305 0
M  V30 3485 C 323.277 -2.92822 -2.11984 0
M  V30 3486 O 322.998 -4.14089 -1.43044 0
M  V30 3487 C 324.499 -3.25982 -3.00417 0
M  V30 3488 H 321.719 -0.584426 -0.329678 0
M  V30 3489 H 324.263 -2.006 -0.397474 0
M  V30 3490 H 322.418 -2.69457 -2.78338 0
M  V30 3491 H 322.832 -4.80272 -2.10805 0
M  V30 3492 H 324.306 -4.11848 -3.67539 0
M  V30 3493 H 324.783 -2.42228 -3.66363 0
M  V30 3494 H 325.389 -3.51349 -2.39654 0
M  V30 3495 N 323.704 0.605807 -1.45491 0
M  V30 3496 C 324.952 1.36207 -1.49305 0
M  V30 3497 C 325.273 1.94519 -0.136863 0
M  V30 3498 O 324.543 1.77261 0.833983 0
M  V30 3499 H 323.123 0.50565 -0.549843 0
M  V30 3500 H 325.785 0.711239 -1.81459 0
M  V30 3501 H 324.881 2.18058 -2.23287 0
M  V30 3502 N 325.182 1.32811 0.848464 0
M  V30 3503 C 326.13 1.22231 1.97895 0
M  V30 3504 C 327.124 0.125749 1.68933 0
M  V30 3505 O 328.33 0.289083 1.77663 0
M  V30 3506 H 324.705 0.379058 0.649476 0
M  V30 3507 H 326.676 2.17828 2.03945 0
M  V30 3508 C 325.425 0.968572 3.33937 0
M  V30 3509 H 324.748 1.80458 3.56756 0
M  V30 3510 H 326.188 0.934808 4.13567 0
M  V30 3511 C 324.647 -0.328628 3.35293 0
M  V30 3512 O 325.177 -1.33848 3.78745 0
M  V30 3513 N 323.383 -0.352788 2.88451 0
M  V30 3514 H 322.93 0.469541 2.53285 0
M  V30 3515 H 322.888 -1.22057 2.89741 0
M  V30 3516 N 326.66 -1.06551 1.16123 0
M  V30 3517 C 327.608 -2.16063 0.861371 0
M  V30 3518 C 328.602 -1.6856 -0.168517 0
M  V30 3519 O 329.808 -1.79986 -0.0227579 0
M  V30 3520 H 326.183 -0.705278 0.260934 0
M  V30 3521 H 328.154 -2.38567 1.79244 0
M  V30 3522 C 326.903 -3.45661 0.376018 0
M  V30 3523 H 326.226 -3.82604 1.15992 0
M  V30 3524 H 327.666 -4.23504 0.204951 0
M  V30 3525 C 326.125 -3.24546 -0.903954 0
M  V30 3526 O 326.655 -3.49865 -1.97377 0
M  V30 3527 N 324.861 -2.77992 -0.846679 0
M  V30 3528 H 324.408 -2.57589 0.0241017 0
M  V30 3529 H 324.366 -2.64244 -1.70359 0
M  V30 3530 N 328.138 -0.959301 -1.25041 0
M  V30 3531 C 329.086 -0.474437 -2.2771 0
M  V30 3532 C 330.08 0.457697 -1.631 0
M  V30 3533 O 331.286 0.333912 -1.76876 0
M  V30 3534 H 327.661 -0.134936 -0.739795 0
M  V30 3535 H 329.632 -1.35251 -2.65988 0
M  V30 3536 C 328.381 0.227884 -3.46952 0
M  V30 3537 H 327.704 -0.480248 -3.96905 0
M  V30 3538 H 329.144 0.531091 -4.20661 0
M  V30 3539 C 327.603 1.452 -3.04004 0
M  V30 3540 O 328.133 2.54949 -3.10426 0
M  V30 3541 N 326.339 1.31502 -2.59144 0
M  V30 3542 H 325.886 0.422065 -2.54119 0
M  V30 3543 H 325.844 2.13521 -2.30773 0
M  V30 3544 N 329.616 1.39756 -0.72842 0
M  V30 3545 C 331.027 1.83498 -0.344289 0
M  V30 3546 C 331.378 1.60868 1.12321 0
M  V30 3547 O 330.503 1.09634 1.86573 0
M  V30 3548 C 331.098 3.33114 -0.618112 0
M  V30 3549 C 329.657 3.753 -0.287549 0
M  V30 3550 C 328.804 2.62831 -0.884048 0
M  V30 3551 H 331.755 1.28842 -0.926578 0
M  V30 3552 H 331.776 3.80334 0.112349 0
M  V30 3553 H 331.288 3.49553 -1.68625 0
M  V30 3554 H 329.389 3.64451 0.775012 0
M  V30 3555 H 329.502 4.72945 -0.765512 0
M  V30 3556 H 327.866 2.52792 -0.311149 0
M  V30 3557 H 328.649 2.82078 -1.95671 0
M  V30 3558 N 331.094 0.475555 1.50254 0
M  V30 3559 C 332.322 -0.0754493 2.06762 0
M  V30 3560 C 332.737 -1.33111 1.33891 0
M  V30 3561 O 332.094 -1.77846 0.40952 0
M  V30 3562 C 332.145 -0.359008 3.59713 0
M  V30 3563 O 331.866 0.846851 4.29837 0
M  V30 3564 C 333.367 -0.956484 4.32858 0
M  V30 3565 H 330.587 0.00907525 0.670939 0
M  V30 3566 H 333.131 0.665618 1.93364 0
M  V30 3567 H 331.286 -1.05001 3.72899 0
M  V30 3568 H 331.7 0.594162 5.21124 0
M  V30 3569 H 333.174 -1.10463 5.40834 0
M  V30 3570 H 333.651 -1.94775 3.93649 0
M  V30 3571 H 334.257 -0.303723 4.24214 0
M  V30 3572 N 332.573 -1.56217 0.208337 0
M  V30 3573 C 333.821 -1.97558 -0.426076 0
M  V30 3574 C 334.142 -1.09683 -1.61229 0
M  V30 3575 O 333.412 -0.170956 -1.95153 0
M  V30 3576 H 331.992 -0.729575 -0.160405 0
M  V30 3577 H 334.654 -1.92606 0.298155 0
M  V30 3578 H 333.75 -3.02672 -0.761312 0
M  V30 3579 N 334.051 0.0651679 -1.57465 0
M  V30 3580 C 335.297 0.764193 -1.87851 0
M  V30 3581 C 335.63 1.76889 -0.801495 0
M  V30 3582 O 334.905 1.93594 0.187528 0
M  V30 3583 C 335.188 1.46625 -3.28897 0
M  V30 3584 C 335.041 0.477515 -4.47258 0
M  V30 3585 C 336.36 2.4095 -3.68281 0
M  V30 3586 H 333.479 0.276351 -0.683227 0
M  V30 3587 H 336.121 0.0272868 -1.8998 0
M  V30 3588 H 334.271 2.09438 -3.27212 0
M  V30 3589 H 335.943 -0.145922 -4.61069 0
M  V30 3590 H 334.186 -0.206576 -4.33308 0
M  V30 3591 H 334.857 1.0065 -5.42746 0
M  V30 3592 H 337.333 1.88209 -3.71102 0
M  V30 3593 H 336.209 2.87072 -4.67847 0
M  V30 3594 H 336.47 3.26049 -2.98571 0
M  V30 3595 N 335.529 1.53961 0.336706 0
M  V30 3596 C 336.439 1.85432 1.43708 0
M  V30 3597 C 337.455 0.745053 1.57242 0
M  V30 3598 O 338.631 1.03804 1.72588 0
M  V30 3599 C 335.696 2.06349 2.78605 0
M  V30 3600 C 334.757 3.30191 2.74358 0
M  V30 3601 C 333.99 3.50101 4.02822 0
M  V30 3602 O 334.213 2.7371 5.00439 0
M  V30 3603 O 333.147 4.43547 4.06878 0
M  V30 3604 H 336.973 2.78975 1.20028 0
M  V30 3605 H 334.558 1.39701 0.52952 0
M  V30 3606 H 336.44 2.21513 3.58483 0
M  V30 3607 H 335.115 1.15995 3.02203 0
M  V30 3608 H 334.022 3.20425 1.93078 0
M  V30 3609 H 335.355 4.2056 2.55715 0
M  V30 3610 N 337.007 -0.598083 1.45811 0
M  V30 3611 C 338.253 -1.35882 1.50545 0
M  V30 3612 C 338.586 -1.93616 0.150445 0
M  V30 3613 O 337.861 -1.75604 -0.83628 0
M  V30 3614 C 338.144 -2.49966 2.59208 0
M  V30 3615 C 337.997 -1.97367 4.04186 0
M  V30 3616 C 339.316 -3.52068 2.64076 0
M  V30 3617 H 336.435 -0.492717 0.548087 0
M  V30 3618 H 339.077 -0.673319 1.77669 0
M  V30 3619 H 337.227 -3.08443 2.3621 0
M  V30 3620 H 338.899 -1.43466 4.38423 0
M  V30 3621 H 337.142 -1.283 4.14393 0
M  V30 3622 H 337.813 -2.79649 4.75921 0
M  V30 3623 H 340.289 -3.03448 2.84708 0
M  V30 3624 H 339.165 -4.2937 3.41954 0
M  V30 3625 H 339.426 -4.08304 1.69531 0
M  V30 3626 N 338.485 -1.33259 -0.841409 0
M  V30 3627 C 339.901 -1.12538 -1.13169 0
M  V30 3628 C 340.101 0.0854037 -2.01319 0
M  V30 3629 O 339.157 0.766417 -2.40587 0
M  V30 3630 C 340.47 -2.41156 -1.79623 0
M  V30 3631 C 342.018 -2.47038 -1.922 0
M  V30 3632 C 342.493 -3.7561 -2.6207 0
M  V30 3633 N 343.984 -3.76667 -2.69585 0
M  V30 3634 C 344.719 -4.72861 -3.2433 0
M  V30 3635 N 344.215 -5.79428 -3.79783 0
M  V30 3636 N 346.008 -4.6034 -3.22558 0
M  V30 3637 H 338.159 -2.10868 -0.254676 0
M  V30 3638 H 340.422 -0.931615 -0.175493 0
M  V30 3639 H 340.128 -3.29747 -1.22311 0
M  V30 3640 H 340.002 -2.53114 -2.79666 0
M  V30 3641 H 342.389 -1.58898 -2.48667 0
M  V30 3642 H 342.47 -2.39022 -0.911148 0
M  V30 3643 H 342.114 -4.64131 -2.06263 0
M  V30 3644 H 342.044 -3.80902 -3.63622 0
M  V30 3645 H 344.535 -2.99648 -2.30259 0
M  V30 3646 H 344.848 -6.48867 -4.19752 0
M  V30 3647 H 343.193 -5.83166 -3.78078 0
M  V30 3648 H 346.384 -3.76244 -2.78492 0
M  V30 3649 H 346.557 -5.35478 -3.64921 0
M  V30 3650 N 339.963 1.05934 -1.16686 0
M  V30 3651 C 341.379 1.30938 -0.912542 0
M  V30 3652 C 341.579 1.96803 0.432533 0
M  V30 3653 O 340.635 2.23693 1.17123 0
M  V30 3654 C 341.948 2.18649 -2.06429 0
M  V30 3655 C 343.496 2.32055 -2.10047 0
M  V30 3656 C 343.971 3.23122 -3.24586 0
M  V30 3657 N 345.462 3.30706 -3.24327 0
M  V30 3658 C 346.197 4.01273 -4.09594 0
M  V30 3659 N 345.693 4.74332 -5.04956 0
M  V30 3660 N 347.486 3.97361 -3.97569 0
M  V30 3661 H 339.637 0.615777 -2.03278 0
M  V30 3662 H 341.9 0.334077 -0.887185 0
M  V30 3663 H 341.606 1.77534 -3.03603 0
M  V30 3664 H 341.48 3.19252 -2.00894 0
M  V30 3665 H 343.867 2.72415 -1.13464 0
M  V30 3666 H 343.948 1.31107 -2.19647 0
M  V30 3667 H 343.592 2.83477 -4.2143 0
M  V30 3668 H 343.522 4.24057 -3.12223 0
M  V30 3669 H 346.013 2.78644 -2.55276 0
M  V30 3670 H 346.326 5.25716 -5.6643 0
M  V30 3671 H 344.671 4.733 -5.08933 0
M  V30 3672 H 347.862 3.39405 -3.22369 0
M  V30 3673 H 348.035 4.52089 -4.64241 0
M  V30 3674 N 341.441 0.965919 1.2453 0
M  V30 3675 C 342.669 0.644385 1.96609 0
M  V30 3676 C 343.084 -0.785823 1.71669 0
M  V30 3677 O 342.441 -1.52703 0.999399 0
M  V30 3678 C 342.492 0.907375 3.49927 0
M  V30 3679 O 342.213 2.28136 3.74013 0
M  V30 3680 C 343.714 0.599784 4.39224 0
M  V30 3681 H 340.934 0.240588 0.626385 0
M  V30 3682 H 343.478 1.29337 1.58405 0
M  V30 3683 H 341.633 0.304631 3.862 0
M  V30 3684 H 342.047 2.36002 4.68405 0
M  V30 3685 H 343.521 0.834263 5.45659 0
M  V30 3686 H 343.998 -0.465921 4.36722 0
M  V30 3687 H 344.604 1.18235 4.08535 0
M  V30 3688 N 342.919 -1.39368 0.735821 0
M  V30 3689 C 344.144 -2.05319 0.293052 0
M  V30 3690 C 344.569 -1.55115 -1.064 0
M  V30 3691 O 343.927 -0.695261 -1.67439 0
M  V30 3692 C 343.975 -3.59305 0.305323 0
M  V30 3693 O 343.079 -4.06299 -0.706761 0
M  V30 3694 H 342.42 -0.650529 0.13307 0
M  V30 3695 H 344.95 -1.78386 1.00197 0
M  V30 3696 H 344.96 -4.07724 0.149997 0
M  V30 3697 H 343.635 -3.95207 1.29553 0
M  V30 3698 H 342.212 -3.69292 -0.517504 0
M  V30 3699 N 344.397 -0.483516 -1.5 0
M  V30 3700 C 345.344 0.304164 -2.28787 0
M  V30 3701 C 346.314 0.976114 -1.34392 0
M  V30 3702 O 347.499 0.986156 -1.63339 0
M  V30 3703 C 344.639 1.37298 -3.16612 0
M  V30 3704 C 343.752 0.714561 -4.26049 0
M  V30 3705 C 342.887 1.76232 -5.01114 0
M  V30 3706 C 341.926 1.08483 -6.0241 0
M  V30 3707 N 341.063 2.076 -6.70706 0
M  V30 3708 H 345.903 -0.373981 -2.95644 0
M  V30 3709 H 343.44 -0.196275 -1.45785 0
M  V30 3710 H 345.398 2.00445 -3.65893 0
M  V30 3711 H 344.028 2.02012 -2.51776 0
M  V30 3712 H 343.08 -0.0297798 -3.80388 0
M  V30 3713 H 344.392 0.180383 -4.98474 0
M  V30 3714 H 343.546 2.46929 -5.54176 0
M  V30 3715 H 342.285 2.33033 -4.28424 0
M  V30 3716 H 341.29 0.363545 -5.48597 0
M  V30 3717 H 342.515 0.523551 -6.77079 0
M  V30 3718 H 340.461 2.63394 -6.00799 0
M  V30 3719 H 340.378 1.59201 -7.39047 0
M  V30 3720 H 341.646 2.77639 -7.2838 0
M  V30 3721 N 345.875 1.56104 -0.216619 0
M  V30 3722 C 346.838 2.18819 0.681962 0
M  V30 3723 C 347.838 1.14866 1.12528 0
M  V30 3724 O 349.028 1.40128 1.03488 0
M  V30 3725 C 346.16 2.80756 1.93362 0
M  V30 3726 H 347.353 2.99595 0.135254 0
M  V30 3727 H 344.906 1.56265 0.0330003 0
M  V30 3728 H 345.641 2.03837 2.52232 0
M  V30 3729 H 345.426 3.56876 1.62426 0
M  V30 3730 H 346.916 3.28844 2.57393 0
M  V30 3731 N 347.353 -0.0568162 1.57498 0
M  V30 3732 C 348.263 -1.08346 2.08083 0
M  V30 3733 C 349.279 -1.41439 1.01346 0
M  V30 3734 O 350.455 -1.51316 1.32912 0
M  V30 3735 C 347.52 -2.37352 2.52715 0
M  V30 3736 C 346.581 -2.11093 3.73816 0
M  V30 3737 C 345.814 -3.33949 4.1631 0
M  V30 3738 O 346.037 -4.43622 3.58547 0
M  V30 3739 O 344.971 -3.21279 5.08983 0
M  V30 3740 H 348.797 -0.683667 2.95905 0
M  V30 3741 H 346.382 -0.271965 1.46904 0
M  V30 3742 H 348.264 -3.13246 2.81877 0
M  V30 3743 H 346.939 -2.76681 1.68016 0
M  V30 3744 H 345.846 -1.32856 3.49714 0
M  V30 3745 H 347.179 -1.76637 4.59413 0
M  V30 3746 N 348.832 -1.54138 -0.328536 0
M  V30 3747 C 349.795 -1.82462 -1.38709 0
M  V30 3748 C 350.795 -0.696229 -1.44946 0
M  V30 3749 O 351.985 -0.964535 -1.4506 0
M  V30 3750 C 349.117 -1.98018 -2.77492 0
M  V30 3751 H 350.31 -2.77037 -1.14851 0
M  V30 3752 H 347.863 -1.45779 -0.563751 0
M  V30 3753 H 348.598 -1.05637 -3.06613 0
M  V30 3754 H 348.383 -2.80124 -2.74359 0
M  V30 3755 H 349.873 -2.21396 -3.54081 0
M  V30 3756 N 350.31 0.590341 -1.46126 0
M  V30 3757 C 351.242 1.71427 -1.52136 0
M  V30 3758 C 352.255 1.57542 -0.41042 0
M  V30 3759 O 353.444 1.65106 -0.678389 0
M  V30 3760 C 350.544 3.09605 -1.37834 0
M  V30 3761 C 349.717 3.49566 -2.62912 0
M  V30 3762 C 348.776 4.66773 -2.42918 0
M  V30 3763 O 347.802 4.73019 -3.1661 0
M  V30 3764 N 349.004 5.61161 -1.4859 0
M  V30 3765 H 351.769 1.66728 -2.49042 0
M  V30 3766 H 349.33 0.776113 -1.42085 0
M  V30 3767 H 351.322 3.85796 -1.22243 0
M  V30 3768 H 349.892 3.08714 -0.491393 0
M  V30 3769 H 349.112 2.63158 -2.93499 0
M  V30 3770 H 350.4 3.73028 -3.46017 0
M  V30 3771 H 349.798 5.58844 -0.87808 0
M  V30 3772 H 348.355 6.36814 -1.38965 0
M  V30 3773 N 351.788 1.33704 0.83433 0
M  V30 3774 C 352.735 1.24335 1.94447 0
M  V30 3775 C 353.705 0.120991 1.65659 0
M  V30 3776 O 354.89 0.300035 1.88426 0
M  V30 3777 C 352.03 0.993124 3.30501 0
M  V30 3778 C 351.143 2.20217 3.71657 0
M  V30 3779 C 350.278 1.88572 4.96602 0
M  V30 3780 C 349.317 3.05683 5.30306 0
M  V30 3781 N 348.454 2.73997 6.46429 0
M  V30 3782 H 353.294 2.1928 2.01792 0
M  V30 3783 H 350.831 1.09035 0.987404 0
M  V30 3784 H 352.789 0.828467 4.08892 0
M  V30 3785 H 351.419 0.0803902 3.227 0
M  V30 3786 H 350.471 2.47642 2.88752 0
M  V30 3787 H 351.783 3.07752 3.92543 0
M  V30 3788 H 350.937 1.68776 5.82752 0
M  V30 3789 H 349.676 0.982799 4.77695 0
M  V30 3790 H 348.681 3.26088 4.42659 0
M  V30 3791 H 349.906 3.96737 5.51159 0
M  V30 3792 H 347.852 1.86268 6.28999 0
M  V30 3793 H 347.769 3.55064 6.67432 0
M  V30 3794 H 349.037 2.57679 7.35678 0
M  V30 3795 N 353.266 -1.05314 1.17247 0
M  V30 3796 C 354.543 -1.75184 0.87005 0
M  V30 3797 C 354.923 -2.01481 -0.629965 0
M  V30 3798 O 354.271 -1.64988 -1.58086 0
M  V30 3799 C 354.481 -3.04594 1.70363 0
M  V30 3800 C 355.829 -3.78567 1.92281 0
M  V30 3801 O 356.853 -3.14461 1.67311 0
M  V30 3802 O 355.712 -4.93755 2.3424 0
M  V30 3803 H 352.806 -0.761729 0.322021 0
M  V30 3804 H 355.352 -1.11493 1.27935 0
M  V30 3805 H 354.124 -2.81201 2.72106 0
M  V30 3806 H 353.747 -3.76022 1.29202 0
M  V30 3807 N 354.744 -0.972509 -1.24016 0
M  V30 3808 C 355.972 -0.654803 -1.96265 0
M  V30 3809 C 356.387 0.776708 -1.72083 0
M  V30 3810 O 355.744 1.52171 -1.00748 0
M  V30 3811 C 355.795 -0.92592 -3.49441 0
M  V30 3812 O 355.516 -2.30116 -3.72798 0
M  V30 3813 C 357.017 -0.623068 -4.38899 0
M  V30 3814 H 354.237 -0.243907 -0.6251 0
M  V30 3815 H 356.781 -1.30175 -1.57717 0
M  V30 3816 H 354.936 -0.325108 -3.86033 0
M  V30 3817 H 355.35 -2.38483 -4.67147 0
M  V30 3818 H 356.824 -0.863189 -5.45209 0
M  V30 3819 H 357.301 0.442754 -4.36963 0
M  V30 3820 H 357.907 -1.204 -4.07902 0
M  V30 3821 N 356.222 1.38976 -0.743202 0
M  V30 3822 C 357.468 2.0064 -0.295189 0
M  V30 3823 C 357.801 1.5885 1.11716 0
M  V30 3824 O 357.076 0.821181 1.76315 0
M  V30 3825 C 357.359 3.578 -0.406318 0
M  V30 3826 C 357.212 4.09586 -1.85903 0
M  V30 3827 C 358.531 4.39616 0.206439 0
M  V30 3828 H 355.65 0.728935 -0.108733 0
M  V30 3829 H 358.292 1.65067 -0.940897 0
M  V30 3830 H 356.442 3.88235 0.143419 0
M  V30 3831 H 358.114 3.89837 -2.46627 0
M  V30 3832 H 356.357 3.6284 -2.3776 0
M  V30 3833 H 357.028 5.18708 -1.888 0
M  V30 3834 H 359.504 4.15273 -0.262283 0
M  V30 3835 H 358.38 5.48812 0.0983819 0
M  V30 3836 H 358.641 4.22754 1.2935 0
M  V30 3837 N 357.7 0.491464 1.49741 0
M  V30 3838 C 359.111 0.0413169 1.86654 0
M  V30 3839 C 359.462 -1.36985 1.40462 0
M  V30 3840 O 358.587 -2.01917 0.778354 0
M  V30 3841 C 359.182 0.0682023 3.38731 0
M  V30 3842 C 357.741 -0.32656 3.74981 0
M  V30 3843 C 356.888 0.444888 2.73708 0
M  V30 3844 H 359.839 0.704733 1.42194 0
M  V30 3845 H 359.86 -0.729322 3.73445 0
M  V30 3846 H 359.372 1.09539 3.72321 0
M  V30 3847 H 357.473 -1.35734 3.46997 0
M  V30 3848 H 357.586 -0.013741 4.79098 0
M  V30 3849 H 355.95 -0.104062 2.54487 0
M  V30 3850 H 356.733 1.47197 3.10142 0
M  V30 3851 N 359.178 -1.55987 0.224894 0
M  V30 3852 C 360.425 -1.9839 -0.4059 0
M  V30 3853 C 360.753 -1.11261 -1.59535 0
M  V30 3854 O 360.008 -0.158314 -1.95059 0
M  V30 3855 C 360.307 -3.46394 -0.880106 0
M  V30 3856 C 359.973 -4.5046 0.19918 0
M  V30 3857 C 358.635 -4.7864 0.495661 0
M  V30 3858 C 360.987 -5.12855 0.928939 0
M  V30 3859 C 358.315 -5.66497 1.52636 0
M  V30 3860 C 360.667 -6.01828 1.949 0
M  V30 3861 C 359.331 -6.28351 2.25236 0
M  V30 3862 H 358.601 -0.725961 -0.148529 0
M  V30 3863 H 361.248 -1.88668 0.328113 0
M  V30 3864 H 359.553 -3.53337 -1.69294 0
M  V30 3865 H 361.25 -3.76577 -1.37808 0
M  V30 3866 H 357.84 -4.28579 -0.0420526 0
M  V30 3867 H 362.024 -4.9115 0.713129 0
M  V30 3868 H 357.28 -5.8531 1.76698 0
M  V30 3869 H 361.454 -6.49225 2.51951 0
M  V30 3870 H 359.081 -6.96226 3.05244 0
M  V30 3871 N 360.656 0.0484629 -1.57525 0
M  V30 3872 C 361.902 0.738854 -1.89506 0
M  V30 3873 C 362.257 1.73989 -0.821319 0
M  V30 3874 O 361.55 1.90825 0.172129 0
M  V30 3875 C 361.744 1.46632 -3.25935 0
M  V30 3876 C 361.573 0.537254 -4.46479 0
M  V30 3877 C 360.343 0.165484 -5.05029 0
M  V30 3878 C 362.541 -0.176085 -5.13998 0
M  V30 3879 N 360.523 -0.766868 -6.09091 0
M  V30 3880 C 361.894 -0.96478 -6.12448 0
M  V30 3881 C 363.949 -0.24509 -4.97296 0
M  V30 3882 C 362.652 -1.8161 -6.95996 0
M  V30 3883 C 364.678 -1.08347 -5.81391 0
M  V30 3884 C 364.04 -1.86014 -6.79395 0
M  V30 3885 H 360.139 0.245067 -0.742608 0
M  V30 3886 H 362.723 -0.000476161 -1.947 0
M  V30 3887 H 360.894 2.17623 -3.21706 0
M  V30 3888 H 362.626 2.10757 -3.45491 0
M  V30 3889 H 359.381 0.523466 -4.70698 0
M  V30 3890 H 359.805 -1.22698 -6.65788 0
M  V30 3891 H 364.447 0.341063 -4.21422 0
M  V30 3892 H 362.165 -2.41313 -7.71229 0
M  V30 3893 H 365.751 -1.14014 -5.70519 0
M  V30 3894 H 364.631 -2.4984 -7.43337 0
M  V30 3895 N 362.134 1.5431 0.320358 0
M  V30 3896 C 363.545 1.63872 0.894594 0
M  V30 3897 C 363.896 0.534847 1.88769 0
M  V30 3898 O 363.021 -0.331732 2.13842 0
M  V30 3899 C 363.616 2.97049 1.62934 0
M  V30 3900 C 362.175 3.08796 2.15226 0
M  V30 3901 C 361.322 2.59456 0.978671 0
M  V30 3902 H 364.273 1.58398 0.0978544 0
M  V30 3903 H 364.294 2.87388 2.49376 0
M  V30 3904 H 363.806 3.7737 0.906302 0
M  V30 3905 H 361.907 2.33156 2.90636 0
M  V30 3906 H 362.02 4.14649 2.40006 0
M  V30 3907 H 360.384 2.1543 1.35875 0
M  V30 3908 H 361.167 3.42237 0.269895 0
M  V30 3909 N 363.613 -0.582584 1.46437 0
M  V30 3910 C 364.843 -1.36484 1.55099 0
M  V30 3911 C 365.251 -1.88233 0.191056 0
M  V30 3912 O 364.594 -1.6429 -0.821858 0
M  V30 3913 C 364.656 -2.588 2.49525 0
M  V30 3914 C 364.32 -2.28517 3.95764 0
M  V30 3915 C 365.317 -1.87346 4.84972 0
M  V30 3916 C 363.002 -2.40658 4.40896 0
M  V30 3917 C 364.996 -1.5871 6.17325 0
M  V30 3918 C 362.683 -2.11635 5.73284 0
M  V30 3919 C 363.681 -1.70725 6.61318 0
M  V30 3920 O 363.369 -1.42057 7.91249 0
M  V30 3921 H 363.101 -0.423297 0.527063 0
M  V30 3922 H 365.655 -0.715188 1.92547 0
M  V30 3923 H 363.885 -3.26571 2.07095 0
M  V30 3924 H 365.574 -3.20868 2.48593 0
M  V30 3925 H 366.34 -1.77481 4.5136 0
M  V30 3926 H 362.219 -2.71463 3.72598 0
M  V30 3927 H 365.763 -1.26704 6.85997 0
M  V30 3928 H 361.66 -2.21124 6.06444 0
M  V30 3929 H 362.428 -1.55901 8.03515 0
M  V30 3930 N 365.091 -1.34144 -0.827227 0
M  V30 3931 C 366.338 -1.26258 -1.58319 0
M  V30 3932 C 366.666 0.168595 -1.93768 0
M  V30 3933 O 365.921 1.12877 -1.59866 0
M  V30 3934 C 366.22 -2.09464 -2.89585 0
M  V30 3935 C 365.886 -3.58521 -2.73448 0
M  V30 3936 C 364.548 -3.99155 -2.68754 0
M  V30 3937 C 366.9 -4.53189 -2.57428 0
M  V30 3938 C 364.228 -5.32656 -2.45957 0
M  V30 3939 C 366.58 -5.86864 -2.36163 0
M  V30 3940 C 365.244 -6.26667 -2.29879 0
M  V30 3941 H 364.514 -0.462013 -0.579332 0
M  V30 3942 H 367.161 -1.65845 -0.95748 0
M  V30 3943 H 365.466 -1.62692 -3.56425 0
M  V30 3944 H 367.163 -2.00712 -3.47154 0
M  V30 3945 H 363.753 -3.26264 -2.77939 0
M  V30 3946 H 367.937 -4.22696 -2.60081 0
M  V30 3947 H 363.193 -5.62519 -2.39546 0
M  V30 3948 H 367.367 -6.59813 -2.22754 0
M  V30 3949 H 364.994 -7.30049 -2.11975 0
M  V30 3950 N 366.569 1.04691 -1.17803 0
M  V30 3951 C 367.818 1.77176 -0.963931 0
M  V30 3952 C 368.131 1.88888 0.508015 0
M  V30 3953 O 369.337 2.58164 0.840465 0
M  V30 3954 C 367.793 3.18518 -1.67555 0
M  V30 3955 C 367.401 3.14919 -3.18637 0
M  V30 3956 C 369.145 3.95424 -1.54402 0
M  V30 3957 C 367.052 4.51081 -3.82466 0
M  V30 3958 H 365.982 0.664116 -0.357023 0
M  V30 3959 H 368.633 1.17303 -1.4111 0
M  V30 3960 H 367.015 3.78748 -1.15613 0
M  V30 3961 H 368.189 2.64178 -3.77554 0
M  V30 3962 H 366.504 2.51512 -3.31859 0
M  V30 3963 H 369.101 4.96106 -1.99456 0
M  V30 3964 H 369.444 4.13343 -0.495329 0
M  V30 3965 H 369.977 3.41754 -2.0359 0
M  V30 3966 H 366.716 4.38368 -4.87354 0
M  V30 3967 H 366.236 5.01951 -3.28337 0
M  V30 3968 H 367.915 5.2001 -3.84965 0
M  V30 3969 N 368.047 0.979072 1.23499 0
M  V30 3970 C 369.296 0.642751 1.91185 0
M  V30 3971 C 369.609 -0.827253 1.77245 0
M  V30 3972 O 370.815 -1.27458 2.39722 0
M  V30 3973 C 369.271 1.09901 3.42709 0
M  V30 3974 C 368.879 2.59327 3.65313 0
M  V30 3975 C 370.623 0.836371 4.16179 0
M  V30 3976 C 368.53 2.98627 5.10467 0
M  V30 3977 H 367.46 0.236698 0.715884 0
M  V30 3978 H 370.111 1.1868 1.39955 0
M  V30 3979 H 368.493 0.48319 3.93041 0
M  V30 3980 H 369.667 3.26136 3.25533 0
M  V30 3981 H 367.982 2.83323 3.05151 0
M  V30 3982 H 370.579 1.10586 5.23139 0
M  V30 3983 H 370.922 -0.227509 4.15678 0
M  V30 3984 H 371.455 1.41371 3.71832 0
M  V30 3985 H 368.194 4.04133 5.16098 0
M  V30 3986 H 367.714 2.3651 5.51201 0
M  V30 3987 H 369.393 2.89159 5.78788 0
M  V30 3988 N 369.525 -1.3858 0.750561 0
M  V30 3989 C 370.472 -2.30483 0.120835 0
M  V30 3990 C 371.442 -1.50022 -0.712923 0
M  V30 3991 O 372.627 -1.78662 -0.669676 0
M  V30 3992 C 369.767 -3.36431 -0.768666 0
M  V30 3993 C 368.88 -4.31927 0.0793922 0
M  V30 3994 C 368.015 -5.24944 -0.81283 0
M  V30 3995 C 367.054 -6.12088 0.0390447 0
M  V30 3996 N 366.191 -6.97412 -0.809969 0
M  V30 3997 H 371.031 -2.83761 0.91015 0
M  V30 3998 H 368.568 -1.39707 0.460463 0
M  V30 3999 H 370.526 -3.96462 -1.29898 0
M  V30 4000 H 369.156 -2.8457 -1.5238 0
M  V30 4001 H 368.208 -3.73382 0.727303 0
M  V30 4002 H 369.52 -4.93319 0.737401 0
M  V30 4003 H 368.674 -5.90078 -1.41042 0
M  V30 4004 H 367.413 -4.63911 -1.50458 0
M  V30 4005 H 366.418 -5.45952 0.649328 0
M  V30 4006 H 367.643 -6.75189 0.727809 0
M  V30 4007 H 365.589 -6.38931 -1.48672 0
M  V30 4008 H 365.506 -7.55712 -0.208789 0
M  V30 4009 H 366.774 -7.66959 -1.39263 0
M  V30 4010 N 371.003 -0.499398 -1.49478 0
M  V30 4011 C 372.28 0.108629 -1.95298 0
M  V30 4012 C 372.66 1.54282 -1.44084 0
M  V30 4013 O 372.008 2.18944 -0.653908 0
M  V30 4014 C 372.218 0.0229111 -3.48992 0
M  V30 4015 C 373.566 0.197643 -4.2414 0
M  V30 4016 O 374.59 0.0981735 -3.56065 0
M  V30 4017 O 373.449 0.401669 -5.45022 0
M  V30 4018 H 370.543 0.096181 -0.821388 0
M  V30 4019 H 373.089 -0.561822 -1.6013 0
M  V30 4020 H 371.861 -0.977321 -3.78899 0
M  V30 4021 H 371.484 0.733579 -3.90774 0
M  V30 4022 N 372.481 1.55866 -0.233164 0
M  V30 4023 C 373.727 1.98897 0.395959 0
M  V30 4024 C 374.06 1.12091 1.58585 0
M  V30 4025 O 373.335 0.181182 1.93654 0
M  V30 4026 C 373.618 3.50658 0.819224 0
M  V30 4027 C 373.471 4.48233 -0.375109 0
M  V30 4028 C 374.79 4.07135 1.67121 0
M  V30 4029 H 371.909 0.723102 0.142451 0
M  V30 4030 H 374.551 1.87082 -0.331725 0
M  V30 4031 H 372.701 3.60857 1.43925 0
M  V30 4032 H 374.373 4.50031 -1.01341 0
M  V30 4033 H 372.616 4.21624 -1.02058 0
M  V30 4034 H 373.287 5.51988 -0.0358328 0
M  V30 4035 H 375.763 3.99952 1.14795 0
M  V30 4036 H 374.639 5.13615 1.93625 0
M  V30 4037 H 374.9 3.54736 2.63846 0
M  V30 4038 N 373.959 -0.0401083 1.57549 0
M  V30 4039 C 375.206 -0.733125 1.88763 0
M  V30 4040 C 375.534 -1.75946 0.829058 0
M  V30 4041 O 374.789 -1.94949 -0.171323 0
M  V30 4042 C 375.088 -1.44902 3.26708 0
M  V30 4043 C 374.754 -0.559707 4.47413 0
M  V30 4044 C 373.416 -0.314731 4.8017 0
M  V30 4045 C 375.768 0.0549743 5.21171 0
M  V30 4046 C 373.096 0.553886 5.8408 0
M  V30 4047 C 375.448 0.911229 6.26003 0
M  V30 4048 C 374.112 1.16577 6.57241 0
M  V30 4049 H 373.382 -0.268269 0.690733 0
M  V30 4050 H 376.029 0.00679408 1.91499 0
M  V30 4051 H 374.334 -2.26197 3.1991 0
M  V30 4052 H 376.031 -1.99058 3.48105 0
M  V30 4053 H 372.621 -0.760793 4.21794 0
M  V30 4054 H 376.805 -0.121344 4.96152 0
M  V30 4055 H 372.061 0.759518 6.06664 0
M  V30 4056 H 376.235 1.3941 6.82303 0
M  V30 4057 H 373.862 1.84058 7.37582 0
M  V30 4058 N 375.437 -1.54477 -0.31217 0
M  V30 4059 C 376.4 -1.83923 -1.36766 0
M  V30 4060 C 377.4 -0.711563 -1.44199 0
M  V30 4061 O 378.59 -0.979866 -1.44029 0
M  V30 4062 C 375.722 -2.0095 -2.75376 0
M  V30 4063 H 376.915 -2.78239 -1.11906 0
M  V30 4064 H 374.468 -1.46369 -0.548257 0
M  V30 4065 H 375.203 -1.08883 -3.05475 0
M  V30 4066 H 374.988 -2.83018 -2.71373 0
M  V30 4067 H 376.478 -2.2514 -3.51713 0
M  V30 4068 N 376.915 0.57481 -1.46744 0
M  V30 4069 C 377.845 1.69337 -1.60771 0
M  V30 4070 C 378.826 1.63825 -0.457736 0
M  V30 4071 O 380.011 1.8172 -0.684947 0
M  V30 4072 C 377.141 3.0798 -1.60517 0
M  V30 4073 C 376.095 3.28327 -2.74564 0
M  V30 4074 C 375.421 4.67578 -2.59373 0
M  V30 4075 C 376.721 3.15398 -4.16319 0
M  V30 4076 H 378.415 1.57853 -2.54407 0
M  V30 4077 H 375.961 0.75799 -1.22436 0
M  V30 4078 H 377.914 3.86061 -1.68923 0
M  V30 4079 H 376.638 3.20381 -0.634305 0
M  V30 4080 H 375.297 2.52649 -2.65639 0
M  V30 4081 H 374.945 4.76755 -1.60353 0
M  V30 4082 H 374.645 4.82144 -3.35873 0
M  V30 4083 H 376.169 5.47817 -2.69682 0
M  V30 4084 H 377.583 3.83315 -4.26313 0
M  V30 4085 H 375.98 3.41482 -4.93468 0
M  V30 4086 H 377.05 2.12372 -4.3592 0
M  V30 4087 N 378.394 1.34581 0.820102 0
M  V30 4088 C 379.357 1.2628 1.91275 0
M  V30 4089 C 380.357 0.177344 1.59819 0
M  V30 4090 O 381.547 0.430156 1.68806 0
M  V30 4091 C 378.679 0.950327 3.27386 0
M  V30 4092 H 379.872 2.23421 2.00057 0
M  V30 4093 H 377.425 1.1891 1.0144 0
M  V30 4094 H 378.16 -0.0177938 3.24295 0
M  V30 4095 H 377.945 1.73549 3.51601 0
M  V30 4096 H 379.435 0.917492 4.07396 0
M  V30 4097 N 379.872 -1.04064 1.18357 0
M  V30 4098 C 381.118 -1.77528 0.980397 0
M  V30 4099 C 381.451 -1.87948 -0.48879 0
M  V30 4100 O 380.726 -1.3876 -1.36293 0
M  V30 4101 C 381.009 -3.20797 1.63588 0
M  V30 4102 C 380.862 -3.1832 3.17793 0
M  V30 4103 C 382.181 -4.18911 1.34914 0
M  V30 4104 H 379.3 -0.644443 0.357578 0
M  V30 4105 H 381.942 -1.2156 1.46024 0
M  V30 4106 H 380.092 -3.68586 1.22788 0
M  V30 4107 H 381.764 -2.78521 3.67728 0
M  V30 4108 H 380.007 -2.56351 3.49952 0
M  V30 4109 H 380.678 -4.19489 3.58794 0
M  V30 4110 H 383.154 -3.7967 1.70265 0
M  V30 4111 H 382.03 -5.17374 1.83346 0
M  V30 4112 H 382.291 -4.41262 0.272027 0
M  V30 4113 N 381.35 -0.985608 -1.22978 0
M  V30 4114 C 382.596 -0.65836 -1.91816 0
M  V30 4115 C 382.929 0.806692 -1.76653 0
M  V30 4116 O 382.204 1.58252 -1.13078 0
M  V30 4117 C 382.487 -1.056 -3.44268 0
M  V30 4118 C 382.34 -2.57906 -3.68516 0
M  V30 4119 C 383.659 -0.603781 -4.35939 0
M  V30 4120 H 380.778 -0.24065 -0.696604 0
M  V30 4121 H 383.42 -1.22783 -1.44998 0
M  V30 4122 H 381.57 -0.571445 -3.84274 0
M  V30 4123 H 383.242 -3.13976 -3.3796 0
M  V30 4124 H 381.485 -3.00305 -3.13048 0
M  V30 4125 H 382.156 -2.80779 -4.75255 0
M  V30 4126 H 384.632 -1.01987 -4.03408 0
M  V30 4127 H 383.508 -0.910383 -5.41298 0
M  V30 4128 H 383.769 0.495761 -4.39312 0
M  V30 4129 N 382.828 1.3818 -0.7579 0
M  V30 4130 C 383.758 2.33027 -0.148597 0
M  V30 4131 C 384.739 1.55085 0.69875 0
M  V30 4132 O 385.924 1.83384 0.639053 0
M  V30 4133 C 383.054 3.3928 0.742034 0
M  V30 4134 C 382.008 4.28 -0.00291946 0
M  V30 4135 C 381.334 5.25146 1.00625 0
M  V30 4136 C 382.634 5.08938 -1.17385 0
M  V30 4137 H 384.328 2.84231 -0.940909 0
M  V30 4138 H 381.874 1.36659 -0.453908 0
M  V30 4139 H 383.827 4.046 1.17799 0
M  V30 4140 H 382.551 2.86569 1.56671 0
M  V30 4141 H 381.21 3.64192 -0.419504 0
M  V30 4142 H 380.858 4.68721 1.8251 0
M  V30 4143 H 380.558 5.85361 0.512428 0
M  V30 4144 H 382.082 5.93342 1.44143 0
M  V30 4145 H 383.496 5.67474 -0.815224 0
M  V30 4146 H 381.893 5.7841 -1.59882 0
M  V30 4147 H 382.963 4.42424 -1.98468 0
M  V30 4148 N 384.306 0.507319 1.49211 0
M  V30 4149 C 385.236 -0.256939 2.32082 0
M  V30 4150 C 386.217 -0.956609 1.40652 0
M  V30 4151 O 387.402 -0.946788 1.69557 0
M  V30 4152 C 384.532 -1.31802 3.21318 0
M  V30 4153 C 383.486 -0.737855 4.21592 0
M  V30 4154 C 382.812 -1.89992 4.99807 0
M  V30 4155 C 384.112 0.275325 5.21574 0
M  V30 4156 H 385.806 0.434798 2.96226 0
M  V30 4157 H 383.352 0.210546 1.42452 0
M  V30 4158 H 385.305 -1.86045 3.78107 0
M  V30 4159 H 384.029 -2.03903 2.5513 0
M  V30 4160 H 382.688 -0.217126 3.65956 0
M  V30 4161 H 382.336 -2.60877 4.30061 0
M  V30 4162 H 382.036 -1.51777 5.6766 0
M  V30 4163 H 383.56 -2.44657 5.59442 0
M  V30 4164 H 384.974 -0.179193 5.7302 0
M  V30 4165 H 383.371 0.573649 5.97352 0
M  V30 4166 H 384.441 1.18903 4.70096 0
M  V30 4167 N 385.784 -1.5574 0.241426 0
M  V30 4168 C 387.03 -1.99104 -0.385406 0
M  V30 4169 C 387.363 -1.1293 -1.57988 0
M  V30 4170 O 386.638 -0.191449 -1.93555 0
M  V30 4171 C 386.921 -3.51087 -0.800616 0
M  V30 4172 C 386.774 -4.48028 0.398874 0
M  V30 4173 C 388.093 -4.08015 -1.64959 0
M  V30 4174 H 385.212 -0.723848 -0.138614 0
M  V30 4175 H 387.854 -1.86903 0.341642 0
M  V30 4176 H 386.004 -3.61615 -1.4201 0
M  V30 4177 H 387.676 -4.49487 1.03726 0
M  V30 4178 H 385.919 -4.21077 1.04293 0
M  V30 4179 H 386.59 -5.51962 0.0651056 0
M  V30 4180 H 389.066 -4.00555 -1.12672 0
M  V30 4181 H 387.942 -5.14635 -1.90898 0
M  V30 4182 H 388.203 -3.56131 -2.61961 0
M  V30 4183 N 387.262 0.0317525 -1.57568 0
M  V30 4184 C 388.509 0.723104 -1.89149 0
M  V30 4185 C 388.837 1.75504 -0.838377 0
M  V30 4186 O 388.092 1.95037 0.160982 0
M  V30 4187 C 388.391 1.43167 -3.27472 0
M  V30 4188 C 388.057 0.535972 -4.47703 0
M  V30 4189 C 386.719 0.289262 -4.8033 0
M  V30 4190 C 389.071 -0.0826125 -5.21135 0
M  V30 4191 C 386.399 -0.584853 -5.83778 0
M  V30 4192 C 388.751 -0.944414 -6.25511 0
M  V30 4193 C 387.415 -1.20061 -6.56614 0
M  V30 4194 H 386.685 0.264602 -0.692146 0
M  V30 4195 H 389.332 -0.0169496 -1.91492 0
M  V30 4196 H 387.637 2.24497 -3.21105 0
M  V30 4197 H 389.334 1.97209 -3.49155 0
M  V30 4198 H 385.924 0.738414 -4.22191 0
M  V30 4199 H 390.108 0.0950302 -4.96209 0
M  V30 4200 H 385.364 -0.79168 -6.06253 0
M  V30 4201 H 389.538 -1.43026 -6.81554 0
M  V30 4202 H 387.165 -1.87967 -7.36595 0
M  V30 4203 N 388.74 1.54641 0.303973 0
M  V30 4204 C 389.987 1.7378 1.03955 0
M  V30 4205 C 390.315 0.521986 1.87365 0
M  V30 4206 O 389.57 -0.496099 1.89308 0
M  V30 4207 C 389.869 2.97753 1.97681 0
M  V30 4208 C 389.535 4.31671 1.30271 0
M  V30 4209 C 388.197 4.68075 1.11619 0
M  V30 4210 C 390.549 5.147 0.82055 0
M  V30 4211 C 387.877 5.8509 0.434304 0
M  V30 4212 C 390.229 6.32416 0.152395 0
M  V30 4213 C 388.893 6.67484 -0.0461067 0
M  V30 4214 H 388.163 0.635908 0.380398 0
M  V30 4215 H 390.81 1.88896 0.314718 0
M  V30 4216 H 389.115 2.77406 2.76682 0
M  V30 4217 H 390.812 3.09756 2.54661 0
M  V30 4218 H 387.402 4.03041 1.45795 0
M  V30 4219 H 391.586 4.87077 0.952374 0
M  V30 4220 H 386.842 6.10806 0.269495 0
M  V30 4221 H 391.016 6.96023 -0.229126 0
M  V30 4222 H 388.643 7.58011 -0.576494 0
M  V30 4223 N 390.218 -0.567019 1.47046 0
M  V30 4224 C 391.181 -1.65696 1.58359 0
M  V30 4225 C 392.181 -1.54097 0.459441 0
M  V30 4226 O 393.371 -1.58432 0.724225 0
M  V30 4227 C 390.503 -3.05197 1.51879 0
M  V30 4228 H 391.696 -1.57019 2.5551 0
M  V30 4229 H 389.249 -0.786148 1.3509 0
M  V30 4230 H 389.984 -3.19417 0.560673 0
M  V30 4231 H 389.769 -3.15025 2.33455 0
M  V30 4232 H 391.259 -3.84511 1.62913 0
M  V30 4233 N 391.696 -1.35014 -0.812953 0
M  V30 4234 C 392.945 -1.27269 -1.56479 0
M  V30 4235 C 393.258 0.152771 -1.95002 0
M  V30 4236 O 394.464 0.352451 -2.69203 0
M  V30 4237 C 392.92 -2.23159 -2.82362 0
M  V30 4238 C 392.528 -3.71016 -2.511 0
M  V30 4239 C 394.272 -2.24342 -3.60376 0
M  V30 4240 C 392.179 -4.58746 -3.73237 0
M  V30 4241 H 391.109 -0.472829 -0.587324 0
M  V30 4242 H 393.76 -1.6024 -0.894171 0
M  V30 4243 H 392.142 -1.83151 -3.51101 0
M  V30 4244 H 393.316 -4.1962 -1.90409 0
M  V30 4245 H 391.631 -3.72378 -1.86343 0
M  V30 4246 H 394.228 -2.87107 -4.51081 0
M  V30 4247 H 394.571 -1.24542 -3.97234 0
M  V30 4248 H 395.104 -2.62846 -2.98591 0
M  V30 4249 H 391.843 -5.59521 -3.41492 0
M  V30 4250 H 391.363 -4.14871 -4.33176 0
M  V30 4251 H 393.042 -4.73852 -4.40537 0
M  V30 4252 N 393.175 1.03435 -1.18907 0
M  V30 4253 C 394.421 1.77005 -0.989798 0
M  V30 4254 C 394.754 1.88205 0.478816 0
M  V30 4255 O 394.029 1.39481 1.35556 0
M  V30 4256 C 394.312 3.19925 -1.65287 0
M  V30 4257 C 394.165 3.1663 -3.19477 0
M  V30 4258 C 395.484 4.18189 -1.37134 0
M  V30 4259 H 392.603 0.642538 -0.360991 0
M  V30 4260 H 395.245 1.20784 -1.46667 0
M  V30 4261 H 393.395 3.67929 -1.24741 0
M  V30 4262 H 395.067 2.76567 -3.692 0
M  V30 4263 H 393.31 2.54491 -3.51307 0
M  V30 4264 H 393.981 4.1758 -3.61013 0
M  V30 4265 H 396.457 3.78761 -1.72276 0
M  V30 4266 H 395.333 5.16394 -1.86087 0
M  V30 4267 H 395.594 4.41112 -0.295424 0
M  V30 4268 N 394.653 0.992116 1.22453 0
M  V30 4269 C 395.901 0.666215 1.90804 0
M  V30 4270 C 396.222 -0.804152 1.77647 0
M  V30 4271 O 395.492 -1.57629 1.16318 0
M  V30 4272 H 394.072 0.243423 0.706225 0
M  V30 4273 H 396.734 1.25845 1.48825 0
M  V30 4274 H 395.83 0.928069 2.97982 0
M  V30 4275 N 396.131 -1.37776 0.765217 0
M  V30 4276 C 397.378 -1.99849 0.326588 0
M  V30 4277 C 397.706 -1.60746 -1.09504 0
M  V30 4278 O 396.961 -0.84202 -1.76659 0
M  V30 4279 C 397.26 -3.5504 0.410053 0
M  V30 4280 C 396.926 -4.13891 1.78899 0
M  V30 4281 C 395.588 -4.29678 2.16635 0
M  V30 4282 C 397.94 -4.46236 2.69301 0
M  V30 4283 C 395.268 -4.7511 3.44221 0
M  V30 4284 C 397.62 -4.93089 3.9629 0
M  V30 4285 C 396.284 -5.07082 4.34078 0
M  V30 4286 H 395.554 -0.7313 0.119507 0
M  V30 4287 H 398.201 -1.64645 0.977968 0
M  V30 4288 H 396.506 -3.90451 -0.324878 0
M  V30 4289 H 398.203 -4.00966 0.0520699 0
M  V30 4290 H 394.793 -4.02026 1.48569 0
M  V30 4291 H 398.977 -4.3363 2.41409 0
M  V30 4292 H 394.233 -4.84129 3.73402 0
M  V30 4293 H 398.407 -5.17084 4.66472 0
M  V30 4294 H 396.034 -5.42046 5.33001 0
M  V30 4295 N 397.609 -0.515225 -1.4894 0
M  V30 4296 C 398.542 0.302518 -2.26186 0
M  V30 4297 C 399.52 0.957895 -1.31389 0
M  V30 4298 O 400.704 0.985198 -1.60705 0
M  V30 4299 C 397.831 1.42719 -3.07163 0
M  V30 4300 C 396.877 0.884736 -4.17223 0
M  V30 4301 S 397.71 -0.235767 -5.34981 0
M  V30 4302 C 398.866 0.891731 -6.19515 0
M  V30 4303 H 399.099 -0.353076 -2.95196 0
M  V30 4304 H 396.632 -0.300753 -1.51443 0
M  V30 4305 H 398.59 2.07152 -3.54398 0
M  V30 4306 H 397.251 2.05445 -2.37595 0
M  V30 4307 H 396.444 1.72801 -4.73451 0
M  V30 4308 H 396.046 0.317362 -3.72651 0
M  V30 4309 H 398.338 1.79377 -6.53322 0
M  V30 4310 H 399.281 0.367751 -7.07144 0
M  V30 4311 H 399.689 1.16548 -5.52338 0
M  V30 4312 N 399.087 1.5561 -0.249682 0
M  V30 4313 C 400.498 1.84979 0.252949 0
M  V30 4314 C 400.849 1.17153 1.57384 0
M  V30 4315 O 399.974 0.450884 2.11651 0
M  V30 4316 C 400.569 3.35584 0.465732 0
M  V30 4317 C 399.128 3.65169 0.912624 0
M  V30 4318 C 398.275 2.77299 -0.00859085 0
M  V30 4319 H 401.226 1.51513 -0.47217 0
M  V30 4320 H 401.247 3.57313 1.30795 0
M  V30 4321 H 400.759 3.8492 -0.49579 0
M  V30 4322 H 398.86 3.21312 1.88652 0
M  V30 4323 H 398.973 4.72912 0.767559 0
M  V30 4324 H 397.337 2.49678 0.50327 0
M  V30 4325 H 398.12 3.29442 -0.965537 0
M  V30 4326 N 400.565 -0.0233959 1.57583 0
M  V30 4327 C 401.513 -1.04063 2.08023 0
M  V30 4328 C 402.507 -1.37084 0.995204 0
M  V30 4329 O 403.713 -1.35923 1.18004 0
M  V30 4330 H 400.088 -0.353144 0.663922 0
M  V30 4331 H 402.059 -0.589453 2.9252 0
M  V30 4332 C 400.808 -2.33123 2.57971 0
M  V30 4333 H 400.131 -2.08577 3.4108 0
M  V30 4334 H 401.571 -3.02632 2.96967 0
M  V30 4335 C 400.03 -3.02483 1.48342 0
M  V30 4336 O 400.56 -3.92541 0.852898 0
M  V30 4337 N 398.766 -2.63909 1.21658 0
M  V30 4338 H 398.313 -1.90758 1.73116 0
M  V30 4339 H 398.271 -3.10633 0.485218 0
M  V30 4340 N 402.043 -1.548 -0.295768 0
M  V30 4341 C 403.273 -1.78069 -1.04762 0
M  V30 4342 C 403.681 -0.542847 -1.81245 0
M  V30 4343 O 403.024 0.497051 -1.76848 0
M  V30 4344 C 403.086 -2.93881 -2.07061 0
M  V30 4345 C 402.75 -4.31777 -1.49725 0
M  V30 4346 C 403.747 -5.11613 -0.924581 0
M  V30 4347 C 401.432 -4.78389 -1.5313 0
M  V30 4348 C 403.426 -6.36184 -0.393594 0
M  V30 4349 C 401.113 -6.02921 -0.996447 0
M  V30 4350 C 402.111 -6.81654 -0.428569 0
M  V30 4351 O 401.799 -8.0384 0.0981593 0
M  V30 4352 H 401.531 -0.597475 -0.316226 0
M  V30 4353 H 404.085 -2.02584 -0.338973 0
M  V30 4354 H 402.315 -2.65003 -2.81621 0
M  V30 4355 H 404.004 -3.04679 -2.6819 0
M  V30 4356 H 404.77 -4.76743 -0.891136 0
M  V30 4357 H 400.649 -4.17132 -1.9627 0
M  V30 4358 H 404.193 -6.97582 0.0503014 0
M  V30 4359 H 400.09 -6.37277 -1.02706 0
M  V30 4360 H 400.858 -8.18499 -0.0146455 0
M  V30 4361 N 403.521 0.559213 -1.47345 0
M  V30 4362 C 404.451 1.67622 -1.62558 0
M  V30 4363 C 405.432 1.63331 -0.475087 0
M  V30 4364 O 406.617 1.80983 -0.704182 0
M  V30 4365 C 403.747 3.0626 -1.63774 0
M  V30 4366 C 402.701 3.25397 -2.7803 0
M  V30 4367 C 402.027 4.64801 -2.64318 0
M  V30 4368 C 403.327 3.10965 -4.19641 0
M  V30 4369 H 405.021 1.55146 -2.56067 0
M  V30 4370 H 402.567 0.744961 -1.23233 0
M  V30 4371 H 404.52 3.84247 -1.73008 0
M  V30 4372 H 403.244 3.1969 -0.66825 0
M  V30 4373 H 401.903 2.49817 -2.68304 0
M  V30 4374 H 401.551 4.75028 -1.65401 0
M  V30 4375 H 401.251 4.78555 -3.40968 0
M  V30 4376 H 402.775 5.44926 -2.75478 0
M  V30 4377 H 404.189 3.78772 -4.30354 0
M  V30 4378 H 402.586 3.36229 -4.97062 0
M  V30 4379 H 403.656 2.07736 -4.38148 0
M  V30 4380 N 404.999 1.35443 0.805782 0
M  V30 4381 C 406.247 1.28507 1.55982 0
M  V30 4382 C 406.568 -0.140046 1.94496 0
M  V30 4383 O 405.838 -1.07666 1.63661 0
M  V30 4384 H 404.418 0.472676 0.578434 0
M  V30 4385 H 407.08 1.69555 0.961098 0
M  V30 4386 H 406.176 1.90148 2.47488 0
M  V30 4387 N 406.477 -1.02803 1.19454 0
M  V30 4388 C 407.427 -2.0945 0.900827 0
M  V30 4389 C 408.411 -1.60335 -0.134715 0
M  V30 4390 O 409.603 -1.76857 0.0710924 0
M  V30 4391 C 406.732 -3.4044 0.442229 0
M  V30 4392 C 405.818 -3.96286 1.51056 0
M  V30 4393 N 406.209 -4.25785 2.73021 0
M  V30 4394 C 404.507 -4.24307 1.37404 0
M  V30 4395 C 405.208 -4.70654 3.41848 0
M  V30 4396 N 404.184 -4.72238 2.69243 0
M  V30 4397 H 407.986 -2.3015 1.82779 0
M  V30 4398 H 405.5 -1.20672 1.08683 0
M  V30 4399 H 407.497 -4.16354 0.21326 0
M  V30 4400 H 406.157 -3.21159 -0.478238 0
M  V30 4401 H 407.168 -4.15041 3.09776 0
M  V30 4402 H 403.845 -4.14285 0.517103 0
M  V30 4403 H 405.235 -5.02392 4.46152 0
M  V30 4404 N 407.956 -0.998596 -1.21925 0
M  V30 4405 C 409.367 -0.711939 -1.72593 0
M  V30 4406 C 409.718 0.770842 -1.80423 0
M  V30 4407 O 408.843 1.60237 -1.4544 0
M  V30 4408 C 409.438 -1.28567 -3.13458 0
M  V30 4409 C 407.997 -1.04828 -3.61508 0
M  V30 4410 C 407.144 -1.4024 -2.39224 0
M  V30 4411 H 410.095 -1.17027 -1.07193 0
M  V30 4412 H 410.116 -0.667098 -3.74607 0
M  V30 4413 H 409.628 -2.36486 -3.07727 0
M  V30 4414 H 407.729 0.0140383 -3.72597 0
M  V30 4415 H 407.842 -1.71566 -4.47328 0
M  V30 4416 H 406.206 -0.821077 -2.41103 0
M  V30 4417 H 406.989 -2.49176 -2.36149 0
M  V30 4418 N 409.434 1.37368 -0.772513 0
M  V30 4419 C 410.711 1.93839 -0.26188 0
M  V30 4420 C 411.091 1.7061 1.24319 0
M  V30 4421 O 410.439 1.05534 2.02669 0
M  V30 4422 C 410.649 3.43154 -0.636102 0
M  V30 4423 C 411.997 4.20249 -0.606324 0
M  V30 4424 O 413.021 3.5152 -0.575538 0
M  V30 4425 O 411.88 5.42809 -0.634086 0
M  V30 4426 H 408.974 0.82478 -0.0605555 0
M  V30 4427 H 411.52 1.4665 -0.853917 0
M  V30 4428 H 410.292 3.53647 -1.6748 0
M  V30 4429 H 409.915 3.97596 -0.0170516 0
M  V30 4430 N 410.912 0.523116 1.48665 0
M  V30 4431 C 411.86 -0.256859 2.31177 0
M  V30 4432 C 412.854 -0.94199 1.40794 0
M  V30 4433 O 414.06 -0.867157 1.57735 0
M  V30 4434 H 410.435 -0.1017 0.745091 0
M  V30 4435 H 412.406 0.458739 2.94853 0
M  V30 4436 C 411.155 -1.29503 3.22683 0
M  V30 4437 H 410.478 -0.777248 3.92172 0
M  V30 4438 H 411.918 -1.81233 3.83315 0
M  V30 4439 C 410.377 -2.32501 2.43813 0
M  V30 4440 O 410.907 -3.3881 2.15803 0
M  V30 4441 N 409.113 -2.05538 2.05432 0
M  V30 4442 H 408.66 -1.19104 2.28412 0
M  V30 4443 H 408.618 -2.74676 1.52973 0
M  V30 4444 N 412.39 -1.55475 0.257931 0
M  V30 4445 C 413.62 -2.03314 -0.367026 0
M  V30 4446 C 414.028 -1.13625 -1.51281 0
M  V30 4447 O 413.371 -0.145334 -1.83124 0
M  V30 4448 C 413.433 -3.47362 -0.926284 0
M  V30 4449 C 413.097 -4.56914 0.0886584 0
M  V30 4450 C 414.094 -5.12013 0.902123 0
M  V30 4451 C 411.779 -5.01827 0.217936 0
M  V30 4452 C 413.773 -6.10529 1.83122 0
M  V30 4453 C 411.46 -6.00172 1.15052 0
M  V30 4454 C 412.458 -6.54402 1.95568 0
M  V30 4455 O 412.146 -7.50827 2.87253 0
M  V30 4456 H 411.878 -0.669976 -0.0900443 0
M  V30 4457 H 414.432 -2.01804 0.382673 0
M  V30 4458 H 412.662 -3.46056 -1.72575 0
M  V30 4459 H 414.351 -3.78637 -1.46249 0
M  V30 4460 H 415.117 -4.78139 0.812891 0
M  V30 4461 H 410.996 -4.59272 -0.398721 0
M  V30 4462 H 414.54 -6.52783 2.46008 0
M  V30 4463 H 410.437 -6.33465 1.24064 0
M  V30 4464 H 411.205 -7.68483 2.81739 0
M  V30 4465 N 413.868 0.0150385 -1.57593 0
M  V30 4466 C 415.117 0.702115 -1.89085 0
M  V30 4467 C 415.43 1.75764 -0.858277 0
M  V30 4468 O 416.636 2.49829 -1.0629 0
M  V30 4469 C 415.092 1.29992 -3.35604 0
M  V30 4470 C 414.7 0.280007 -4.47124 0
M  V30 4471 C 416.444 1.96606 -3.76227 0
M  V30 4472 C 414.351 0.886949 -5.84711 0
M  V30 4473 H 413.281 0.265997 -0.705522 0
M  V30 4474 H 415.932 -0.0430408 -1.8345 0
M  V30 4475 H 414.314 2.09525 -3.36029 0
M  V30 4476 H 415.488 -0.489631 -4.58191 0
M  V30 4477 H 413.803 -0.284835 -4.15425 0
M  V30 4478 H 416.4 2.42893 -4.76347 0
M  V30 4479 H 416.743 2.79024 -3.08952 0
M  V30 4480 H 417.276 1.23828 -3.78036 0
M  V30 4481 H 414.015 0.101876 -6.55421 0
M  V30 4482 H 413.535 1.6261 -5.77337 0
M  V30 4483 H 415.214 1.39011 -6.3189 0
M  V30 4484 N 415.346 1.54954 0.287554 0
M  V30 4485 C 416.256 1.8991 1.37736 0
M  V30 4486 C 417.272 0.794701 1.54792 0
M  V30 4487 O 418.448 1.09243 1.69198 0
M  V30 4488 C 415.513 2.15108 2.71899 0
M  V30 4489 C 414.574 3.38752 2.63715 0
M  V30 4490 C 413.807 3.62739 3.91479 0
M  V30 4491 O 414.03 2.89492 4.91478 0
M  V30 4492 O 412.964 4.56267 3.92561 0
M  V30 4493 H 416.79 2.82652 1.11092 0
M  V30 4494 H 414.375 1.41315 0.484807 0
M  V30 4495 H 416.257 2.32806 3.51254 0
M  V30 4496 H 414.932 1.25551 2.9836 0
M  V30 4497 H 413.839 3.26405 1.82786 0
M  V30 4498 H 415.172 4.28483 2.42205 0
M  V30 4499 N 416.824 -0.551391 1.4764 0
M  V30 4500 C 417.787 -1.64007 1.60107 0
M  V30 4501 C 418.787 -1.53601 0.47576 0
M  V30 4502 O 419.977 -1.57655 0.740988 0
M  V30 4503 C 417.109 -3.03569 1.55108 0
M  V30 4504 H 418.302 -1.543 2.57161 0
M  V30 4505 H 415.855 -0.771776 1.35917 0
M  V30 4506 H 416.59 -3.18804 0.594519 0
M  V30 4507 H 416.375 -3.12532 2.36783 0
M  V30 4508 H 417.865 -3.82762 1.66982 0
M  V30 4509 N 418.302 -1.35869 -0.798587 0
M  V30 4510 C 419.25 -1.29491 -1.93222 0
M  V30 4511 C 420.244 -0.18836 -1.6835 0
M  V30 4512 O 421.45 -0.354822 -1.76468 0
M  V30 4513 H 417.825 -0.402901 -0.63496 0
M  V30 4514 H 419.796 -2.25247 -1.9572 0
M  V30 4515 C 418.545 -1.09184 -3.30112 0
M  V30 4516 H 417.868 -1.93574 -3.49813 0
M  V30 4517 H 419.308 -1.08766 -4.09812 0
M  V30 4518 C 417.767 0.203959 -3.36282 0
M  V30 4519 O 418.297 1.19699 -3.83451 0
M  V30 4520 N 416.503 0.245488 -2.89561 0
M  V30 4521 H 416.05 -0.563223 -2.51367 0
M  V30 4522 H 416.008 1.11219 -2.94071 0
M  V30 4523 N 419.78 1.02168 -1.19998 0
M  V30 4524 C 421.191 1.57135 -1.00825 0
M  V30 4525 C 421.542 1.91276 0.436818 0
M  V30 4526 O 420.667 1.71679 1.3174 0
M  V30 4527 C 421.262 2.85514 -1.82393 0
M  V30 4528 C 419.821 3.37027 -1.67601 0
M  V30 4529 C 418.968 2.10388 -1.80644 0
M  V30 4530 H 421.919 0.846106 -1.34264 0
M  V30 4531 H 421.94 3.56711 -1.32429 0
M  V30 4532 H 421.452 2.60634 -2.87561 0
M  V30 4533 H 419.553 3.66878 -0.650485 0
M  V30 4534 H 419.666 4.09572 -2.4857 0
M  V30 4535 H 418.03 2.22601 -1.23778 0
M  V30 4536 H 418.813 1.8794 -2.87286 0
M  V30 4537 N 421.258 1.00505 1.21394 0
M  V30 4538 C 422.188 0.585684 2.26035 0
M  V30 4539 C 423.169 -0.393525 1.65485 0
M  V30 4540 O 424.354 -0.281497 1.92149 0
M  V30 4541 C 421.484 -0.0884283 3.47187 0
M  V30 4542 C 420.438 0.810567 4.20254 0
M  V30 4543 C 419.764 0.00286382 5.347 0
M  V30 4544 C 421.064 2.1132 4.77641 0
M  V30 4545 H 422.758 1.46039 2.61368 0
M  V30 4546 H 420.304 0.703648 1.25638 0
M  V30 4547 H 422.257 -0.393286 4.19561 0
M  V30 4548 H 420.981 -0.997766 3.10986 0
M  V30 4549 H 419.64 1.09925 3.49731 0
M  V30 4550 H 419.288 -0.907765 4.94741 0
M  V30 4551 H 418.988 0.601444 5.84514 0
M  V30 4552 H 420.512 -0.295808 6.09883 0
M  V30 4553 H 421.926 1.87148 5.41893 0
M  V30 4554 H 420.323 2.66164 5.37845 0
M  V30 4555 H 421.393 2.78393 3.9702 0
M  V30 4556 N 422.737 -1.36956 0.779787 0
M  V30 4557 C 423.962 -2.04283 0.358224 0
M  V30 4558 C 424.387 -1.58422 -1.01411 0
M  V30 4559 O 423.745 -0.748179 -1.65142 0
M  V30 4560 C 423.793 -3.58152 0.419479 0
M  V30 4561 O 422.897 -4.08342 -0.577142 0
M  V30 4562 H 422.238 -0.645967 0.153698 0
M  V30 4563 H 424.768 -1.75108 1.05822 0
M  V30 4564 H 424.778 -4.07041 0.279636 0
M  V30 4565 H 423.453 -3.90886 1.42061 0
M  V30 4566 H 422.03 -3.70751 -0.399755 0
M  V30 4567 N 424.215 -0.530993 -1.48385 0
M  V30 4568 C 425.443 -0.00134122 -2.069 0
M  V30 4569 C 425.858 1.2805 -1.3874 0
M  V30 4570 O 425.215 1.76204 -0.475244 0
M  V30 4571 C 425.266 0.225256 -3.60798 0
M  V30 4572 O 424.987 -1.0058 -4.26398 0
M  V30 4573 C 426.488 0.795172 -4.3611 0
M  V30 4574 H 423.708 -0.0339704 -0.67014 0
M  V30 4575 H 426.252 -0.736926 -1.90761 0
M  V30 4576 H 424.407 0.910891 -3.76539 0
M  V30 4577 H 424.821 -0.787165 -5.1856 0
M  V30 4578 H 426.295 0.903143 -5.44562 0
M  V30 4579 H 426.772 1.80031 -4.00606 0
M  V30 4580 H 427.378 0.146069 -4.25049 0
M  V30 4581 N 425.693 1.55336 -0.266172 0
M  V30 4582 C 427.104 1.85236 0.233315 0
M  V30 4583 C 427.455 1.18816 1.56132 0
M  V30 4584 O 426.58 0.473307 2.11161 0
M  V30 4585 C 427.175 3.36059 0.430113 0
M  V30 4586 C 425.734 3.66116 0.873842 0
M  V30 4587 C 424.881 2.77274 -0.0380016 0
M  V30 4588 H 427.832 1.51004 -0.488214 0
M  V30 4589 H 427.853 3.58681 1.26998 0
M  V30 4590 H 427.365 3.84373 -0.536588 0
M  V30 4591 H 425.466 3.23295 1.85233 0
M  V30 4592 H 425.579 4.73699 0.717358 0
M  V30 4593 H 423.943 2.50198 0.476759 0
M  V30 4594 H 424.726 3.284 -1.00042 0
M  V30 4595 N 427.171 -0.0066808 1.57599 0
M  V30 4596 C 428.134 -0.985035 2.06953 0
M  V30 4597 C 429.134 -1.27663 0.977687 0
M  V30 4598 O 430.324 -1.22293 1.24057 0
M  V30 4599 C 427.456 -2.3118 2.50536 0
M  V30 4600 H 428.649 -0.558255 2.94658 0
M  V30 4601 H 426.202 -0.254011 1.54222 0
M  V30 4602 H 426.937 -2.78561 1.66054 0
M  V30 4603 H 426.722 -2.11338 3.3027 0
M  V30 4604 H 428.212 -3.01377 2.8907 0
M  V30 4605 N 428.649 -1.55105 -0.279332 0
M  V30 4606 C 429.599 -1.83937 -1.34727 0
M  V30 4607 C 430.583 -0.69785 -1.44979 0
M  V30 4608 O 431.775 -0.95904 -1.48766 0
M  V30 4609 C 428.904 -2.1092 -2.70864 0
M  V30 4610 C 427.99 -3.31314 -2.64748 0
M  V30 4611 N 428.381 -4.51371 -2.2825 0
M  V30 4612 C 426.679 -3.33777 -2.95819 0
M  V30 4613 C 427.38 -5.33447 -2.31969 0
M  V30 4614 N 426.356 -4.71697 -2.7019 0
M  V30 4615 H 430.158 -2.74309 -1.05506 0
M  V30 4616 H 427.672 -1.54896 -0.487959 0
M  V30 4617 H 429.669 -2.2973 -3.47893 0
M  V30 4618 H 428.329 -1.21828 -3.00979 0
M  V30 4619 H 429.34 -4.77584 -2.00335 0
M  V30 4620 H 426.017 -2.54858 -3.30687 0
M  V30 4621 H 427.407 -6.39424 -2.06365 0
M  V30 4622 N 430.127 0.543554 -1.4793 0
M  V30 4623 C 431.376 1.29649 -1.54512 0
M  V30 4624 C 431.689 1.94382 -0.217973 0
M  V30 4625 O 432.895 2.71017 -0.161908 0
M  V30 4626 C 431.351 2.35175 -2.72435 0
M  V30 4627 C 430.959 1.76572 -4.11736 0
M  V30 4628 C 432.703 3.11564 -2.8832 0
M  V30 4629 C 430.61 2.79958 -5.20939 0
M  V30 4630 H 429.54 0.487541 -0.57517 0
M  V30 4631 H 432.191 0.575708 -1.74235 0
M  V30 4632 H 430.573 3.10229 -2.46118 0
M  V30 4633 H 431.747 1.07799 -4.48013 0
M  V30 4634 H 430.062 1.12722 -4.00852 0
M  V30 4635 H 432.659 3.88794 -3.67074 0
M  V30 4636 H 433.002 3.66594 -1.97268 0
M  V30 4637 H 433.535 2.43623 -3.14472 0
M  V30 4638 H 430.274 2.29766 -6.13912 0
M  V30 4639 H 429.794 3.47101 -4.89164 0
M  V30 4640 H 431.473 3.43198 -5.48474 0
M  V30 4641 N 431.605 1.3629 0.791371 0
M  V30 4642 C 432.851 1.30605 1.55146 0
M  V30 4643 C 433.184 -0.115042 1.93859 0
M  V30 4644 O 432.459 -1.06798 1.62556 0
M  V30 4645 C 432.742 2.22692 2.82985 0
M  V30 4646 C 432.595 3.73489 2.50651 0
M  V30 4647 C 433.914 2.13588 3.84796 0
M  V30 4648 H 431.033 0.475761 0.562868 0
M  V30 4649 H 433.675 1.66825 0.909358 0
M  V30 4650 H 431.825 1.91933 3.37778 0
M  V30 4651 H 433.497 4.14758 2.01924 0
M  V30 4652 H 431.74 3.93021 1.83622 0
M  V30 4653 H 432.411 4.3333 3.41949 0
M  V30 4654 H 434.887 2.40659 3.39445 0
M  V30 4655 H 433.763 2.80195 4.71998 0
M  V30 4656 H 434.024 1.12256 4.27611 0
M  V30 4657 N 433.083 -1.0153 1.20538 0
M  V30 4658 C 434.494 -1.56598 1.01657 0
M  V30 4659 C 434.845 -1.91505 -0.426668 0
M  V30 4660 O 433.97 -1.72375 -1.30827 0
M  V30 4661 C 434.565 -2.84542 1.83905 0
M  V30 4662 C 433.124 -3.36133 1.69386 0
M  V30 4663 C 432.271 -2.09427 1.81757 0
M  V30 4664 H 435.222 -0.838974 1.34711 0
M  V30 4665 H 435.243 -3.56004 1.34319 0
M  V30 4666 H 434.755 -2.59105 2.8894 0
M  V30 4667 H 432.856 -3.66528 0.669933 0
M  V30 4668 H 432.969 -4.08248 2.50739 0
M  V30 4669 H 431.333 -2.21941 1.24957 0
M  V30 4670 H 432.116 -1.86414 2.88279 0
M  V30 4671 N 434.561 -1.01147 -1.20859 0
M  V30 4672 C 435.471 -0.58686 -2.27141 0
M  V30 4673 C 436.487 0.373198 -1.69951 0
M  V30 4674 O 437.663 0.235423 -2.00019 0
M  V30 4675 C 434.728 0.0733602 -3.46622 0
M  V30 4676 C 433.789 -0.931995 -4.19061 0
M  V30 4677 C 433.022 -0.303186 -5.32838 0
M  V30 4678 O 433.245 0.898395 -5.63281 0
M  V30 4679 O 432.179 -1.01735 -5.9324 0
M  V30 4680 H 436.005 -1.47155 -2.65667 0
M  V30 4681 H 433.59 -0.780689 -1.2738 0
M  V30 4682 H 435.472 0.442333 -4.19072 0
M  V30 4683 H 434.147 0.932329 -3.09983 0
M  V30 4684 H 433.054 -1.35224 -3.48805 0
M  V30 4685 H 434.387 -1.76076 -4.59628 0
M  V30 4686 N 436.039 1.36541 -0.78704 0
M  V30 4687 C 437.285 2.00044 -0.367938 0
M  V30 4688 C 437.64 1.61345 1.04812 0
M  V30 4689 O 436.933 0.856936 1.71368 0
M  V30 4690 C 437.127 3.54343 -0.466485 0
M  V30 4691 C 436.956 4.08029 -1.89058 0
M  V30 4692 C 435.726 4.38284 -2.51466 0
M  V30 4693 C 437.924 4.27954 -2.85236 0
M  V30 4694 N 435.906 4.77778 -3.85488 0
M  V30 4695 C 437.277 4.70227 -4.04088 0
M  V30 4696 C 439.332 4.10119 -2.82324 0
M  V30 4697 C 438.035 4.96532 -5.20432 0
M  V30 4698 C 440.061 4.37569 -3.97854 0
M  V30 4699 C 439.423 4.80095 -5.15449 0
M  V30 4700 H 435.522 0.760525 -0.182004 0
M  V30 4701 H 438.106 1.65589 -1.02413 0
M  V30 4702 H 436.277 3.88072 0.159606 0
M  V30 4703 H 438.009 4.04693 -0.0238577 0
M  V30 4704 H 434.764 4.27905 -2.02965 0
M  V30 4705 H 435.188 5.01813 -4.54437 0
M  V30 4706 H 439.83 3.76399 -1.92571 0
M  V30 4707 H 437.548 5.29134 -6.10773 0
M  V30 4708 H 441.134 4.25341 -3.96958 0
M  V30 4709 H 440.014 5.00925 -6.0336 0
M  V30 4710 N 437.518 0.538854 1.48102 0
M  V30 4711 C 438.748 0.0122958 2.06596 0
M  V30 4712 C 439.156 -1.27861 1.39457 0
M  V30 4713 O 438.499 -1.77348 0.478907 0
M  V30 4714 C 438.561 -0.273131 3.58461 0
M  V30 4715 C 438.225 0.92561 4.47528 0
M  V30 4716 C 439.222 1.82637 4.86765 0
M  V30 4717 C 436.907 1.13511 4.89306 0
M  V30 4718 C 438.901 2.92047 5.66558 0
M  V30 4719 C 436.588 2.23233 5.68868 0
M  V30 4720 C 437.586 3.12333 6.07402 0
M  V30 4721 O 437.274 4.20155 6.85365 0
M  V30 4722 H 437.006 0.0344283 0.675123 0
M  V30 4723 H 439.56 0.746494 1.91355 0
M  V30 4724 H 437.79 -1.06141 3.71848 0
M  V30 4725 H 439.479 -0.742842 3.99045 0
M  V30 4726 H 440.245 1.67649 4.55103 0
M  V30 4727 H 436.124 0.450835 4.5879 0
M  V30 4728 H 439.668 3.6162 5.96554 0
M  V30 4729 H 435.565 2.38201 5.99942 0
M  V30 4730 H 436.333 4.17975 7.03732 0
M  V30 4731 N 438.996 -1.55193 0.274407 0
M  V30 4732 C 440.243 -1.99581 -0.342579 0
M  V30 4733 C 440.571 -1.1628 -1.55914 0
M  V30 4734 O 439.826 -0.22029 -1.94456 0
M  V30 4735 C 440.125 -3.49019 -0.769458 0
M  V30 4736 C 439.791 -4.49598 0.342389 0
M  V30 4737 C 438.453 -4.76821 0.647686 0
M  V30 4738 C 440.805 -5.0964 1.09163 0
M  V30 4739 C 438.133 -5.61354 1.70581 0
M  V30 4740 C 440.485 -5.95323 2.13948 0
M  V30 4741 C 439.149 -6.20867 2.45113 0
M  V30 4742 H 438.419 -0.730319 -0.125358 0
M  V30 4743 H 441.066 -1.87529 0.387971 0
M  V30 4744 H 439.371 -3.58544 -1.57967 0
M  V30 4745 H 441.068 -3.8077 -1.25757 0
M  V30 4746 H 437.658 -4.28496 0.094318 0
M  V30 4747 H 441.842 -4.88632 0.869024 0
M  V30 4748 H 437.098 -5.79392 1.9523 0
M  V30 4749 H 441.272 -6.40881 2.72478 0
M  V30 4750 H 438.899 -6.86162 3.27239 0
M  V30 4751 N 440.474 -0.00167713 -1.576 0
M  V30 4752 C 441.404 0.988091 -2.11563 0
M  V30 4753 C 442.385 1.35736 -1.02517 0
M  V30 4754 O 443.57 1.44082 -1.30208 0
M  V30 4755 C 440.7 2.27941 -2.62031 0
M  V30 4756 C 439.654 2.0517 -3.75619 0
M  V30 4757 C 438.98 3.4033 -4.12407 0
M  V30 4758 C 440.28 1.41294 -5.02825 0
M  V30 4759 H 441.974 0.538771 -2.94513 0
M  V30 4760 H 439.52 0.257712 -1.41675 0
M  V30 4761 H 441.473 2.97539 -2.9841 0
M  V30 4762 H 440.197 2.74989 -1.76205 0
M  V30 4763 H 438.856 1.37998 -3.39635 0
M  V30 4764 H 438.504 3.85085 -3.23603 0
M  V30 4765 H 438.204 3.25909 -4.88935 0
M  V30 4766 H 439.728 4.1124 -4.51347 0
M  V30 4767 H 441.142 2.00851 -5.36965 0
M  V30 4768 H 439.539 1.37356 -5.84169 0
M  V30 4769 H 440.609 0.382362 -4.8339 0
M  V30 4770 N 441.952 1.55251 0.271103 0
M  V30 4771 C 443.363 1.66635 0.842007 0
M  V30 4772 C 443.714 0.594631 1.86972 0
M  V30 4773 O 442.839 -0.263532 2.14789 0
M  V30 4774 C 443.434 3.02082 1.53401 0
M  V30 4775 C 441.993 3.15487 2.05293 0
M  V30 4776 C 441.14 2.62438 0.895631 0
M  V30 4777 H 444.091 1.58629 0.0474117 0
M  V30 4778 H 444.112 2.95176 2.40107 0
M  V30 4779 H 443.624 3.80062 0.785786 0
M  V30 4780 H 441.725 2.42284 2.83071 0
M  V30 4781 H 441.838 4.22075 2.26693 0
M  V30 4782 H 440.202 2.19644 1.28953 0
M  V30 4783 H 440.985 3.42923 0.160878 0
M  V30 4784 N 443.43 -0.535701 1.48216 0
M  V30 4785 C 444.677 -1.29183 1.55942 0
M  V30 4786 C 445.005 -1.93125 0.230857 0
M  V30 4787 O 444.26 -1.79556 -0.778331 0
M  V30 4788 C 444.559 -2.4068 2.64212 0
M  V30 4789 C 444.225 -1.94428 4.06827 0
M  V30 4790 C 442.887 -1.81532 4.45645 0
M  V30 4791 C 445.239 -1.59405 4.96225 0
M  V30 4792 C 442.567 -1.31939 5.71672 0
M  V30 4793 C 444.919 -1.11276 6.22736 0
M  V30 4794 C 443.583 -0.969924 6.60416 0
M  V30 4795 H 442.853 -0.472715 0.570632 0
M  V30 4796 H 445.5 -0.598437 1.81909 0
M  V30 4797 H 443.805 -3.15666 2.32083 0
M  V30 4798 H 445.502 -2.98822 2.67407 0
M  V30 4799 H 442.092 -2.05415 3.76168 0
M  V30 4800 H 446.276 -1.68231 4.66917 0
M  V30 4801 H 441.532 -1.19562 5.99596 0
M  V30 4802 H 445.706 -0.832453 6.91407 0
M  V30 4803 H 443.333 -0.583436 7.57958 0
M  V30 4804 N 444.908 -1.36708 -0.784132 0
M  V30 4805 C 446.138 -1.34203 -1.57077 0
M  V30 4806 C 446.546 0.0774945 -1.89041 0
M  V30 4807 O 445.889 1.04628 -1.50992 0
M  V30 4808 C 445.951 -2.10351 -2.91535 0
M  V30 4809 C 445.615 -3.59405 -2.82272 0
M  V30 4810 C 446.612 -4.53545 -2.54151 0
M  V30 4811 C 444.297 -4.02362 -3.00683 0
M  V30 4812 C 446.291 -5.8862 -2.44551 0
M  V30 4813 C 443.978 -5.37526 -2.90704 0
M  V30 4814 C 444.976 -6.30468 -2.62677 0
M  V30 4815 O 444.664 -7.63149 -2.52702 0
M  V30 4816 H 444.396 -0.461791 -0.493685 0
M  V30 4817 H 446.95 -1.80475 -0.980712 0
M  V30 4818 H 445.18 -1.5875 -3.52612 0
M  V30 4819 H 446.869 -2.00636 -3.52845 0
M  V30 4820 H 447.635 -4.21669 -2.39625 0
M  V30 4821 H 443.514 -3.30389 -3.21503 0
M  V30 4822 H 447.058 -6.61133 -2.22596 0
M  V30 4823 H 442.955 -5.69008 -3.04795 0
M  V30 4824 H 443.723 -7.73331 -2.68144 0
M  V30 4825 N 446.386 1.0089 -1.21074 0
M  V30 4826 C 447.349 2.0775 -0.968129 0
M  V30 4827 C 448.349 1.6069 0.0593445 0
M  V30 4828 O 449.539 1.73293 -0.177525 0
M  V30 4829 C 446.671 3.37794 -0.459108 0
M  V30 4830 H 447.864 2.30707 -1.9161 0
M  V30 4831 H 445.417 1.17807 -1.02719 0
M  V30 4832 H 446.152 3.20516 0.49397 0
M  V30 4833 H 445.937 3.7328 -1.20019 0
M  V30 4834 H 447.427 4.16454 -0.309099 0
M  V30 4835 N 447.864 1.01787 1.20321 0
M  V30 4836 C 449.113 0.703249 1.89043 0
M  V30 4837 C 449.426 -0.770445 1.79787 0
M  V30 4838 O 450.632 -1.19767 2.43656 0
M  V30 4839 C 449.088 1.20749 3.3904 0
M  V30 4840 C 448.696 2.70817 3.56878 0
M  V30 4841 C 450.44 0.968352 4.13308 0
M  V30 4842 C 448.347 3.14716 5.00708 0
M  V30 4843 H 447.277 0.259354 0.707991 0
M  V30 4844 H 449.928 1.23072 1.36108 0
M  V30 4845 H 448.31 0.607989 3.91305 0
M  V30 4846 H 449.484 3.36327 3.14993 0
M  V30 4847 H 447.799 2.92888 2.95983 0
M  V30 4848 H 450.396 1.27173 5.19356 0
M  V30 4849 H 450.739 -0.095149 4.16191 0
M  V30 4850 H 451.272 1.53129 3.67146 0
M  V30 4851 H 448.011 4.20347 5.02979 0
M  V30 4852 H 447.531 2.53927 5.43398 0
M  V30 4853 H 449.21 3.07426 5.69296 0
M  V30 4854 N 449.342 -1.36122 0.79427 0
M  V30 4855 C 450.272 -2.32551 0.210328 0
M  V30 4856 C 451.253 -1.56884 -0.657386 0
M  V30 4857 O 452.438 -1.85014 -0.590207 0
M  V30 4858 C 449.568 -3.41128 -0.651819 0
M  V30 4859 C 448.522 -4.27842 0.116395 0
M  V30 4860 C 447.848 -5.2763 -0.86666 0
M  V30 4861 C 449.148 -5.05647 1.30837 0
M  V30 4862 H 450.842 -2.81636 1.01594 0
M  V30 4863 H 448.388 -1.35407 0.489981 0
M  V30 4864 H 450.341 -4.07581 -1.07031 0
M  V30 4865 H 449.065 -2.90622 -1.49019 0
M  V30 4866 H 447.724 -3.62952 0.515915 0
M  V30 4867 H 447.372 -4.73395 -1.70019 0
M  V30 4868 H 447.072 -5.86514 -0.35705 0
M  V30 4869 H 448.596 -5.96955 -1.28361 0
M  V30 4870 H 450.01 -5.65113 0.965393 0
M  V30 4871 H 448.407 -5.73967 1.75161 0
M  V30 4872 H 449.477 -4.37006 2.10128 0
M  V30 4873 N 450.82 -0.546701 -1.47814 0
M  V30 4874 C 452.236 -0.205717 -1.58269 0
M  V30 4875 C 452.436 1.29153 -1.54667 0
M  V30 4876 O 451.492 2.07098 -1.44453 0
M  V30 4877 C 452.805 -0.823065 -2.89216 0
M  V30 4878 C 454.353 -0.793328 -3.02779 0
M  V30 4879 C 454.828 -1.38955 -4.36412 0
M  V30 4880 N 456.319 -1.35227 -4.43021 0
M  V30 4881 C 457.054 -1.78333 -5.44963 0
M  V30 4882 N 456.55 -2.29246 -6.53772 0
M  V30 4883 N 458.343 -1.69467 -5.35945 0
M  V30 4884 H 450.494 -1.5196 -1.48398 0
M  V30 4885 H 452.757 -0.633078 -0.705632 0
M  V30 4886 H 452.463 -1.8749 -2.97558 0
M  V30 4887 H 452.337 -0.309915 -3.75925 0
M  V30 4888 H 454.724 0.249784 -2.94041 0
M  V30 4889 H 454.805 -1.34412 -2.17639 0
M  V30 4890 H 454.449 -2.43168 -4.45906 0
M  V30 4891 H 454.379 -0.814291 -5.20266 0
M  V30 4892 H 456.87 -0.979739 -3.64979 0
M  V30 4893 H 457.183 -2.60089 -7.27718 0
M  V30 4894 H 455.528 -2.3325 -6.5469 0
M  V30 4895 H 458.719 -1.29477 -4.49837 0
M  V30 4896 H 458.892 -2.03381 -6.15256 0
M  V30 4897 N 452.299 1.55045 -0.282633 0
M  V30 4898 C 453.262 2.21515 0.588539 0
M  V30 4899 C 454.262 1.19535 1.07554 0
M  V30 4900 O 455.452 1.44391 0.974514 0
M  V30 4901 C 452.584 2.88704 1.8128 0
M  V30 4902 H 453.777 2.99899 0.00806397 0
M  V30 4903 H 451.33 1.56265 -0.0333067 0
M  V30 4904 H 452.065 2.14352 2.43359 0
M  V30 4905 H 451.85 3.63443 1.47144 0
M  V30 4906 H 453.34 3.39465 2.43214 0
M  V30 4907 N 453.777 0.010035 1.57597 0
M  V30 4908 C 455.024 -0.6727 1.91 0
M  V30 4909 C 455.352 -1.73219 0.884614 0
M  V30 4910 O 454.607 -1.95395 -0.109215 0
M  V30 4911 C 454.906 -1.34434 3.31153 0
M  V30 4912 C 454.572 -0.417083 4.48967 0
M  V30 4913 C 453.234 -0.161809 4.80928 0
M  V30 4914 C 455.586 0.220753 5.20732 0
M  V30 4915 C 452.914 0.739426 5.82022 0
M  V30 4916 C 455.266 1.10993 6.22787 0
M  V30 4917 C 453.93 1.37428 6.532 0
M  V30 4918 H 453.2 -0.246158 0.698918 0
M  V30 4919 H 455.847 0.0677145 1.9138 0
M  V30 4920 H 454.152 -2.15905 3.26944 0
M  V30 4921 H 455.849 -1.87883 3.54261 0
M  V30 4922 H 452.439 -0.626217 4.24001 0
M  V30 4923 H 456.623 0.0365643 4.96287 0
M  V30 4924 H 451.879 0.952139 6.03941 0
M  V30 4925 H 456.053 1.61046 6.77523 0
M  V30 4926 H 453.68 2.0743 7.31353 0
M  V30 4927 N 455.255 -1.55392 -0.262866 0
M  V30 4928 C 456.483 -1.80513 -1.01108 0
M  V30 4929 C 456.898 -0.583533 -1.79556 0
M  V30 4930 O 456.255 0.447585 -1.76926 0
M  V30 4931 C 456.306 -3.03648 -1.96164 0
M  V30 4932 O 456.027 -4.2109 -1.20893 0
M  V30 4933 C 457.528 -3.41448 -2.82715 0
M  V30 4934 H 454.748 -0.601079 -0.298236 0
M  V30 4935 H 457.292 -2.02425 -0.290582 0
M  V30 4936 H 455.447 -2.83832 -2.63663 0
M  V30 4937 H 455.861 -4.90771 -1.85051 0
M  V30 4938 H 457.335 -4.30751 -3.45192 0
M  V30 4939 H 457.812 -2.61308 -3.53008 0
M  V30 4940 H 458.418 -3.63559 -2.20693 0
M  V30 4941 N 456.733 0.527833 -1.48498 0
M  V30 4942 C 457.696 1.61439 -1.62696 0
M  V30 4943 C 458.696 1.52824 -0.500136 0
M  V30 4944 O 459.886 1.56456 -0.765976 0
M  V30 4945 C 457.018 3.01063 -1.59918 0
M  V30 4946 H 458.211 1.50189 -2.59583 0
M  V30 4947 H 455.764 0.750055 -1.37127 0
M  V30 4948 H 456.499 3.17818 -0.645163 0
M  V30 4949 H 456.284 3.08725 -2.41726 0
M  V30 4950 H 457.774 3.80057 -1.73051 0
M  V30 4951 N 458.211 1.37122 0.776871 0
M  V30 4952 C 459.488 1.22586 1.52421 0
M  V30 4953 C 459.868 -0.182726 2.10308 0
M  V30 4954 O 459.216 -1.18979 1.9508 0
M  V30 4955 C 459.426 2.31782 2.60918 0
M  V30 4956 C 460.774 2.69071 3.2846 0
M  V30 4957 O 461.798 2.3092 2.71209 0
M  V30 4958 O 460.657 3.3478 4.31954 0
M  V30 4959 H 457.751 0.478045 0.674835 0
M  V30 4960 H 460.297 1.48888 0.814275 0
M  V30 4961 H 459.069 3.26131 2.16227 0
M  V30 4962 H 458.692 2.06916 3.39517 0
M  V30 4963 N 459.689 -1.00246 1.21608 0
M  V30 4964 C 460.935 -1.74319 1.03638 0
M  V30 4965 C 461.268 -1.89408 -0.428749 0
M  V30 4966 O 460.543 -1.43026 -1.3181 0
M  V30 4967 C 460.826 -3.15431 1.73711 0
M  V30 4968 C 460.679 -3.08049 3.27759 0
M  V30 4969 C 461.998 -4.14407 1.48173 0
M  V30 4970 H 459.117 -0.632741 0.377899 0
M  V30 4971 H 461.759 -1.16853 1.49818 0
M  V30 4972 H 459.909 -3.64493 1.34452 0
M  V30 4973 H 461.581 -2.66681 3.76403 0
M  V30 4974 H 459.824 -2.45088 3.57931 0
M  V30 4975 H 460.495 -4.07862 3.71958 0
M  V30 4976 H 462.971 -3.74061 1.82258 0
M  V30 4977 H 461.847 -5.11279 1.99713 0
M  V30 4978 H 462.108 -4.40174 0.412273 0
M  V30 4979 N 461.167 -1.02423 -1.1978 0
M  V30 4980 C 462.413 -0.72878 -1.89896 0
M  V30 4981 C 462.768 0.734248 -1.77839 0
M  V30 4982 O 462.061 1.52733 -1.15685 0
M  V30 4983 C 462.255 -1.1088 -3.39765 0
M  V30 4984 C 462.084 -2.60722 -3.66407 0
M  V30 4985 C 460.854 -3.27623 -3.84696 0
M  V30 4986 C 463.052 -3.58924 -3.68345 0
M  V30 4987 N 461.034 -4.66617 -3.98926 0
M  V30 4988 C 462.405 -4.83514 -3.8809 0
M  V30 4989 C 464.46 -3.52788 -3.51347 0
M  V30 4990 C 463.163 -6.0271 -3.92598 0
M  V30 4991 C 465.189 -4.71394 -3.5713 0
M  V30 4992 C 464.551 -5.94796 -3.77356 0
M  V30 4993 H 460.65 -0.318473 -0.714212 0
M  V30 4994 H 463.234 -1.3106 -1.43984 0
M  V30 4995 H 461.405 -0.555233 -3.84411 0
M  V30 4996 H 463.137 -0.766082 -3.97383 0
M  V30 4997 H 459.892 -2.7804 -3.83393 0
M  V30 4998 H 460.316 -5.38805 -4.099 0
M  V30 4999 H 464.958 -2.58372 -3.3467 0
M  V30 5000 H 462.676 -6.97499 -4.08069 0
M  V30 5001 H 466.262 -4.6827 -3.45275 0
M  V30 5002 H 465.142 -6.85037 -3.81699 0
M  V30 5003 N 462.645 1.35699 -0.801477 0
M  V30 5004 C 463.891 1.99208 -0.380022 0
M  V30 5005 C 464.224 1.63445 1.04878 0
M  V30 5006 O 463.499 0.895223 1.72673 0
M  V30 5007 C 463.782 3.55755 -0.557708 0
M  V30 5008 C 463.635 4.01332 -2.03107 0
M  V30 5009 C 464.954 4.40096 0.0197968 0
M  V30 5010 H 462.073 0.723667 -0.139552 0
M  V30 5011 H 464.715 1.60928 -1.01006 0
M  V30 5012 H 462.865 3.88494 -0.0213741 0
M  V30 5013 H 464.537 3.79026 -2.62939 0
M  V30 5014 H 462.78 3.52429 -2.52936 0
M  V30 5015 H 463.451 5.10234 -2.1063 0
M  V30 5016 H 465.927 4.13786 -0.438179 0
M  V30 5017 H 464.803 5.48735 -0.134477 0
M  V30 5018 H 465.064 4.2786 1.11303 0
M  V30 5019 N 464.123 0.554532 1.47522 0
M  V30 5020 C 465.369 0.0295227 2.02779 0
M  V30 5021 C 465.702 -1.31582 1.42828 0
M  V30 5022 O 464.977 -1.85561 0.582872 0
M  V30 5023 C 465.26 -0.0664057 3.60039 0
M  V30 5024 C 465.113 1.30585 4.30427 0
M  V30 5025 C 466.432 -0.781162 4.33112 0
M  V30 5026 H 463.551 0.0122027 0.736899 0
M  V30 5027 H 466.193 0.716305 1.7598 0
M  V30 5028 H 464.343 -0.651307 3.83002 0
M  V30 5029 H 466.015 1.93374 4.18813 0
M  V30 5030 H 464.258 1.88125 3.90886 0
M  V30 5031 H 464.929 1.19147 5.38988 0
M  V30 5032 H 467.405 -0.284565 4.15126 0
M  V30 5033 H 466.281 -0.817237 5.42782 0
M  V30 5034 H 466.542 -1.83672 4.0214 0
M  V30 5035 N 465.601 -1.54893 0.290851 0
M  V30 5036 C 466.533 -2.20564 -0.623236 0
M  V30 5037 C 467.546 -1.19519 -1.1054 0
M  V30 5038 O 468.735 -1.46165 -1.02459 0
M  V30 5039 C 465.835 -2.83033 -1.86401 0
M  V30 5040 C 465.008 -4.09916 -1.52604 0
M  V30 5041 C 464.067 -4.56284 -2.62091 0
M  V30 5042 O 463.093 -5.2171 -2.27612 0
M  V30 5043 N 464.295 -4.27746 -3.92446 0
M  V30 5044 H 467.06 -2.99638 -0.0610915 0
M  V30 5045 H 464.621 -1.61508 0.112615 0
M  V30 5046 H 466.613 -3.1099 -2.58973 0
M  V30 5047 H 465.183 -2.0786 -2.33481 0
M  V30 5048 H 464.403 -3.89078 -0.633424 0
M  V30 5049 H 465.691 -4.92554 -1.27547 0
M  V30 5050 H 465.089 -3.7531 -4.23272 0
M  V30 5051 H 463.646 -4.60437 -4.61347 0
M  V30 5052 N 467.08 -0.0183926 -1.57589 0
M  V30 5053 C 468.329 0.66185 -1.90532 0
M  V30 5054 C 468.642 1.73904 -0.895366 0
M  V30 5055 O 469.848 2.47518 -1.11566 0
M  V30 5056 C 468.304 1.22844 -3.38286 0
M  V30 5057 C 467.912 0.185103 -4.47617 0
M  V30 5058 C 469.656 1.88581 -3.80312 0
M  V30 5059 C 467.563 0.762723 -5.86461 0
M  V30 5060 H 466.493 0.250972 -0.711006 0
M  V30 5061 H 469.144 -0.0819435 -1.83317 0
M  V30 5062 H 467.526 2.0235 -3.40398 0
M  V30 5063 H 468.7 -0.58671 -4.5705 0
M  V30 5064 H 467.015 -0.372889 -4.14727 0
M  V30 5065 H 469.612 2.32735 -4.81392 0
M  V30 5066 H 469.955 2.72408 -3.14801 0
M  V30 5067 H 470.488 1.15782 -3.80578 0
M  V30 5068 H 467.227 -0.0371713 -6.55489 0
M  V30 5069 H 466.747 1.50327 -5.80656 0
M  V30 5070 H 468.426 1.25576 -6.34697 0
M  V30 5071 N 468.558 1.5553 0.254621 0
M  V30 5072 C 469.521 1.88872 1.29846 0
M  V30 5073 C 470.521 0.764591 1.41459 0
M  V30 5074 O 471.711 1.03265 1.40293 0
M  V30 5075 C 468.843 2.11032 2.67728 0
M  V30 5076 H 470.036 2.82201 1.01502 0
M  V30 5077 H 467.589 1.48303 0.493556 0
M  V30 5078 H 468.324 1.20146 3.01223 0
M  V30 5079 H 468.109 2.92895 2.60682 0
M  V30 5080 H 469.599 2.38038 3.43115 0
M  V30 5081 N 470.036 -0.519951 1.48776 0
M  V30 5082 C 470.984 -1.64443 1.64503 0
M  V30 5083 C 471.978 -1.61501 0.511248 0
M  V30 5084 O 473.184 -1.66238 0.690294 0
M  V30 5085 H 469.559 -0.544776 0.518385 0
M  V30 5086 H 471.53 -1.48325 2.58925 0
M  V30 5087 C 470.279 -3.02673 1.71127 0
M  V30 5088 H 469.602 -3.05635 2.57735 0
M  V30 5089 H 471.042 -3.80941 1.86172 0
M  V30 5090 C 469.501 -3.33854 0.452032 0
M  V30 5091 O 470.031 -3.99385 -0.430678 0
M  V30 5092 N 468.237 -2.88825 0.32069 0
M  V30 5093 H 467.784 -2.35674 1.03998 0
M  V30 5094 H 467.742 -3.10056 -0.520814 0
M  V30 5095 N 471.514 -1.37532 -0.769588 0
M  V30 5096 C 472.761 -1.3286 -1.52822 0
M  V30 5097 C 473.089 0.0862597 -1.94309 0
M  V30 5098 O 472.344 1.05995 -1.6451 0
M  V30 5099 C 472.643 -2.21558 -2.8044 0
M  V30 5100 C 472.309 -3.69796 -2.57996 0
M  V30 5101 C 470.971 -4.10194 -2.51583 0
M  V30 5102 C 473.323 -4.63699 -2.37976 0
M  V30 5103 C 470.651 -5.42608 -2.23144 0
M  V30 5104 C 473.003 -5.96353 -2.1106 0
M  V30 5105 C 471.667 -6.35853 -2.03093 0
M  V30 5106 H 470.937 -0.486168 -0.559215 0
M  V30 5107 H 473.584 -1.69757 -0.886277 0
M  V30 5108 H 471.889 -1.77663 -3.49204 0
M  V30 5109 H 473.586 -2.15256 -3.38328 0
M  V30 5110 H 470.176 -3.37759 -2.63851 0
M  V30 5111 H 474.36 -4.33346 -2.41919 0
M  V30 5112 H 469.616 -5.72173 -2.15472 0
M  V30 5113 H 473.79 -6.68667 -1.94568 0
M  V30 5114 H 471.417 -7.38382 -1.8082 0
M  V30 5115 N 472.992 0.995999 -1.22138 0
M  V30 5116 C 474.241 1.72928 -1.03821 0
M  V30 5117 C 474.554 1.90872 0.427444 0
M  V30 5118 O 475.76 2.61496 0.730212 0
M  V30 5119 C 474.216 3.11124 -1.80913 0
M  V30 5120 C 473.824 3.01122 -3.31707 0
M  V30 5121 C 475.568 3.8852 -1.71035 0
M  V30 5122 C 473.475 4.34453 -4.01253 0
M  V30 5123 H 472.405 0.648376 -0.384869 0
M  V30 5124 H 475.056 1.11213 -1.45959 0
M  V30 5125 H 473.438 3.73503 -1.31573 0
M  V30 5126 H 474.612 2.47926 -3.88419 0
M  V30 5127 H 472.927 2.3721 -3.42228 0
M  V30 5128 H 475.524 4.872 -2.20318 0
M  V30 5129 H 475.867 4.1087 -0.670196 0
M  V30 5130 H 476.4 3.32812 -2.17902 0
M  V30 5131 H 473.139 4.17303 -5.05508 0
M  V30 5132 H 472.659 4.87574 -3.49331 0
M  V30 5133 H 474.338 5.03215 -4.06674 0
M  V30 5134 N 474.47 1.03057 1.19235 0
M  V30 5135 C 475.695 0.74757 1.93458 0
M  V30 5136 C 476.12 -0.687648 1.7508 0
M  V30 5137 O 475.478 -1.47499 1.05422 0
M  V30 5138 C 475.526 1.10604 3.43219 0
M  V30 5139 O 474.63 0.225671 4.11782 0
M  V30 5140 H 473.971 0.276047 0.603899 0
M  V30 5141 H 476.501 1.3777 1.51263 0
M  V30 5142 H 476.511 1.06366 3.93891 0
M  V30 5143 H 475.186 2.15165 3.55917 0
M  V30 5144 H 473.763 0.326795 3.71465 0
M  V30 5145 N 475.948 -1.35272 0.808662 0
M  V30 5146 C 477.195 -1.98709 0.390003 0
M  V30 5147 C 477.523 -1.64148 -1.04335 0
M  V30 5148 O 476.778 -0.897797 -1.73891 0
M  V30 5149 C 477.077 -3.53556 0.522798 0
M  V30 5150 C 476.743 -4.0799 1.91977 0
M  V30 5151 C 475.405 -4.22568 2.30195 0
M  V30 5152 C 477.757 -4.37442 2.83361 0
M  V30 5153 C 475.085 -4.63918 3.59162 0
M  V30 5154 C 477.437 -4.80232 4.11776 0
M  V30 5155 C 476.101 -4.93016 4.49991 0
M  V30 5156 H 475.371 -0.727127 0.142712 0
M  V30 5157 H 478.018 -1.6145 1.02985 0
M  V30 5158 H 476.323 -3.91287 -0.200494 0
M  V30 5159 H 478.02 -4.00598 0.179608 0
M  V30 5160 H 474.61 -3.97096 1.61284 0
M  V30 5161 H 478.794 -4.25731 2.55083 0
M  V30 5162 H 474.05 -4.72005 3.88615 0
M  V30 5163 H 478.224 -5.01982 4.82687 0
M  V30 5164 H 475.851 -5.24814 5.49976 0
M  V30 5165 N 477.426 -0.562348 -1.47226 0
M  V30 5166 C 478.674 -0.0401371 -2.0206 0
M  V30 5167 C 478.995 1.3165 -1.43852 0
M  V30 5168 O 478.265 1.85976 -0.615599 0
M  V30 5169 H 476.845 -0.0118479 -0.746906 0
M  V30 5170 H 479.507 -0.73352 -1.8057 0
M  V30 5171 H 478.603 0.0441254 -3.12069 0
M  V30 5172 N 478.904 1.54736 -0.299062 0
M  V30 5173 C 480.153 1.99279 0.311549 0
M  V30 5174 C 480.466 1.19107 1.55154 0
M  V30 5175 O 481.672 1.53908 2.23662 0
M  V30 5176 C 480.128 3.54768 0.605632 0
M  V30 5177 C 479.736 4.43746 -0.615914 0
M  V30 5178 C 481.48 4.07841 1.17754 0
M  V30 5179 C 479.387 5.90663 -0.29509 0
M  V30 5180 H 478.317 0.744359 0.120187 0
M  V30 5181 H 480.968 1.78919 -0.407464 0
M  V30 5182 H 479.35 3.71021 1.38419 0
M  V30 5183 H 480.524 4.39267 -1.39218 0
M  V30 5184 H 478.839 4.01434 -1.10633 0
M  V30 5185 H 481.436 5.15174 1.43179 0
M  V30 5186 H 481.779 3.58324 2.11918 0
M  V30 5187 H 482.312 3.95123 0.460739 0
M  V30 5188 H 479.051 6.44325 -1.20524 0
M  V30 5189 H 478.571 5.98155 0.44394 0
M  V30 5190 H 480.25 6.46916 0.104048 0
M  V30 5191 N 480.382 0.0267497 1.57577 0
M  V30 5192 C 481.631 -0.651736 1.9088 0
M  V30 5193 C 481.944 -1.73427 0.904576 0
M  V30 5194 O 483.15 -2.46923 1.12877 0
M  V30 5195 C 481.606 -1.21048 3.38933 0
M  V30 5196 C 481.214 -0.161362 4.47709 0
M  V30 5197 C 482.958 -1.86562 3.81307 0
M  V30 5198 C 480.865 -0.731611 5.86857 0
M  V30 5199 H 479.795 -0.247198 0.712326 0
M  V30 5200 H 482.446 0.0916641 1.83271 0
M  V30 5201 H 480.828 -2.00542 3.41466 0
M  V30 5202 H 482.002 0.61094 4.56732 0
M  V30 5203 H 480.317 0.394877 4.14523 0
M  V30 5204 H 482.914 -2.30178 4.8262 0
M  V30 5205 H 483.257 -2.70735 3.16241 0
M  V30 5206 H 483.79 -1.13762 3.81186 0
M  V30 5207 H 480.529 0.0719329 6.55461 0
M  V30 5208 H 480.049 -1.47245 5.81445 0
M  V30 5209 H 481.728 -1.22208 6.35354 0
M  V30 5210 N 481.861 -1.55662 -0.24637 0
M  V30 5211 C 483.138 -1.68272 -0.997198 0
M  V30 5212 C 483.518 -0.566785 -2.03349 0
M  V30 5213 O 482.866 0.429688 -2.24424 0
M  V30 5214 C 483.076 -3.08594 -1.63006 0
M  V30 5215 C 484.424 -3.6721 -2.13171 0
M  V30 5216 O 485.448 -3.11397 -1.72946 0
M  V30 5217 O 484.307 -4.65054 -2.87031 0
M  V30 5218 H 481.401 -0.684429 -0.464205 0
M  V30 5219 H 483.947 -1.67993 -0.240114 0
M  V30 5220 H 482.719 -3.81264 -0.880527 0
M  V30 5221 H 482.342 -3.12886 -2.45333 0
M  V30 5222 N 483.339 0.512053 -1.4905 0
M  V30 5223 C 484.302 1.59704 -1.64399 0
M  V30 5224 C 485.302 1.52285 -0.516317 0
M  V30 5225 O 486.492 1.55635 -0.782527 0
M  V30 5226 C 483.624 2.9935 -1.63102 0
M  V30 5227 H 484.817 1.47428 -2.61161 0
M  V30 5228 H 482.37 0.735469 -1.37915 0
M  V30 5229 H 483.105 3.17116 -0.678836 0
M  V30 5230 H 482.89 3.06144 -2.44986 0
M  V30 5231 H 484.38 3.782 -1.77072 0
M  V30 5232 N 484.817 1.37938 0.762283 0
M  V30 5233 C 485.764 1.34467 1.87583 0
M  V30 5234 C 486.734 0.208633 1.64785 0
M  V30 5235 O 487.919 0.399494 1.86571 0
M  V30 5236 C 485.059 1.16692 3.24772 0
M  V30 5237 C 484.172 2.39608 3.59461 0
M  V30 5238 C 483.307 2.14631 4.85908 0
M  V30 5239 C 482.346 3.33364 5.13357 0
M  V30 5240 N 481.483 3.07877 6.30996 0
M  V30 5241 H 486.323 2.29669 1.89885 0
M  V30 5242 H 483.86 1.14116 0.928219 0
M  V30 5243 H 485.818 1.04405 4.03925 0
M  V30 5244 H 484.448 0.251333 3.2182 0
M  V30 5245 H 483.5 2.626 2.75219 0
M  V30 5246 H 484.812 3.28128 3.75678 0
M  V30 5247 H 483.966 1.99429 5.72986 0
M  V30 5248 H 482.705 1.23463 4.71814 0
M  V30 5249 H 481.71 3.49094 4.24751 0
M  V30 5250 H 482.935 4.25395 5.29354 0
M  V30 5251 H 480.881 2.19348 6.18241 0
M  V30 5252 H 480.798 3.89944 6.47673 0
M  V30 5253 H 482.066 2.96313 7.20985 0
M  V30 5254 N 486.295 -0.989507 1.22664 0
M  V30 5255 C 487.542 -1.72953 1.05325 0
M  V30 5256 C 487.87 -1.90104 -0.411168 0
M  V30 5257 O 487.125 -1.44386 -1.32103 0
M  V30 5258 C 487.424 -3.13649 1.71345 0
M  V30 5259 C 487.09 -3.16403 3.21248 0
M  V30 5260 C 485.752 -3.16862 3.62149 0
M  V30 5261 C 488.104 -3.12428 4.17179 0
M  V30 5262 C 485.432 -3.11051 4.97458 0
M  V30 5263 C 487.784 -3.08159 5.52468 0
M  V30 5264 C 486.448 -3.06935 5.92746 0
M  V30 5265 H 485.718 -0.632881 0.385412 0
M  V30 5266 H 488.365 -1.15863 1.52473 0
M  V30 5267 H 486.67 -3.74069 1.16532 0
M  V30 5268 H 488.367 -3.69658 1.55416 0
M  V30 5269 H 484.957 -3.16798 2.88682 0
M  V30 5270 H 489.141 -3.11221 3.86595 0
M  V30 5271 H 484.397 -3.0845 5.27891 0
M  V30 5272 H 488.571 -3.04039 6.26525 0
M  V30 5273 H 486.198 -3.02186 6.97558 0
M  V30 5274 N 487.773 -1.03688 -1.18687 0
M  V30 5275 C 489.02 -0.73803 -1.88572 0
M  V30 5276 C 489.348 0.733973 -1.8012 0
M  V30 5277 O 488.603 1.55098 -1.19344 0
M  V30 5278 C 488.902 -1.14477 -3.3857 0
M  V30 5279 C 488.568 -2.61641 -3.67226 0
M  V30 5280 C 487.23 -3.01846 -3.74757 0
M  V30 5281 C 489.582 -3.56812 -3.79914 0
M  V30 5282 C 486.91 -4.36118 -3.92451 0
M  V30 5283 C 489.262 -4.90799 -3.99123 0
M  V30 5284 C 487.926 -5.3068 -4.04888 0
M  V30 5285 H 487.196 -0.270064 -0.690034 0
M  V30 5286 H 489.843 -1.3012 -1.40503 0
M  V30 5287 H 488.148 -0.500337 -3.88592 0
M  V30 5288 H 489.845 -0.89095 -3.90977 0
M  V30 5289 H 486.435 -2.29498 -3.61979 0
M  V30 5290 H 490.619 -3.26899 -3.73431 0
M  V30 5291 H 485.875 -4.66542 -3.95157 0
M  V30 5292 H 490.049 -5.64451 -4.07882 0
M  V30 5293 H 487.676 -6.34733 -4.18351 0
M  V30 5294 N 489.251 1.34841 -0.815825 0
M  V30 5295 C 490.499 1.98107 -0.399744 0
M  V30 5296 C 490.82 1.65019 1.03894 0
M  V30 5297 O 490.09 0.937311 1.72021 0
M  V30 5298 H 488.67 0.732827 -0.144823 0
M  V30 5299 H 491.332 1.64599 -1.0437 0
M  V30 5300 H 490.428 3.07856 -0.512965 0
M  V30 5301 N 490.729 0.570148 1.46925 0
M  V30 5302 C 491.975 0.0510284 2.02736 0
M  V30 5303 C 492.308 -1.3006 1.44215 0
M  V30 5304 O 491.583 -1.84932 0.602521 0
M  V30 5305 C 491.866 -0.028215 3.60089 0
M  V30 5306 C 491.719 1.35142 4.29018 0
M  V30 5307 C 493.038 -0.735181 4.33916 0
M  V30 5308 H 490.157 0.0200178 0.736728 0
M  V30 5309 H 492.799 0.73493 1.75211 0
M  V30 5310 H 490.949 -0.610648 3.83671 0
M  V30 5311 H 492.621 1.97806 4.16738 0
M  V30 5312 H 490.864 1.9226 3.88868 0
M  V30 5313 H 491.535 1.24857 5.37694 0
M  V30 5314 H 494.011 -0.240519 4.15404 0
M  V30 5315 H 492.887 -0.759622 5.43618 0
M  V30 5316 H 493.148 -1.79397 4.04066 0
M  V30 5317 N 492.207 -1.54576 0.307264 0
M  V30 5318 C 493.137 -2.26708 -0.55907 0
M  V30 5319 C 494.118 -1.26893 -1.1328 0
M  V30 5320 O 495.303 -1.55677 -1.16097 0
M  V30 5321 C 492.433 -3.01259 -1.72801 0
M  V30 5322 C 491.387 -4.08275 -1.28435 0
M  V30 5323 C 490.713 -4.70575 -2.53895 0
M  V30 5324 C 492.013 -5.2068 -0.411038 0
M  V30 5325 H 493.707 -2.9937 0.042576 0
M  V30 5326 H 491.253 -1.43983 0.0219173 0
M  V30 5327 H 493.206 -3.50444 -2.34023 0
M  V30 5328 H 491.93 -2.26187 -2.356 0
M  V30 5329 H 490.589 -3.59949 -0.695161 0
M  V30 5330 H 490.237 -3.92136 -3.15021 0
M  V30 5331 H 489.937 -5.42854 -2.24908 0
M  V30 5332 H 491.461 -5.22527 -3.15908 0
M  V30 5333 H 492.875 -5.65721 -0.929097 0
M  V30 5334 H 491.272 -5.99716 -0.214664 0
M  V30 5335 H 492.342 -4.81629 0.562287 0
M  V30 5336 N 493.685 -0.035106 -1.57561 0
M  V30 5337 C 494.648 0.929819 -2.09492 0
M  V30 5338 C 495.648 1.25026 -1.01119 0
M  V30 5339 O 496.838 1.18961 -1.27255 0
M  V30 5340 C 493.97 2.24457 -2.56577 0
M  V30 5341 H 495.163 0.479935 -2.96035 0
M  V30 5342 H 492.716 0.213033 -1.54841 0
M  V30 5343 H 493.451 2.74061 -1.73382 0
M  V30 5344 H 493.236 2.02508 -3.35757 0
M  V30 5345 H 494.726 2.93607 -2.96959 0
M  V30 5346 N 495.163 1.55791 0.238111 0
M  V30 5347 C 496.096 1.86036 1.32158 0
M  V30 5348 C 497.074 0.716216 1.45976 0
M  V30 5349 O 498.258 0.962882 1.62052 0
M  V30 5350 C 495.385 2.05281 2.69402 0
M  V30 5351 C 494.431 3.27939 2.72687 0
M  V30 5352 S 495.264 4.84342 2.28413 0
M  V30 5353 C 496.42 5.06604 3.67565 0
M  V30 5354 H 496.653 2.77644 1.06306 0
M  V30 5355 H 494.186 1.48012 0.439537 0
M  V30 5356 H 496.144 2.17053 3.48423 0
M  V30 5357 H 494.805 1.14499 2.92487 0
M  V30 5358 H 493.998 3.38398 3.73501 0
M  V30 5359 H 493.6 3.14938 2.01717 0
M  V30 5360 H 495.892 4.94486 4.6313 0
M  V30 5361 H 496.835 6.08554 3.62033 0
M  V30 5362 H 497.243 4.34409 3.60485 0
M  V30 5363 N 496.642 -0.504142 1.49319 0
M  V30 5364 C 497.889 -1.25846 1.58647 0
M  V30 5365 C 498.217 -1.92592 0.27177 0
M  V30 5366 O 497.472 -1.81167 -0.74007 0
M  V30 5367 C 497.771 -2.35021 2.69258 0
M  V30 5368 C 497.437 -1.85755 4.1086 0
M  V30 5369 C 496.099 -1.72038 4.49395 0
M  V30 5370 C 498.451 -1.48844 4.99495 0
M  V30 5371 C 495.779 -1.19783 5.74342 0
M  V30 5372 C 498.131 -0.980422 6.24956 0
M  V30 5373 C 496.795 -0.829622 6.62324 0
M  V30 5374 H 496.065 -0.460505 0.580531 0
M  V30 5375 H 498.712 -0.559716 1.83138 0
M  V30 5376 H 497.017 -3.10672 2.38726 0
M  V30 5377 H 498.714 -2.93083 2.73685 0
M  V30 5378 H 495.304 -1.9739 3.80441 0
M  V30 5379 H 499.488 -1.5829 4.70381 0
M  V30 5380 H 494.744 -1.06817 6.01997 0
M  V30 5381 H 498.918 -0.685608 6.93017 0
M  V30 5382 H 496.545 -0.42253 7.59025 0
M  V30 5383 N 498.12 -1.38341 -0.754957 0
M  V30 5384 C 499.368 -1.34208 -1.51105 0
M  V30 5385 C 499.689 0.0677634 -1.94882 0
M  V30 5386 O 498.959 1.01517 -1.67544 0
M  V30 5387 H 497.539 -0.493819 -0.560493 0
M  V30 5388 H 500.201 -1.73005 -0.897507 0
M  V30 5389 H 499.297 -1.99203 -2.4026 0
M  V30 5390 N 499.598 0.982988 -1.23187 0
M  V30 5391 C 500.561 2.05649 -1.01198 0
M  V30 5392 C 501.561 1.6078 0.0252464 0
M  V30 5393 O 502.751 1.72878 -0.214243 0
M  V30 5394 C 499.883 3.36744 -0.530656 0
M  V30 5395 H 501.076 2.2659 -1.96461 0
M  V30 5396 H 498.629 1.15602 -1.05195 0
M  V30 5397 H 499.364 3.21492 0.425873 0
M  V30 5398 H 499.149 3.7065 -1.2791 0
M  V30 5399 H 500.639 4.15705 -0.397366 0
M  V30 5400 N 501.076 1.04316 1.18135 0
M  V30 5401 C 502.325 0.74319 1.87509 0
M  V30 5402 C 502.638 -0.732136 1.81381 0
M  V30 5403 O 503.844 -1.14572 2.46141 0
M  V30 5404 C 502.3 1.27913 3.36402 0
M  V30 5405 C 501.908 2.78326 3.51053 0
M  V30 5406 C 503.652 1.0558 4.11161 0
M  V30 5407 C 501.559 3.25266 4.93919 0
M  V30 5408 H 500.489 0.274313 0.702331 0
M  V30 5409 H 503.14 1.25931 1.33467 0
M  V30 5410 H 501.522 0.690853 3.89927 0
M  V30 5411 H 502.696 3.42933 3.07788 0
M  V30 5412 H 501.011 2.991 2.89704 0
M  V30 5413 H 503.608 1.38161 5.16542 0
M  V30 5414 H 503.951 -0.00684729 4.16299 0
M  V30 5415 H 504.484 1.60882 3.63816 0
M  V30 5416 H 501.223 4.30922 4.9395 0
M  V30 5417 H 500.743 2.65396 5.3789 0
M  V30 5418 H 502.422 3.19433 5.62647 0
M  V30 5419 N 502.554 -1.34406 0.822964 0
M  V30 5420 C 503.484 -2.32052 0.259608 0
M  V30 5421 C 504.465 -1.58243 -0.623961 0
M  V30 5422 O 505.65 -1.86224 -0.55083 0
M  V30 5423 C 502.78 -3.42434 -0.579314 0
M  V30 5424 C 501.734 -4.27499 0.20712 0
M  V30 5425 C 501.06 -5.29349 -0.754547 0
M  V30 5426 C 502.36 -5.02758 1.41533 0
M  V30 5427 H 504.054 -2.79418 1.07545 0
M  V30 5428 H 501.6 -1.34338 0.518593 0
M  V30 5429 H 503.553 -4.0976 -0.983612 0
M  V30 5430 H 502.277 -2.93717 -1.4282 0
M  V30 5431 H 500.936 -3.61776 0.592787 0
M  V30 5432 H 500.584 -4.76895 -1.59939 0
M  V30 5433 H 500.284 -5.8714 -0.232561 0
M  V30 5434 H 501.808 -5.99544 -1.1567 0
M  V30 5435 H 503.222 -5.62938 1.08504 0
M  V30 5436 H 501.619 -5.70123 1.87296 0
M  V30 5437 H 502.689 -4.32451 2.1935 0
M  V30 5438 N 504.032 -0.577932 -1.46621 0
M  V30 5439 C 505.278 -0.0617793 -2.02706 0
M  V30 5440 C 505.611 1.29294 -1.44903 0
M  V30 5441 O 504.886 1.8461 -0.61232 0
M  V30 5442 C 505.169 0.00911824 -3.60099 0
M  V30 5443 C 505.022 -1.37416 -4.28295 0
M  V30 5444 C 506.341 0.712159 -4.343 0
M  V30 5445 H 503.46 -0.0239246 -0.736612 0
M  V30 5446 H 506.102 -0.744211 -1.74818 0
M  V30 5447 H 504.252 0.590292 -3.83989 0
M  V30 5448 H 505.924 -2.00013 -4.15683 0
M  V30 5449 H 504.167 -1.94319 -3.87843 0
M  V30 5450 H 504.838 -1.27707 -5.37024 0
M  V30 5451 H 507.314 0.218486 -4.15526 0
M  V30 5452 H 506.19 0.730782 -5.44014 0
M  V30 5453 H 506.451 1.77251 -4.05012 0
M  V30 5454 N 505.51 1.54411 -0.315457 0
M  V30 5455 C 506.443 2.20265 0.596522 0
M  V30 5456 C 507.421 1.17693 1.12192 0
M  V30 5457 O 508.605 1.46397 1.18744 0
M  V30 5458 C 505.732 2.85794 1.81767 0
M  V30 5459 C 504.778 4.02017 1.42424 0
M  V30 5460 S 505.611 5.33452 0.467836 0
M  V30 5461 C 506.767 6.02471 1.69645 0
M  V30 5462 H 507 2.97277 0.0370896 0
M  V30 5463 H 504.533 1.54079 -0.0995562 0
M  V30 5464 H 506.491 3.24172 2.51839 0
M  V30 5465 H 505.152 2.08601 2.34828 0
M  V30 5466 H 504.345 4.46701 2.33396 0
M  V30 5467 H 503.947 3.65271 0.803311 0
M  V30 5468 H 506.239 6.24157 2.63504 0
M  V30 5469 H 507.182 6.96215 1.29192 0
M  V30 5470 H 507.59 5.32284 1.87974 0
M  V30 5471 N 506.988 0.0434614 1.5754 0
M  V30 5472 C 507.951 -0.918696 2.09982 0
M  V30 5473 C 508.951 -1.24488 1.01781 0
M  V30 5474 O 510.141 -1.18284 1.27885 0
M  V30 5475 C 507.273 -2.23093 2.57764 0
M  V30 5476 H 508.466 -0.464229 2.96285 0
M  V30 5477 H 506.019 -0.204818 1.54952 0
M  V30 5478 H 506.754 -2.73137 1.74832 0
M  V30 5479 H 506.539 -2.00724 3.36827 0
M  V30 5480 H 508.029 -2.92028 2.98512 0
M  V30 5481 N 508.466 -1.55915 -0.229846 0
M  V30 5482 C 509.396 -1.94754 -1.28815 0
M  V30 5483 C 510.377 -0.814657 -1.49323 0
M  V30 5484 O 511.562 -1.07631 -1.61645 0
M  V30 5485 C 508.692 -2.25705 -2.63959 0
M  V30 5486 C 507.646 -3.41406 -2.5812 0
M  V30 5487 C 506.972 -3.57941 -3.97218 0
M  V30 5488 C 508.272 -4.76616 -2.13623 0
M  V30 5489 H 509.966 -2.83404 -0.965547 0
M  V30 5490 H 507.512 -1.36353 -0.463028 0
M  V30 5491 H 509.465 -2.51467 -3.38146 0
M  V30 5492 H 508.189 -1.339 -2.9789 0
M  V30 5493 H 506.848 -3.1568 -1.86391 0
M  V30 5494 H 506.496 -2.63526 -4.28443 0
M  V30 5495 H 506.196 -4.35757 -3.94195 0
M  V30 5496 H 507.72 -3.86042 -4.73079 0
M  V30 5497 H 509.134 -5.01637 -2.77549 0
M  V30 5498 H 507.531 -5.57655 -2.21677 0
M  V30 5499 H 508.601 -4.7253 -1.08829 0
M  V30 5500 N 509.944 0.496216 -1.49584 0
M  V30 5501 C 511.19 1.25189 -1.59548 0
M  V30 5502 C 511.523 1.9212 -0.283466 0
M  V30 5503 O 510.798 1.80947 0.713324 0
M  V30 5504 C 511.081 2.31516 -2.75812 0
M  V30 5505 C 510.934 1.69054 -4.16822 0
M  V30 5506 C 512.253 3.3304 -2.87702 0
M  V30 5507 H 509.372 0.45379 -0.580727 0
M  V30 5508 H 512.014 0.549327 -1.81886 0
M  V30 5509 H 510.164 2.91438 -2.56897 0
M  V30 5510 H 511.836 1.12923 -4.47265 0
M  V30 5511 H 510.079 0.994485 -4.22247 0
M  V30 5512 H 510.75 2.462 -4.94054 0
M  V30 5513 H 513.226 2.83114 -3.04936 0
M  V30 5514 H 512.102 4.04794 -3.7072 0
M  V30 5515 H 512.363 3.95655 -1.97255 0
M  V30 5516 N 511.423 1.38739 0.74761 0
M  V30 5517 C 512.834 1.31507 1.32524 0
M  V30 5518 C 513.185 -0.0263963 1.96182 0
M  V30 5519 O 512.31 -0.92849 1.95469 0
M  V30 5520 C 512.905 2.38162 2.40966 0
M  V30 5521 C 511.464 2.34489 2.94434 0
M  V30 5522 C 510.611 2.20712 1.67873 0
M  V30 5523 H 513.562 1.4901 0.546043 0
M  V30 5524 H 513.583 2.04222 3.21051 0
M  V30 5525 H 513.095 3.35783 1.94605 0
M  V30 5526 H 511.196 1.40467 3.45108 0
M  V30 5527 H 511.309 3.28861 3.48407 0
M  V30 5528 H 509.673 1.67667 1.91729 0
M  V30 5529 H 510.456 3.20285 1.23582 0
M  V30 5530 N 512.901 -0.976442 1.23707 0
M  V30 5531 C 514.147 -1.72158 1.08319 0
M  V30 5532 C 514.502 -1.88701 -0.375445 0
M  V30 5533 O 513.795 -1.43107 -1.274 0
M  V30 5534 C 513.989 -3.11814 1.74662 0
M  V30 5535 C 513.818 -3.08892 3.26827 0
M  V30 5536 C 512.588 -3.13861 3.96004 0
M  V30 5537 C 514.786 -2.9175 4.2354 0
M  V30 5538 N 512.768 -3.00867 5.35119 0
M  V30 5539 C 514.139 -2.8696 5.49595 0
M  V30 5540 C 516.194 -2.76265 4.14225 0
M  V30 5541 C 514.897 -2.68268 6.67401 0
M  V30 5542 C 516.923 -2.58938 5.317 0
M  V30 5543 C 516.285 -2.54849 6.56682 0
M  V30 5544 H 512.384 -0.638896 0.450927 0
M  V30 5545 H 514.968 -1.15835 1.56494 0
M  V30 5546 H 513.139 -3.66347 1.29014 0
M  V30 5547 H 514.871 -3.74984 1.52215 0
M  V30 5548 H 511.626 -3.22198 3.4711 0
M  V30 5549 H 512.05 -2.97634 6.08065 0
M  V30 5550 H 516.692 -2.78213 3.18366 0
M  V30 5551 H 514.41 -2.65063 7.63392 0
M  V30 5552 H 517.996 -2.47914 5.26336 0
M  V30 5553 H 516.876 -2.41611 7.46052 0
M  V30 5554 N 514.379 -1.04941 -1.1758 0
M  V30 5555 C 515.309 -0.669172 -2.23706 0
M  V30 5556 C 516.29 0.331835 -1.66832 0
M  V30 5557 O 517.475 0.209988 -1.93061 0
M  V30 5558 C 514.605 -0.0404889 -3.47276 0
M  V30 5559 C 513.559 -0.965983 -4.16957 0
M  V30 5560 C 512.885 -0.201312 -5.34321 0
M  V30 5561 C 514.185 -2.28902 -4.69469 0
M  V30 5562 H 515.879 -1.55639 -2.55767 0
M  V30 5563 H 513.425 -0.749793 -1.22939 0
M  V30 5564 H 515.378 0.237298 -4.20731 0
M  V30 5565 H 514.102 0.881658 -3.14475 0
M  V30 5566 H 512.761 -1.22829 -3.45411 0
M  V30 5567 H 512.409 0.723519 -4.97769 0
M  V30 5568 H 512.109 -0.817968 -5.81879 0
M  V30 5569 H 513.633 0.0692499 -6.10561 0
M  V30 5570 H 515.047 -2.07132 -5.34574 0
M  V30 5571 H 513.444 -2.85942 -5.27596 0
M  V30 5572 H 514.514 -2.92937 -3.86414 0
M  V30 5573 N 515.857 1.33968 -0.830081 0
M  V30 5574 C 517.134 1.92554 -0.343858 0
M  V30 5575 C 517.514 1.7573 1.16971 0
M  V30 5576 O 516.862 1.14035 1.98011 0
M  V30 5577 C 517.072 3.40147 -0.781073 0
M  V30 5578 C 518.42 4.17299 -0.78402 0
M  V30 5579 O 519.444 3.48762 -0.724112 0
M  V30 5580 O 518.303 5.39631 -0.863739 0
M  V30 5581 H 515.397 0.821469 -0.0954827 0
M  V30 5582 H 517.943 1.42897 -0.915348 0
M  V30 5583 H 516.715 3.46225 -1.82329 0
M  V30 5584 H 516.338 3.97166 -0.18567 0
M  V30 5585 N 517.335 0.585699 1.46312 0
M  V30 5586 C 518.563 0.0781299 2.06752 0
M  V30 5587 C 518.978 -1.22812 1.43396 0
M  V30 5588 O 518.335 -1.74318 0.540314 0
M  V30 5589 C 518.386 -0.0911927 3.61385 0
M  V30 5590 O 518.107 1.16336 4.22371 0
M  V30 5591 C 519.608 -0.632765 4.38761 0
M  V30 5592 H 516.828 0.0588188 0.668417 0
M  V30 5593 H 519.372 0.807218 1.87894 0
M  V30 5594 H 517.527 -0.770514 3.7966 0
M  V30 5595 H 517.941 0.979082 5.15281 0
M  V30 5596 H 519.415 -0.70041 5.47538 0
M  V30 5597 H 519.892 -1.65039 4.07012 0
M  V30 5598 H 520.498 0.0117856 4.25298 0
M  V30 5599 N 518.813 -1.54241 0.323641 0
M  V30 5600 C 520.038 -2.05452 -0.283605 0
M  V30 5601 C 520.463 -1.19823 -1.44997 0
M  V30 5602 O 519.821 -0.207358 -1.8011 0
M  V30 5603 C 519.869 -3.53823 -0.695795 0
M  V30 5604 O 518.973 -3.71134 -1.79815 0
M  V30 5605 H 518.314 -0.662024 -0.0511917 0
M  V30 5606 H 520.844 -1.99079 0.472073 0
M  V30 5607 H 520.854 -3.96094 -0.978434 0
M  V30 5608 H 519.529 -4.15602 0.157287 0
M  V30 5609 H 518.106 -3.40768 -1.51431 0
M  V30 5610 N 520.291 -0.0518155 -1.57515 0
M  V30 5611 C 521.702 0.483787 -1.80323 0
M  V30 5612 C 522.053 1.70879 -0.964099 0
M  V30 5613 O 521.178 2.15643 -0.180872 0
M  V30 5614 C 521.773 0.884459 -3.27052 0
M  V30 5615 C 520.332 1.36504 -3.50776 0
M  V30 5616 C 519.479 0.340539 -2.75201 0
M  V30 5617 H 522.43 -0.277691 -1.56252 0
M  V30 5618 H 522.451 1.74733 -3.38007 0
M  V30 5619 H 521.963 -0.00731093 -3.88099 0
M  V30 5620 H 520.064 2.27598 -2.95009 0
M  V30 5621 H 520.177 1.35675 -4.59488 0
M  V30 5622 H 518.541 0.81356 -2.41357 0
M  V30 5623 H 519.324 -0.543156 -3.38976 0
M  V30 5624 N 521.769 1.56035 0.221574 0
M  V30 5625 C 523.015 1.79312 0.947372 0
M  V30 5626 C 523.348 0.621453 1.83988 0
M  V30 5627 O 522.623 -0.379287 1.90766 0
M  V30 5628 C 522.906 3.1267 1.78633 0
M  V30 5629 C 522.759 4.40284 0.920312 0
M  V30 5630 C 524.078 3.4247 2.7641 0
M  V30 5631 H 521.197 0.652328 0.342982 0
M  V30 5632 H 523.839 1.88765 0.216244 0
M  V30 5633 H 521.989 3.04741 2.40967 0
M  V30 5634 H 523.661 4.60232 0.313718 0
M  V30 5635 H 521.904 4.33212 0.225734 0
M  V30 5636 H 522.575 5.30033 1.54171 0
M  V30 5637 H 525.051 3.50526 2.24211 0
M  V30 5638 H 523.927 4.3695 3.32213 0
M  V30 5639 H 524.188 2.64635 3.54148 0
M  V30 5640 N 523.247 -0.488276 1.49845 0
M  V30 5641 C 524.663 -0.820566 1.3689 0
M  V30 5642 C 524.863 -1.97248 0.411752 0
M  V30 5643 O 523.919 -2.52042 -0.151931 0
M  V30 5644 C 525.232 -1.1488 2.77891 0
M  V30 5645 C 526.78 -1.25626 2.86683 0
M  V30 5646 C 527.255 -1.61772 4.28479 0
M  V30 5647 N 528.746 -1.68797 4.31349 0
M  V30 5648 C 529.481 -1.98235 5.38043 0
M  V30 5649 N 528.977 -2.2581 6.54967 0
M  V30 5650 N 530.77 -1.99593 5.2547 0
M  V30 5651 H 522.921 0.271123 2.10662 0
M  V30 5652 H 525.184 0.058735 0.946179 0
M  V30 5653 H 524.89 -0.375614 3.49688 0
M  V30 5654 H 524.764 -2.08919 3.14058 0
M  V30 5655 H 527.151 -2.02014 2.15114 0
M  V30 5656 H 527.232 -0.296072 2.54081 0
M  V30 5657 H 526.876 -0.859295 5.00578 0
M  V30 5658 H 526.806 -2.58912 4.58554 0
M  V30 5659 H 529.297 -1.49595 3.4703 0
M  V30 5660 H 529.61 -2.47497 7.32096 0
M  V30 5661 H 527.955 -2.23239 6.58171 0
M  V30 5662 H 531.146 -1.77535 4.33127 0
M  V30 5663 H 531.319 -2.222 6.08713 0
M  V30 5664 N 524.725 -1.39134 -0.740242 0
M  V30 5665 C 525.95 -1.39518 -1.53459 0
M  V30 5666 C 526.375 0.00968883 -1.88098 0
M  V30 5667 O 525.733 0.995312 -1.51536 0
M  V30 5668 C 525.781 -2.26981 -2.802 0
M  V30 5669 O 524.885 -1.69609 -3.75908 0
M  V30 5670 H 524.226 -0.475328 -0.463637 0
M  V30 5671 H 526.756 -1.83064 -0.913717 0
M  V30 5672 H 526.766 -2.41309 -3.28989 0
M  V30 5673 H 525.441 -3.29081 -2.5432 0
M  V30 5674 H 524.018 -1.64495 -3.34658 0
M  V30 5675 N 526.204 0.969867 -1.24223 0
M  V30 5676 C 527.452 1.70918 -1.0785 0
M  V30 5677 C 527.773 1.91186 0.383763 0
M  V30 5678 O 527.043 1.48806 1.27411 0
M  V30 5679 H 525.623 0.633334 -0.396103 0
M  V30 5680 H 528.285 1.16689 -1.56108 0
M  V30 5681 H 527.381 2.69455 -1.57482 0
M  V30 5682 N 527.682 1.05563 1.17022 0
M  V30 5683 C 529.098 0.777684 1.39371 0
M  V30 5684 C 529.298 -0.626269 1.91521 0
M  V30 5685 O 528.354 -1.38806 2.10924 0
M  V30 5686 C 529.667 1.83642 2.3811 0
M  V30 5687 C 531.215 1.85907 2.51809 0
M  V30 5688 C 531.69 2.90813 3.53824 0
M  V30 5689 N 533.181 2.898 3.61345 0
M  V30 5690 C 533.916 3.6762 4.40049 0
M  V30 5691 N 533.412 4.55237 5.22237 0
M  V30 5692 N 535.205 3.56044 4.34959 0
M  V30 5693 H 527.356 1.9614 0.815047 0
M  V30 5694 H 529.619 0.849527 0.420722 0
M  V30 5695 H 529.325 2.84425 2.06871 0
M  V30 5696 H 529.199 1.6812 3.37662 0
M  V30 5697 H 531.586 0.857865 2.82356 0
M  V30 5698 H 531.667 2.05506 1.52318 0
M  V30 5699 H 531.311 3.91122 3.24015 0
M  V30 5700 H 531.241 2.68465 4.53028 0
M  V30 5701 H 533.732 2.26274 3.02669 0
M  V30 5702 H 534.045 5.11291 5.79484 0
M  V30 5703 H 532.39 4.59296 5.21605 0
M  V30 5704 H 535.581 2.86986 3.69806 0
M  V30 5705 H 535.754 4.16938 4.96051 0
M  V30 5706 N 529.16 -1.33526 0.837174 0
M  V30 5707 C 530.39 -2.01754 0.444848 0
M  V30 5708 C 530.798 -1.63149 -0.958072 0
M  V30 5709 O 530.141 -0.839827 -1.63379 0
M  V30 5710 C 530.203 -3.56228 0.483917 0
M  V30 5711 C 529.867 -4.18205 1.84265 0
M  V30 5712 C 530.864 -4.37699 2.80563 0
M  V30 5713 C 528.549 -4.54667 2.13503 0
M  V30 5714 C 530.543 -4.928 4.04261 0
M  V30 5715 C 528.23 -5.09475 3.37458 0
M  V30 5716 C 529.228 -5.28488 4.32654 0
M  V30 5717 O 528.916 -5.82132 5.54417 0
M  V30 5718 H 528.648 -0.652928 0.175104 0
M  V30 5719 H 531.202 -1.71469 1.13082 0
M  V30 5720 H 529.432 -3.85833 -0.258826 0
M  V30 5721 H 531.121 -4.05752 0.109653 0
M  V30 5722 H 531.887 -4.0988 2.59274 0
M  V30 5723 H 527.766 -4.39164 1.40201 0
M  V30 5724 H 531.31 -5.07555 4.78574 0
M  V30 5725 H 527.207 -5.36725 3.58604 0
M  V30 5726 H 527.975 -6.00548 5.56133 0
M  V30 5727 N 530.638 -0.59345 -1.46 0
M  V30 5728 C 532.054 -0.255965 -1.57534 0
M  V30 5729 C 532.254 1.24167 -1.58697 0
M  V30 5730 O 531.31 2.02398 -1.50968 0
M  V30 5731 C 532.623 -0.91466 -2.86451 0
M  V30 5732 C 534.171 -0.889253 -3.00102 0
M  V30 5733 C 534.646 -1.52769 -4.3177 0
M  V30 5734 N 536.137 -1.49253 -4.38495 0
M  V30 5735 C 536.872 -1.9558 -5.39014 0
M  V30 5736 N 536.368 -2.49929 -6.46148 0
M  V30 5737 N 538.161 -1.86432 -5.30282 0
M  V30 5738 H 530.312 -1.56604 -1.43489 0
M  V30 5739 H 532.575 -0.655207 -0.685133 0
M  V30 5740 H 532.281 -1.96861 -2.91442 0
M  V30 5741 H 532.155 -0.429356 -3.74748 0
M  V30 5742 H 534.542 0.156111 -2.94687 0
M  V30 5743 H 534.623 -1.41268 -2.13253 0
M  V30 5744 H 534.267 -2.57231 -4.37944 0
M  V30 5745 H 534.197 -0.979398 -5.17412 0
M  V30 5746 H 536.688 -1.09536 -3.61677 0
M  V30 5747 H 537.001 -2.83109 -7.19075 0
M  V30 5748 H 535.346 -2.53961 -6.46938 0
M  V30 5749 H 538.537 -1.43722 -4.4549 0
M  V30 5750 H 538.71 -2.22852 -6.08474 0
M  V30 5751 N 532.116 1.54067 -0.331816 0
M  V30 5752 C 533.527 1.86059 0.15454 0
M  V30 5753 C 533.878 1.25331 1.50952 0
M  V30 5754 O 533.003 0.562441 2.08963 0
M  V30 5755 C 533.598 3.37581 0.287192 0
M  V30 5756 C 532.157 3.69493 0.717773 0
M  V30 5757 C 531.304 2.76863 -0.155569 0
M  V30 5758 H 534.255 1.48797 -0.55182 0
M  V30 5759 H 534.276 3.63744 1.11671 0
M  V30 5760 H 533.788 3.81751 -0.699131 0
M  V30 5761 H 531.889 3.3086 1.71354 0
M  V30 5762 H 532.002 4.76315 0.5158 0
M  V30 5763 H 530.366 2.51995 0.370213 0
M  V30 5764 H 531.149 3.23861 -1.13881 0
M  V30 5765 N 533.594 0.0601682 1.57485 0
M  V30 5766 C 534.527 -0.94676 2.07634 0
M  V30 5767 C 535.505 -1.29837 0.978826 0
M  V30 5768 O 536.689 -1.40969 1.2514 0
M  V30 5769 C 533.816 -2.25822 2.52433 0
M  V30 5770 C 532.862 -2.05901 3.73507 0
M  V30 5771 S 533.695 -1.32907 5.18745 0
M  V30 5772 C 534.851 -2.65356 5.66866 0
M  V30 5773 H 535.084 -0.520003 2.92717 0
M  V30 5774 H 532.617 -0.152319 1.53647 0
M  V30 5775 H 534.575 -3.01201 2.78905 0
M  V30 5776 H 533.236 -2.65624 1.67639 0
M  V30 5777 H 532.429 -3.02929 4.02803 0
M  V30 5778 H 532.031 -1.38659 3.47347 0
M  V30 5779 H 534.323 -3.61492 5.73001 0
M  V30 5780 H 535.266 -2.40685 6.6594 0
M  V30 5781 H 535.674 -2.72028 4.94632 0
M  V30 5782 N 535.072 -1.5615 -0.213296 0
M  V30 5783 C 536.319 -1.79546 -0.936462 0
M  V30 5784 C 536.647 -0.630337 -1.84003 0
M  V30 5785 O 535.902 0.384883 -1.91878 0
M  V30 5786 C 536.201 -3.08772 -1.79985 0
M  V30 5787 C 535.867 -4.38532 -1.04882 0
M  V30 5788 C 534.529 -4.73787 -0.841393 0
M  V30 5789 C 536.881 -5.18609 -0.51907 0
M  V30 5790 C 534.209 -5.86627 -0.0924403 0
M  V30 5791 C 536.561 -6.32229 0.216581 0
M  V30 5792 C 535.225 -6.6608 0.435191 0
M  V30 5793 H 534.495 -0.657004 -0.342676 0
M  V30 5794 H 537.142 -1.9041 -0.204051 0
M  V30 5795 H 535.447 -2.93065 -2.60038 0
M  V30 5796 H 537.144 -3.24077 -2.36168 0
M  V30 5797 H 533.734 -4.10855 -1.22048 0
M  V30 5798 H 537.918 -4.91801 -0.666775 0
M  V30 5799 H 533.174 -6.11338 0.087081 0
M  V30 5800 H 537.348 -6.93503 0.634538 0
M  V30 5801 H 534.975 -7.5336 1.01746 0
M  V30 5802 N 536.55 0.480323 -1.50102 0
M  V30 5803 C 537.497 1.57946 -1.6829 0
M  V30 5804 C 538.467 1.57611 -0.524223 0
M  V30 5805 O 539.652 1.75282 -0.753709 0
M  V30 5806 C 536.792 2.95978 -1.77457 0
M  V30 5807 C 535.905 3.06173 -3.04766 0
M  V30 5808 C 535.04 4.35063 -3.04784 0
M  V30 5809 C 534.079 4.38966 -4.26586 0
M  V30 5810 N 533.216 5.59314 -4.24396 0
M  V30 5811 H 538.056 1.41743 -2.62131 0
M  V30 5812 H 535.593 0.689304 -1.2995 0
M  V30 5813 H 537.551 3.76011 -1.80752 0
M  V30 5814 H 536.181 3.10837 -0.870637 0
M  V30 5815 H 535.233 2.19071 -3.10986 0
M  V30 5816 H 536.545 3.04916 -3.9475 0
M  V30 5817 H 535.699 5.23436 -3.06757 0
M  V30 5818 H 534.438 4.38915 -2.12614 0
M  V30 5819 H 533.443 3.48992 -4.24835 0
M  V30 5820 H 534.668 4.36813 -5.19972 0
M  V30 5821 H 532.614 5.63969 -3.35074 0
M  V30 5822 H 532.531 5.5976 -5.08138 0
M  V30 5823 H 533.799 6.49837 -4.30502 0
M  V30 5824 N 538.028 1.39524 0.732853 0
M  V30 5825 C 539.277 1.36175 1.48792 0
M  V30 5826 C 539.59 -0.0388195 1.95561 0
M  V30 5827 O 540.796 -0.194899 2.708 0
M  V30 5828 C 539.252 2.39242 2.68871 0
M  V30 5829 C 538.86 3.85024 2.29042 0
M  V30 5830 C 540.604 2.44972 3.46683 0
M  V30 5831 C 538.511 4.79727 3.45856 0
M  V30 5832 H 537.441 0.506267 0.558757 0
M  V30 5833 H 540.092 1.65181 0.799226 0
M  V30 5834 H 538.474 2.0331 3.39825 0
M  V30 5835 H 539.648 4.30008 1.6562 0
M  V30 5836 H 537.963 3.82609 1.64316 0
M  V30 5837 H 540.56 3.12918 4.33574 0
M  V30 5838 H 540.903 1.4749 3.89297 0
M  V30 5839 H 541.436 2.79808 2.82759 0
M  V30 5840 H 538.175 5.78479 3.08289 0
M  V30 5841 H 537.695 4.39421 4.08251 0
M  V30 5842 H 539.374 4.98731 4.12161 0
M  V30 5843 N 539.506 -0.963266 1.24736 0
M  V30 5844 C 540.736 -1.73913 1.11524 0
M  V30 5845 C 541.144 -1.86218 -0.334612 0
M  V30 5846 O 540.487 -1.3531 -1.24245 0
M  V30 5847 C 540.549 -3.17501 1.68622 0
M  V30 5848 C 540.213 -3.28655 3.17546 0
M  V30 5849 C 541.21 -3.13637 4.14642 0
M  V30 5850 C 538.895 -3.52753 3.5759 0
M  V30 5851 C 540.889 -3.2255 5.49764 0
M  V30 5852 C 538.576 -3.61303 4.92852 0
M  V30 5853 C 539.574 -3.46214 5.88748 0
M  V30 5854 O 539.262 -3.5443 7.2155 0
M  V30 5855 H 538.994 -0.552057 0.390139 0
M  V30 5856 H 541.548 -1.2177 1.65412 0
M  V30 5857 H 539.778 -3.70969 1.09172 0
M  V30 5858 H 541.467 -3.76914 1.50635 0
M  V30 5859 H 542.233 -2.94899 3.85045 0
M  V30 5860 H 538.112 -3.63561 2.83451 0
M  V30 5861 H 541.656 -3.1069 6.24594 0
M  V30 5862 H 537.553 -3.79556 5.22118 0
M  V30 5863 H 538.321 -3.71116 7.29531 0
M  V30 5864 N 540.985 -1.06182 -1.16461 0
M  V30 5865 C 542.232 -0.777863 -1.86964 0
M  V30 5866 C 542.56 0.695602 -1.81636 0
M  V30 5867 O 541.815 1.52532 -1.22607 0
M  V30 5868 C 542.114 -1.21633 -3.36066 0
M  V30 5869 C 541.78 -2.69371 -3.61594 0
M  V30 5870 C 540.442 -3.09727 -3.6827 0
M  V30 5871 C 542.794 -3.64791 -3.7226 0
M  V30 5872 C 540.122 -4.44345 -3.83112 0
M  V30 5873 C 542.474 -4.99155 -3.88623 0
M  V30 5874 C 541.138 -5.39149 -3.93541 0
M  V30 5875 H 540.408 -0.28464 -0.68415 0
M  V30 5876 H 543.055 -1.33071 -1.37711 0
M  V30 5877 H 541.36 -0.582651 -3.87443 0
M  V30 5878 H 543.057 -0.973682 -3.88999 0
M  V30 5879 H 539.647 -2.37124 -3.57029 0
M  V30 5880 H 543.831 -3.34746 -3.66413 0
M  V30 5881 H 539.087 -4.74819 -3.85172 0
M  V30 5882 H 543.261 -5.72976 -3.95817 0
M  V30 5883 H 540.888 -6.43464 -4.04794 0
M  V30 5884 N 542.463 1.3308 -0.844243 0
M  V30 5885 C 543.709 1.98304 -0.452453 0
M  V30 5886 C 544.064 1.65645 0.978746 0
M  V30 5887 O 543.357 0.928849 1.6758 0
M  V30 5888 C 543.551 3.52045 -0.616354 0
M  V30 5889 C 543.38 3.99643 -2.06193 0
M  V30 5890 C 542.15 4.27224 -2.69829 0
M  V30 5891 C 544.348 4.15471 -3.03131 0
M  V30 5892 N 542.33 4.60998 -4.05406 0
M  V30 5893 C 543.701 4.52665 -4.23668 0
M  V30 5894 C 545.756 3.97776 -2.99465 0
M  V30 5895 C 544.459 4.74011 -5.41023 0
M  V30 5896 C 546.485 4.20301 -4.16055 0
M  V30 5897 C 545.847 4.57801 -5.35348 0
M  V30 5898 H 541.946 0.752122 -0.214096 0
M  V30 5899 H 544.53 1.61096 -1.09344 0
M  V30 5900 H 542.701 3.884 -0.00513205 0
M  V30 5901 H 544.433 4.04228 -0.19548 0
M  V30 5902 H 541.188 4.18911 -2.20931 0
M  V30 5903 H 541.612 4.82087 -4.75312 0
M  V30 5904 H 546.254 3.67893 -2.08362 0
M  V30 5905 H 543.972 5.02753 -6.32665 0
M  V30 5906 H 547.558 4.08122 -4.14641 0
M  V30 5907 H 546.438 4.74884 -6.24063 0
M  V30 5908 N 543.941 0.601185 1.45683 0
M  V30 5909 C 544.871 -0.108824 2.33246 0
M  V30 5910 C 545.852 -0.865223 1.46451 0
M  V30 5911 O 547.037 -0.83704 1.75235 0
M  V30 5912 C 544.167 -1.11101 3.2905 0
M  V30 5913 C 543.121 -0.468244 4.25431 0
M  V30 5914 C 542.447 -1.57822 5.10878 0
M  V30 5915 C 543.747 0.606469 5.18767 0
M  V30 5916 H 545.441 0.622306 2.92861 0
M  V30 5917 H 542.987 0.300714 1.40825 0
M  V30 5918 H 544.94 -1.61622 3.89174 0
M  V30 5919 H 543.664 -1.87265 2.67581 0
M  V30 5920 H 542.323 0.0160484 3.66596 0
M  V30 5921 H 541.971 -2.32998 4.45781 0
M  V30 5922 H 541.671 -1.15369 5.76163 0
M  V30 5923 H 543.195 -2.08583 5.73869 0
M  V30 5924 H 544.609 0.185589 5.73 0
M  V30 5925 H 543.006 0.952381 5.92494 0
M  V30 5926 H 544.076 1.48559 4.61582 0
M  V30 5927 N 545.419 -1.53889 0.339982 0
M  V30 5928 C 546.349 -2.27843 -0.510856 0
M  V30 5929 C 547.33 -1.29267 -1.10563 0
M  V30 5930 O 548.515 -1.58104 -1.12768 0
M  V30 5931 C 545.645 -3.04857 -1.66372 0
M  V30 5932 C 544.599 -4.10907 -1.19746 0
M  V30 5933 C 543.925 -4.75855 -2.43857 0
M  V30 5934 C 545.225 -5.21435 -0.300501 0
M  V30 5935 H 546.919 -2.99212 0.106067 0
M  V30 5936 H 544.465 -1.43904 0.0524533 0
M  V30 5937 H 546.418 -3.5533 -2.26537 0
M  V30 5938 H 545.142 -2.31133 -2.30749 0
M  V30 5939 H 543.801 -3.61342 -0.618654 0
M  V30 5940 H 543.449 -3.9873 -3.06633 0
M  V30 5941 H 543.149 -5.47502 -2.13343 0
M  V30 5942 H 544.673 -5.2911 -3.04754 0
M  V30 5943 H 546.087 -5.67565 -0.80889 0
M  V30 5944 H 544.484 -6.00036 -0.0874076 0
M  V30 5945 H 545.554 -4.80328 0.664321 0
M  V30 5946 N 546.897 -0.0685191 -1.57451 0
M  V30 5947 C 547.86 0.885173 -2.11417 0
M  V30 5948 C 548.86 1.22853 -1.03748 0
M  V30 5949 O 550.05 1.16235 -1.2975 0
M  V30 5950 C 547.182 2.18964 -2.61281 0
M  V30 5951 H 548.375 0.417034 -2.96986 0
M  V30 5952 H 545.928 0.18014 -1.55258 0
M  V30 5953 H 546.663 2.70321 -1.79156 0
M  V30 5954 H 546.448 1.9534 -3.39977 0
M  V30 5955 H 547.938 2.87242 -3.0312 0
M  V30 5956 N 548.375 1.56261 0.205012 0
M  V30 5957 C 549.338 1.92908 1.23771 0
M  V30 5958 C 550.338 0.809208 1.38955 0
M  V30 5959 O 551.528 1.07676 1.36936 0
M  V30 5960 C 548.66 2.19442 2.60879 0
M  V30 5961 H 549.853 2.85287 0.924728 0
M  V30 5962 H 547.406 1.49798 0.446125 0
M  V30 5963 H 548.141 1.29668 2.97248 0
M  V30 5964 H 547.926 3.0104 2.51232 0
M  V30 5965 H 549.416 2.48833 3.35368 0
M  V30 5966 N 549.853 -0.472356 1.50355 0
M  V30 5967 C 551.13 -1.23356 1.51798 0
M  V30 5968 C 551.51 -2.09469 0.26193 0
M  V30 5969 O 550.858 -2.15677 -0.754691 0
M  V30 5970 C 551.068 -2.06568 2.81302 0
M  V30 5971 C 552.416 -2.648 3.31913 0
M  V30 5972 O 553.44 -2.16812 2.82614 0
M  V30 5973 O 552.299 -3.52231 4.17846 0
M  V30 5974 H 549.393 -0.559707 0.608816 0
M  V30 5975 H 551.939 -0.48428 1.62643 0
M  V30 5976 H 550.711 -1.43103 3.64194 0
M  V30 5977 H 550.334 -2.88633 2.73454 0
M  V30 5978 N 551.331 -1.39911 -0.725443 0
M  V30 5979 C 552.578 -1.37654 -1.48518 0
M  V30 5980 C 552.906 0.0243982 -1.94485 0
M  V30 5981 O 552.161 1.00708 -1.67799 0
M  V30 5982 C 552.46 -2.30368 -2.7325 0
M  V30 5983 C 552.126 -3.77817 -2.461 0
M  V30 5984 C 550.788 -4.17991 -2.38405 0
M  V30 5985 C 553.14 -4.71036 -2.23103 0
M  V30 5986 C 550.468 -5.49433 -2.05768 0
M  V30 5987 C 552.82 -6.02766 -1.9198 0
M  V30 5988 C 551.484 -6.41993 -1.82761 0
M  V30 5989 H 550.754 -0.503713 -0.543465 0
M  V30 5990 H 553.401 -1.7249 -0.831822 0
M  V30 5991 H 551.706 -1.88683 -3.43375 0
M  V30 5992 H 553.403 -2.2591 -3.31309 0
M  V30 5993 H 549.993 -3.45982 -2.52972 0
M  V30 5994 H 554.177 -4.40823 -2.2801 0
M  V30 5995 H 549.433 -5.78738 -1.9716 0
M  V30 5996 H 553.607 -6.74519 -1.73197 0
M  V30 5997 H 551.234 -7.43761 -1.57237 0
M  V30 5998 N 552.809 0.956637 -1.25245 0
M  V30 5999 C 554.055 1.70352 -1.10036 0
M  V30 6000 C 554.388 1.90869 0.358156 0
M  V30 6001 O 553.663 1.47819 1.26411 0
M  V30 6002 C 553.946 3.08766 -1.85298 0
M  V30 6003 C 553.799 2.95672 -3.38966 0
M  V30 6004 C 555.118 4.08622 -1.63451 0
M  V30 6005 H 552.237 0.618279 -0.401123 0
M  V30 6006 H 554.879 1.11212 -1.54051 0
M  V30 6007 H 553.029 3.59252 -1.47887 0
M  V30 6008 H 554.701 2.52527 -3.86041 0
M  V30 6009 H 552.944 2.31634 -3.6678 0
M  V30 6010 H 553.615 3.93776 -3.86839 0
M  V30 6011 H 556.091 3.67038 -1.96015 0
M  V30 6012 H 554.967 5.03514 -2.18551 0
M  V30 6013 H 555.228 4.3834 -0.575357 0
M  V30 6014 N 554.287 1.06798 1.15896 0
M  V30 6015 C 555.536 0.782796 1.8589 0
M  V30 6016 C 555.849 -0.693498 1.82893 0
M  V30 6017 O 557.055 -1.09325 2.48516 0
M  V30 6018 C 555.511 1.3502 3.33613 0
M  V30 6019 C 555.119 2.8571 3.45071 0
M  V30 6020 C 556.863 1.14278 4.08829 0
M  V30 6021 C 554.77 3.35669 4.86909 0
M  V30 6022 H 553.7 0.289149 0.696354 0
M  V30 6023 H 556.351 1.28734 1.30766 0
M  V30 6024 H 554.733 0.773407 3.88374 0
M  V30 6025 H 555.907 3.49385 3.00445 0
M  V30 6026 H 554.222 3.05178 2.83294 0
M  V30 6027 H 556.819 1.49087 5.13495 0
M  V30 6028 H 557.162 0.0814575 4.1622 0
M  V30 6029 H 557.695 1.68563 3.60321 0
M  V30 6030 H 554.434 4.41302 4.84698 0
M  V30 6031 H 553.954 2.76745 5.32139 0
M  V30 6032 H 555.633 3.31296 5.55745 0
M  V30 6033 N 555.766 -1.3263 0.851289 0
M  V30 6034 C 556.696 -2.31449 0.308771 0
M  V30 6035 C 557.677 -1.59531 -0.590255 0
M  V30 6036 O 558.862 -1.87351 -0.511205 0
M  V30 6037 C 555.992 -3.43586 -0.506548 0
M  V30 6038 C 554.946 -4.26963 0.297753 0
M  V30 6039 C 554.272 -5.30831 -0.642094 0
M  V30 6040 C 555.572 -4.99643 1.52166 0
M  V30 6041 H 557.266 -2.77074 1.13447 0
M  V30 6042 H 554.812 -1.33207 0.546971 0
M  V30 6043 H 556.765 -4.11754 -0.896474 0
M  V30 6044 H 555.489 -2.96681 -1.36558 0
M  V30 6045 H 554.148 -3.60437 0.669391 0
M  V30 6046 H 553.796 -4.8018 -1.49788 0
M  V30 6047 H 553.496 -5.87501 -0.107968 0
M  V30 6048 H 555.02 -6.01862 -1.02927 0
M  V30 6049 H 556.434 -5.6051 1.20421 0
M  V30 6050 H 554.831 -5.66022 1.99347 0
M  V30 6051 H 555.901 -4.27701 2.28474 0
M  V30 6052 N 557.244 -0.608902 -1.45362 0
M  V30 6053 C 558.472 -0.111013 -2.06602 0
M  V30 6054 C 558.887 1.20516 -1.45332 0
M  V30 6055 O 558.244 1.73437 -0.567978 0
M  V30 6056 C 558.295 0.033688 -3.61484 0
M  V30 6057 O 558.016 -1.23041 -4.20467 0
M  V30 6058 C 559.517 0.562882 -4.39712 0
M  V30 6059 H 556.737 -0.0694453 -0.667397 0
M  V30 6060 H 559.281 -0.837008 -1.86586 0
M  V30 6061 H 557.436 0.710016 -3.80838 0
M  V30 6062 H 557.85 -1.06094 -5.13658 0
M  V30 6063 H 559.324 0.613213 -5.48583 0
M  V30 6064 H 559.801 1.58543 -4.09586 0
M  V30 6065 H 560.407 -0.0794454 -4.25226 0
M  V30 6066 N 558.722 1.53707 -0.348139 0
M  V30 6067 C 559.968 2.01979 0.239986 0
M  V30 6068 C 560.323 1.23141 1.47831 0
M  V30 6069 O 559.616 0.311936 1.89044 0
M  V30 6070 C 559.81 3.52292 0.602061 0
M  V30 6071 C 559.639 4.45684 -0.599625 0
M  V30 6072 C 558.409 4.9304 -1.10635 0
M  V30 6073 C 560.607 4.93156 -1.4595 0
M  V30 6074 N 558.589 5.70394 -2.26988 0
M  V30 6075 C 559.96 5.6868 -2.46988 0
M  V30 6076 C 562.015 4.75257 -1.48441 0
M  V30 6077 C 560.718 6.28208 -3.50353 0
M  V30 6078 C 562.744 5.35639 -2.50689 0
M  V30 6079 C 562.106 6.11034 -3.50453 0
M  V30 6080 H 558.205 0.780335 0.0509992 0
M  V30 6081 H 560.789 1.88466 -0.488742 0
M  V30 6082 H 558.96 3.66002 1.29989 0
M  V30 6083 H 560.692 3.87304 1.17377 0
M  V30 6084 H 557.447 4.68784 -0.67371 0
M  V30 6085 H 557.871 6.13741 -2.85747 0
M  V30 6086 H 562.513 4.16508 -0.726707 0
M  V30 6087 H 560.231 6.86064 -4.27015 0
M  V30 6088 H 563.817 5.23693 -2.53449 0
M  V30 6089 H 562.697 6.56925 -4.28275 0
M  V30 6090 N 560.2 0.0768682 1.57412 0
M  V30 6091 C 561.446 -0.591961 1.93968 0
M  V30 6092 C 561.779 -1.68954 0.9575 0
M  V30 6093 O 561.054 -1.94496 -0.0124675 0
M  V30 6094 C 561.337 -1.16418 3.40762 0
M  V30 6095 C 561.19 -0.0728933 4.49741 0
M  V30 6096 C 562.509 -2.06814 3.88479 0
M  V30 6097 H 559.628 -0.213716 0.705333 0
M  V30 6098 H 562.27 0.14387 1.89455 0
M  V30 6099 H 560.42 -1.79128 3.4474 0
M  V30 6100 H 562.092 0.560446 4.57883 0
M  V30 6101 H 560.335 0.595859 4.29688 0
M  V30 6102 H 561.006 -0.513755 5.49604 0
M  V30 6103 H 563.482 -1.54033 3.8654 0
M  V30 6104 H 562.358 -2.43785 4.91793 0
M  V30 6105 H 562.619 -2.97844 3.26713 0
M  V30 6106 N 561.678 -1.56367 -0.196722 0
M  V30 6107 C 562.926 -1.80172 -0.915554 0
M  V30 6108 C 563.247 -0.649649 -1.8386 0
M  V30 6109 O 562.517 0.332111 -1.93064 0
M  V30 6110 H 561.097 -0.664592 -0.341067 0
M  V30 6111 H 563.759 -1.93844 -0.202622 0
M  V30 6112 H 562.855 -2.7327 -1.50764 0
M  V30 6113 N 563.156 0.464375 -1.50603 0
M  V30 6114 C 564.119 1.54393 -1.69397 0
M  V30 6115 C 565.119 1.50566 -0.564504 0
M  V30 6116 O 566.309 1.53066 -0.831645 0
M  V30 6117 C 563.441 2.9401 -1.72543 0
M  V30 6118 H 564.634 1.39044 -2.65719 0
M  V30 6119 H 562.187 0.69122 -1.40185 0
M  V30 6120 H 562.922 3.14795 -0.77938 0
M  V30 6121 H 562.707 2.98195 -2.54602 0
M  V30 6122 H 564.197 3.72375 -1.89015 0
M  V30 6123 N 564.634 1.40294 0.718013 0
M  V30 6124 C 565.566 1.36281 1.84283 0
M  V30 6125 C 566.579 0.268621 1.60569 0
M  V30 6126 O 567.768 0.528798 1.70487 0
M  V30 6127 C 564.868 1.09741 3.2064 0
M  V30 6128 C 564.041 2.30767 3.71571 0
M  V30 6129 C 563.1 2.00424 4.86535 0
M  V30 6130 O 562.126 2.73268 4.99313 0
M  V30 6131 N 563.328 0.980724 5.72156 0
M  V30 6132 H 566.093 2.3322 1.88225 0
M  V30 6133 H 563.654 1.34616 0.899453 0
M  V30 6134 H 565.646 0.874322 3.95143 0
M  V30 6135 H 564.216 0.214771 3.11861 0
M  V30 6136 H 563.436 2.68921 2.88228 0
M  V30 6137 H 564.724 3.11455 4.02335 0
M  V30 6138 H 564.122 0.377375 5.6444 0
M  V30 6139 H 562.679 0.817538 6.46653 0
M  V30 6140 N 566.112 -0.949982 1.2575 0
M  V30 6141 C 567.044 -2.05088 1.02331 0
M  V30 6142 C 568.057 -1.62795 -0.0133247 0
M  V30 6143 O 569.246 -1.77067 0.225759 0
M  V30 6144 C 566.346 -3.34794 0.525924 0
M  V30 6145 C 565.519 -4.05903 1.62978 0
M  V30 6146 C 564.578 -5.1388 1.13196 0
M  V30 6147 O 563.604 -5.39072 1.82729 0
M  V30 6148 N 564.806 -5.80495 -0.0242926 0
M  V30 6149 H 567.571 -2.25747 1.97125 0
M  V30 6150 H 565.132 -1.11886 1.17018 0
M  V30 6151 H 567.124 -4.04312 0.177263 0
M  V30 6152 H 565.694 -3.10872 -0.328202 0
M  V30 6153 H 564.914 -3.3042 2.1498 0
M  V30 6154 H 566.202 -4.50166 2.37124 0
M  V30 6155 H 565.6 -5.62454 -0.605184 0
M  V30 6156 H 564.157 -6.51043 -0.313947 0
M  V30 6157 N 567.59 -1.07411 -1.15328 0
M  V30 6158 C 568.818 -0.818782 -1.90009 0
M  V30 6159 C 569.233 0.628072 -1.78047 0
M  V30 6160 O 568.59 1.43085 -1.13282 0
M  V30 6161 C 568.641 -1.21874 -3.40337 0
M  V30 6162 O 568.362 -2.60883 -3.51954 0
M  V30 6163 C 569.863 -0.992796 -4.3204 0
M  V30 6164 H 567.083 -0.296007 -0.60218 0
M  V30 6165 H 569.627 -1.43073 -1.46117 0
M  V30 6166 H 567.782 -0.651103 -3.81889 0
M  V30 6167 H 568.196 -2.77216 -4.45255 0
M  V30 6168 H 569.67 -1.32215 -5.35932 0
M  V30 6169 H 570.147 0.0708331 -4.39143 0
M  V30 6170 H 570.753 -1.54537 -3.9623 0
M  V30 6171 N 569.068 1.32177 -0.85831 0
M  V30 6172 C 570.296 2.01313 -0.477582 0
M  V30 6173 C 570.711 1.6449 0.926736 0
M  V30 6174 O 570.068 0.868096 1.60531 0
M  V30 6175 C 570.119 3.56293 -0.611337 0
M  V30 6176 O 569.84 3.91794 -1.96034 0
M  V30 6177 C 571.341 4.42702 -0.230093 0
M  V30 6178 H 568.561 0.644323 -0.187322 0
M  V30 6179 H 571.105 1.68674 -1.15626 0
M  V30 6180 H 569.26 3.87395 0.0196494 0
M  V30 6181 H 569.674 4.86513 -1.95973 0
M  V30 6182 H 571.148 5.50727 -0.374674 0
M  V30 6183 H 571.625 4.3129 0.829779 0
M  V30 6184 H 572.231 4.16997 -0.836302 0
M  V30 6185 N 570.547 0.616602 1.45037 0
M  V30 6186 C 571.794 0.115331 2.02171 0
M  V30 6187 C 572.122 -1.25748 1.48383 0
M  V30 6188 O 571.377 -1.84511 0.652229 0
M  V30 6189 C 571.676 0.0356829 3.57382 0
M  V30 6190 C 571.342 1.34535 4.30362 0
M  V30 6191 C 570.004 1.70408 4.50016 0
M  V30 6192 C 572.356 2.21049 4.72003 0
M  V30 6193 C 569.684 2.92529 5.0857 0
M  V30 6194 C 572.036 3.42427 5.31908 0
M  V30 6195 C 570.7 3.78541 5.49784 0
M  V30 6196 H 569.97 0.0422024 0.739797 0
M  V30 6197 H 572.617 0.80002 1.73988 0
M  V30 6198 H 570.922 -0.732314 3.84895 0
M  V30 6199 H 572.619 -0.368463 3.99304 0
M  V30 6200 H 569.209 1.05615 4.15383 0
M  V30 6201 H 573.393 1.94632 4.56544 0
M  V30 6202 H 568.649 3.20605 5.20598 0
M  V30 6203 H 572.823 4.09709 5.63127 0
M  V30 6204 H 570.45 4.73255 5.94923 0
M  V30 6205 N 572.025 -1.5352 0.356285 0
M  V30 6206 C 573.436 -1.86282 -0.12492 0
M  V30 6207 C 573.787 -1.27717 -1.48939 0
M  V30 6208 O 572.912 -0.595614 -2.08042 0
M  V30 6209 C 573.507 -3.37995 -0.23345 0
M  V30 6210 C 572.066 -3.70588 -0.658899 0
M  V30 6211 C 571.213 -2.76581 0.199596 0
M  V30 6212 H 574.164 -1.47901 0.575423 0
M  V30 6213 H 574.185 -3.65475 -1.0587 0
M  V30 6214 H 573.697 -3.8059 0.759776 0
M  V30 6215 H 571.798 -3.33544 -1.66069 0
M  V30 6216 H 571.911 -4.77076 -0.439957 0
M  V30 6217 H 570.275 -2.52552 -0.330076 0
M  V30 6218 H 571.058 -3.22008 1.19019 0
M  V30 6219 N 573.503 -0.0852151 -1.57369 0
M  V30 6220 C 574.733 0.588605 -1.98038 0
M  V30 6221 C 575.141 1.62869 -0.962817 0
M  V30 6222 O 574.484 1.83611 0.057134 0
M  V30 6223 C 574.546 1.30303 -3.35054 0
M  V30 6224 C 574.21 0.414855 -4.55113 0
M  V30 6225 C 575.207 -0.333011 -5.18832 0
M  V30 6226 C 572.892 0.335804 -5.01176 0
M  V30 6227 C 574.886 -1.14801 -6.26976 0
M  V30 6228 C 572.573 -0.482857 -6.09189 0
M  V30 6229 C 573.571 -1.22342 -6.71953 0
M  V30 6230 O 573.259 -2.02855 -7.77885 0
M  V30 6231 H 572.991 0.163249 -0.655992 0
M  V30 6232 H 575.545 -0.1582 -2.0479 0
M  V30 6233 H 573.775 2.0962 -3.24956 0
M  V30 6234 H 575.464 1.87041 -3.60237 0
M  V30 6235 H 576.23 -0.281611 -4.84182 0
M  V30 6236 H 572.109 0.901869 -4.52092 0
M  V30 6237 H 575.653 -1.72654 -6.75897 0
M  V30 6238 H 571.55 -0.535773 -6.43273 0
M  V30 6239 H 572.318 -1.95432 -7.94826 0
M  V30 6240 N 574.981 1.5647 0.188427 0
M  V30 6241 C 576.258 1.71857 0.934058 0
M  V30 6242 C 576.638 0.641867 2.01105 0
M  V30 6243 O 575.986 -0.346098 2.25864 0
M  V30 6244 C 576.196 3.14431 1.5144 0
M  V30 6245 C 577.544 3.74869 1.99396 0
M  V30 6246 O 578.568 3.17601 1.61269 0
M  V30 6247 O 577.427 4.75387 2.69573 0
M  V30 6248 H 574.521 0.701186 0.438483 0
M  V30 6249 H 577.067 1.68768 0.177599 0
M  V30 6250 H 575.839 3.8427 0.738416 0
M  V30 6251 H 575.462 3.21775 2.33552 0
M  V30 6252 N 576.459 -0.456382 1.50847 0
M  V30 6253 C 577.705 -1.20618 1.63777 0
M  V30 6254 C 578.06 -1.8936 0.340677 0
M  V30 6255 O 577.353 -1.79786 -0.662378 0
M  V30 6256 C 577.547 -2.26336 2.76599 0
M  V30 6257 C 577.376 -1.67968 4.17153 0
M  V30 6258 C 576.146 -1.47293 4.83356 0
M  V30 6259 C 578.344 -1.16643 5.00898 0
M  V30 6260 N 576.326 -0.843222 6.08081 0
M  V30 6261 C 577.697 -0.660843 6.16468 0
M  V30 6262 C 579.752 -1.05637 4.86565 0
M  V30 6263 C 578.455 -0.0560365 7.19278 0
M  V30 6264 C 580.481 -0.465485 5.89565 0
M  V30 6265 C 579.843 0.0296516 7.04394 0
M  V30 6266 H 575.942 -0.429725 0.653345 0
M  V30 6267 H 578.526 -0.505784 1.88016 0
M  V30 6268 H 576.697 -2.93785 2.54056 0
M  V30 6269 H 578.429 -2.9334 2.78808 0
M  V30 6270 H 575.184 -1.72934 4.40898 0
M  V30 6271 H 575.608 -0.546357 6.74792 0
M  V30 6272 H 580.25 -1.42508 3.98059 0
M  V30 6273 H 577.968 0.324845 8.07447 0
M  V30 6274 H 581.554 -0.382493 5.80541 0
M  V30 6275 H 580.434 0.479705 7.82731 0
M  V30 6276 N 577.937 -1.40673 -0.710563 0
M  V30 6277 C 579.186 -1.38525 -1.46607 0
M  V30 6278 C 579.499 0.0077024 -1.95598 0
M  V30 6279 O 580.705 0.151792 -2.71075 0
M  V30 6280 C 579.161 -2.43489 -2.6503 0
M  V30 6281 C 578.769 -3.88619 -2.22888 0
M  V30 6282 C 580.513 -2.50456 -3.42742 0
M  V30 6283 C 578.42 -4.85168 -3.3818 0
M  V30 6284 H 577.35 -0.515092 -0.550632 0
M  V30 6285 H 580.001 -1.66431 -0.772846 0
M  V30 6286 H 578.383 -2.0869 -3.36548 0
M  V30 6287 H 579.557 -4.32588 -1.58758 0
M  V30 6288 H 577.872 -3.85174 -1.58208 0
M  V30 6289 H 580.469 -3.19776 -4.28541 0
M  V30 6290 H 580.812 -1.53665 -3.86902 0
M  V30 6291 H 581.345 -2.84271 -2.78271 0
M  V30 6292 H 578.084 -5.8331 -2.99047 0
M  V30 6293 H 577.604 -4.4586 -4.01209 0
M  V30 6294 H 579.283 -5.05225 -4.04174 0
M  V30 6295 N 579.415 0.9433 -1.26252 0
M  V30 6296 C 580.64 1.72898 -1.14547 0
M  V30 6297 C 581.065 1.85761 0.295743 0
M  V30 6298 O 580.423 1.3463 1.21427 0
M  V30 6299 C 580.471 3.11471 -1.8171 0
M  V30 6300 O 579.575 3.97336 -1.10445 0
M  V30 6301 H 578.916 0.530555 -0.399259 0
M  V30 6302 H 581.446 1.18159 -1.67032 0
M  V30 6303 H 581.456 3.61872 -1.88449 0
M  V30 6304 H 580.131 3.01425 -2.86558 0
M  V30 6305 H 578.708 3.55788 -1.11666 0
M  V30 6306 N 580.893 1.08022 1.14757 0
M  V30 6307 C 581.823 0.728248 2.21853 0
M  V30 6308 C 582.804 -0.287486 1.67653 0
M  V30 6309 O 583.989 -0.158727 1.9355 0
M  V30 6310 C 581.119 0.132549 3.47047 0
M  V30 6311 C 580.073 1.07619 4.14249 0
M  V30 6312 C 579.399 0.342907 5.33599 0
M  V30 6313 C 580.699 2.41268 4.63235 0
M  V30 6314 H 582.393 1.62365 2.51551 0
M  V30 6315 H 579.939 0.782125 1.20908 0
M  V30 6316 H 581.892 -0.125665 4.21213 0
M  V30 6317 H 580.616 -0.797971 3.16702 0
M  V30 6318 H 579.275 1.31944 3.42033 0
M  V30 6319 H 578.923 -0.59129 4.99513 0
M  V30 6320 H 578.623 0.971955 5.79506 0
M  V30 6321 H 580.147 0.0926538 6.1053 0
M  V30 6322 H 581.561 2.21232 5.28894 0
M  V30 6323 H 579.958 2.9983 5.19829 0
M  V30 6324 H 581.028 3.03079 3.78512 0
M  V30 6325 N 582.371 -1.3172 0.865308 0
M  V30 6326 C 583.62 -1.96145 0.470098 0
M  V30 6327 C 583.933 -1.69182 -0.981674 0
M  V30 6328 O 585.139 -2.27431 -1.48281 0
M  V30 6329 C 583.595 -3.51129 0.789732 0
M  V30 6330 C 583.203 -3.86938 2.25795 0
M  V30 6331 C 584.947 -4.2197 0.462765 0
M  V30 6332 C 582.854 -5.35012 2.52024 0
M  V30 6333 H 581.784 -0.734105 0.172065 0
M  V30 6334 H 584.435 -1.49959 1.05757 0
M  V30 6335 H 582.817 -3.95781 0.131571 0
M  V30 6336 H 583.991 -3.5326 2.95879 0
M  V30 6337 H 582.306 -3.29149 2.55049 0
M  V30 6338 H 584.903 -5.30904 0.636019 0
M  V30 6339 H 585.246 -4.12005 -0.59645 0
M  V30 6340 H 585.779 -3.82936 1.07727 0
M  V30 6341 H 582.518 -5.50008 3.56611 0
M  V30 6342 H 582.038 -5.70058 1.8653 0
M  V30 6343 H 583.717 -6.0222 2.36515 0
M  V30 6344 N 583.85 -0.624285 -1.44708 0
M  V30 6345 C 584.812 0.0749638 -2.29077 0
M  V30 6346 C 585.812 0.778965 -1.40673 0
M  V30 6347 O 587.003 0.624591 -1.62618 0
M  V30 6348 C 584.135 1.11663 -3.22094 0
M  V30 6349 H 585.327 -0.667013 -2.92388 0
M  V30 6350 H 582.88 -0.384098 -1.51507 0
M  V30 6351 H 583.615 1.88881 -2.63618 0
M  V30 6352 H 583.401 0.61583 -3.87234 0
M  V30 6353 H 584.891 1.60585 -3.8549 0
M  V30 6354 N 585.328 1.53329 -0.364422 0
M  V30 6355 C 586.553 2.06132 0.229033 0
M  V30 6356 C 586.978 1.23625 1.41769 0
M  V30 6357 O 586.336 0.255038 1.79497 0
M  V30 6358 C 586.384 3.55544 0.60174 0
M  V30 6359 O 585.488 3.75771 1.69912 0
M  V30 6360 H 584.829 0.663148 0.0336213 0
M  V30 6361 H 587.359 1.97758 -0.524689 0
M  V30 6362 H 587.369 3.98549 0.873073 0
M  V30 6363 H 586.044 4.15039 -0.267421 0
M  V30 6364 H 584.621 3.44663 1.42343 0
M  V30 6365 N 586.806 0.0935595 1.57322 0
M  V30 6366 C 587.769 -0.851426 2.12799 0
M  V30 6367 C 588.769 -1.21187 1.0569 0
M  V30 6368 O 589.959 -1.14156 1.31583 0
M  V30 6369 C 587.091 -2.14779 2.64731 0
M  V30 6370 H 588.284 -0.369733 2.97612 0
M  V30 6371 H 585.837 -0.155417 1.55525 0
M  V30 6372 H 586.572 -2.67437 1.83434 0
M  V30 6373 H 586.357 -1.89907 3.43042 0
M  V30 6374 H 587.847 -2.82383 3.07651 0
M  V30 6375 N 588.284 -1.56567 -0.180126 0
M  V30 6376 C 589.514 -1.85349 -0.912647 0
M  V30 6377 C 589.922 -0.675795 -1.76719 0
M  V30 6378 O 589.265 0.3645 -1.80047 0
M  V30 6379 C 589.327 -3.08431 -1.84691 0
M  V30 6380 C 588.991 -4.41694 -1.17284 0
M  V30 6381 C 589.988 -5.17062 -0.542532 0
M  V30 6382 C 587.673 -4.8843 -1.17223 0
M  V30 6383 C 589.667 -6.37351 0.0793953 0
M  V30 6384 C 587.354 -6.08652 -0.54647 0
M  V30 6385 C 588.352 -6.82955 0.0782458 0
M  V30 6386 O 588.04 -8.00897 0.694158 0
M  V30 6387 H 587.772 -0.619286 -0.271036 0
M  V30 6388 H 590.326 -2.0454 -0.187768 0
M  V30 6389 H 588.556 -2.85163 -2.61188 0
M  V30 6390 H 590.245 -3.23733 -2.44851 0
M  V30 6391 H 591.011 -4.8204 -0.535045 0
M  V30 6392 H 586.89 -4.30542 -1.64788 0
M  V30 6393 H 590.434 -6.95287 0.567612 0
M  V30 6394 H 586.331 -6.4314 -0.55151 0
M  V30 6395 H 587.099 -8.16352 0.592537 0
M  V30 6396 N 589.762 0.448376 -1.51087 0
M  V30 6397 C 591.008 1.19748 -1.64414 0
M  V30 6398 C 591.363 1.89177 -0.350715 0
M  V30 6399 O 590.656 1.80135 0.652834 0
M  V30 6400 C 590.85 2.24866 -2.77795 0
M  V30 6401 C 590.679 1.65753 -4.18038 0
M  V30 6402 C 589.449 1.44728 -4.8413 0
M  V30 6403 C 591.647 1.13985 -5.0151 0
M  V30 6404 N 589.629 0.810962 -6.0852 0
M  V30 6405 C 591 0.628141 -6.1681 0
M  V30 6406 C 593.055 1.03055 -4.87118 0
M  V30 6407 C 591.758 0.0178906 -7.19298 0
M  V30 6408 C 593.784 0.434212 -5.89804 0
M  V30 6409 C 593.146 -0.0670069 -7.04368 0
M  V30 6410 H 589.245 0.426254 -0.655615 0
M  V30 6411 H 591.829 0.495806 -1.88281 0
M  V30 6412 H 590 2.92434 -2.55611 0
M  V30 6413 H 591.732 2.91857 -2.8036 0
M  V30 6414 H 588.487 1.70593 -4.41809 0
M  V30 6415 H 588.911 0.510563 -6.75072 0
M  V30 6416 H 593.553 1.40395 -3.9881 0
M  V30 6417 H 591.271 -0.367662 -8.07263 0
M  V30 6418 H 594.857 0.3517 -5.80736 0
M  V30 6419 H 593.737 -0.521209 -7.82466 0
M  V30 6420 N 591.24 1.41047 0.703093 0
M  V30 6421 C 592.487 1.4 1.46309 0
M  V30 6422 C 592.815 0.00654574 1.94499 0
M  V30 6423 O 592.07 -0.980255 1.6938 0
M  V30 6424 C 592.369 2.34686 2.6955 0
M  V30 6425 C 592.035 3.81684 2.40058 0
M  V30 6426 C 590.697 4.21731 2.31725 0
M  V30 6427 C 593.049 4.74525 2.15581 0
M  V30 6428 C 590.377 5.52637 1.97001 0
M  V30 6429 C 592.729 6.05744 1.82366 0
M  V30 6430 C 591.393 6.44819 1.72524 0
M  V30 6431 H 590.663 0.512295 0.535382 0
M  V30 6432 H 593.31 1.73792 0.804275 0
M  V30 6433 H 591.615 1.94122 3.40329 0
M  V30 6434 H 593.312 2.31152 3.27673 0
M  V30 6435 H 589.902 3.49963 2.47435 0
M  V30 6436 H 594.086 4.44395 2.20968 0
M  V30 6437 H 589.342 5.81802 1.87928 0
M  V30 6438 H 593.516 6.77189 1.62444 0
M  V30 6439 H 591.143 7.46168 1.45385 0
M  V30 6440 N 592.718 -0.936591 1.26751 0
M  V30 6441 C 593.681 -2.01752 1.08761 0
M  V30 6442 C 594.681 -1.60763 0.0344435 0
M  V30 6443 O 595.871 -1.71963 0.278258 0
M  V30 6444 C 593.003 -3.34543 0.655271 0
M  V30 6445 H 594.196 -2.19143 2.04735 0
M  V30 6446 H 591.749 -1.11618 1.09413 0
M  V30 6447 H 592.484 -3.22851 -0.30626 0
M  V30 6448 H 592.269 -3.65647 1.41578 0
M  V30 6449 H 593.759 -4.13944 0.551378 0
M  V30 6450 N 594.196 -1.08629 -1.14182 0
M  V30 6451 C 595.426 -0.837673 -1.88856 0
M  V30 6452 C 595.834 0.614024 -1.78959 0
M  V30 6453 O 595.177 1.43384 -1.14833 0
M  V30 6454 C 595.239 -1.18355 -3.39459 0
M  V30 6455 C 594.903 -2.63848 -3.73139 0
M  V30 6456 C 595.9 -3.62099 -3.73069 0
M  V30 6457 C 593.585 -2.99761 -4.03049 0
M  V30 6458 C 595.579 -4.94292 -4.02435 0
M  V30 6459 C 593.266 -4.32147 -4.32078 0
M  V30 6460 C 594.264 -5.29223 -4.31755 0
M  V30 6461 O 593.952 -6.59229 -4.60079 0
M  V30 6462 H 593.684 -0.301609 -0.604986 0
M  V30 6463 H 596.238 -1.44961 -1.45518 0
M  V30 6464 H 594.468 -0.514628 -3.8326 0
M  V30 6465 H 596.157 -0.915391 -3.95443 0
M  V30 6466 H 596.923 -3.35698 -3.50046 0
M  V30 6467 H 592.802 -2.2484 -4.02453 0
M  V30 6468 H 596.346 -5.70055 -4.02098 0
M  V30 6469 H 592.243 -4.58296 -4.54571 0
M  V30 6470 H 593.011 -6.64578 -4.77785 0
M  V30 6471 N 595.674 1.31259 -0.872281 0
M  V30 6472 C 596.921 1.96622 -0.484365 0
M  V30 6473 C 597.249 1.68939 0.963841 0
M  V30 6474 O 596.504 0.97974 1.6941 0
M  V30 6475 C 596.803 3.50659 -0.690889 0
M  V30 6476 C 596.469 3.98366 -2.11224 0
M  V30 6477 C 595.131 4.11104 -2.50094 0
M  V30 6478 C 597.483 4.23425 -3.0391 0
M  V30 6479 C 594.811 4.46254 -3.80887 0
M  V30 6480 C 597.163 4.60039 -4.3422 0
M  V30 6481 C 595.827 4.70984 -4.73001 0
M  V30 6482 H 595.097 0.71949 -0.177242 0
M  V30 6483 H 597.744 1.56353 -1.10571 0
M  V30 6484 H 596.049 3.91798 0.0135782 0
M  V30 6485 H 597.746 3.99284 -0.370534 0
M  V30 6486 H 594.336 3.88949 -1.80047 0
M  V30 6487 H 598.52 4.13075 -2.75104 0
M  V30 6488 H 593.776 4.52926 -4.10692 0
M  V30 6489 H 597.95 4.78381 -5.06088 0
M  V30 6490 H 595.577 4.97977 -5.7439 0
M  V30 6491 N 597.152 0.631951 1.44375 0
M  V30 6492 C 598.082 -0.0593243 2.33425 0
M  V30 6493 C 599.063 -0.833964 1.48253 0
M  V30 6494 O 600.248 -0.799682 1.76971 0
M  V30 6495 C 597.378 -1.04096 3.31333 0
M  V30 6496 C 596.332 -0.377899 4.26328 0
M  V30 6497 C 595.658 -1.4695 5.14111 0
M  V30 6498 C 596.958 0.716371 5.17364 0
M  V30 6499 H 598.652 0.684287 2.91475 0
M  V30 6500 H 596.198 0.330518 1.40156 0
M  V30 6501 H 598.151 -1.53331 3.92514 0
M  V30 6502 H 596.875 -1.81547 2.71493 0
M  V30 6503 H 595.534 0.0938054 3.6648 0
M  V30 6504 H 595.182 -2.2349 4.50623 0
M  V30 6505 H 594.882 -1.03121 5.78481 0
M  V30 6506 H 596.406 -1.96363 5.78164 0
M  V30 6507 H 597.82 0.307089 5.72477 0
M  V30 6508 H 596.217 1.07784 5.90341 0
M  V30 6509 H 597.287 1.58316 4.58327 0
M  V30 6510 N 598.631 -1.53133 0.372548 0
M  V30 6511 C 599.877 -2.01654 -0.215277 0
M  V30 6512 C 600.21 -1.25914 -1.47849 0
M  V30 6513 O 599.485 -0.3548 -1.91237 0
M  V30 6514 C 599.768 -3.56609 -0.500187 0
M  V30 6515 C 599.621 -4.43036 0.777145 0
M  V30 6516 C 600.94 -4.20528 -1.29786 0
M  V30 6517 H 598.059 -0.732991 -0.0767686 0
M  V30 6518 H 600.701 -1.83335 0.498814 0
M  V30 6519 H 598.851 -3.7235 -1.10852 0
M  V30 6520 H 600.523 -4.39079 1.41447 0
M  V30 6521 H 598.766 -4.10723 1.39604 0
M  V30 6522 H 599.437 -5.49424 0.532662 0
M  V30 6523 H 601.913 -4.08663 -0.783198 0
M  V30 6524 H 600.789 -5.28962 -1.46596 0
M  V30 6525 H 601.05 -3.77051 -2.30836 0
M  V30 6526 N 600.109 -0.101901 -1.5727 0
M  V30 6527 C 601.358 0.559922 -1.93772 0
M  V30 6528 C 601.671 1.68913 -0.98629 0
M  V30 6529 O 602.877 2.41256 -1.24529 0
M  V30 6530 C 601.333 1.04739 -3.44322 0
M  V30 6531 C 600.941 -0.05243 -4.47969 0
M  V30 6532 C 602.685 1.68157 -3.89774 0
M  V30 6533 C 600.592 0.450781 -5.8968 0
M  V30 6534 H 599.522 0.212931 -0.723309 0
M  V30 6535 H 602.173 -0.179001 -1.82625 0
M  V30 6536 H 600.555 1.84021 -3.50645 0
M  V30 6537 H 601.729 -0.828157 -4.53297 0
M  V30 6538 H 600.044 -0.592202 -4.12167 0
M  V30 6539 H 602.641 2.0689 -4.93052 0
M  V30 6540 H 602.984 2.55338 -3.28798 0
M  V30 6541 H 603.517 0.954453 -3.8618 0
M  V30 6542 H 600.256 -0.38458 -6.54371 0
M  V30 6543 H 599.776 1.19336 -5.87809 0
M  V30 6544 H 601.455 0.917555 -6.40461 0
M  V30 6545 N 601.587 1.56661 0.17182 0
M  V30 6546 C 602.517 1.99401 1.21498 0
M  V30 6547 C 603.498 0.869516 1.46197 0
M  V30 6548 O 604.683 1.13556 1.57539 0
M  V30 6549 C 601.813 2.35346 2.55401 0
M  V30 6550 C 600.767 3.5075 2.45272 0
M  V30 6551 C 600.093 3.72437 3.8366 0
M  V30 6552 C 601.393 4.84216 1.95787 0
M  V30 6553 H 603.087 2.86792 0.859699 0
M  V30 6554 H 600.633 1.37977 0.412103 0
M  V30 6555 H 602.586 2.63843 3.2858 0
M  V30 6556 H 601.31 1.44864 2.92715 0
M  V30 6557 H 599.969 3.2238 1.74547 0
M  V30 6558 H 599.617 2.79246 4.18367 0
M  V30 6559 H 599.317 4.50087 3.77751 0
M  V30 6560 H 600.841 4.03334 4.58426 0
M  V30 6561 H 602.255 5.11592 2.5874 0
M  V30 6562 H 600.652 5.65498 2.00827 0
M  V30 6563 H 601.722 4.76243 0.912159 0
M  V30 6564 N 603.065 -0.440357 1.51323 0
M  V30 6565 C 604.476 -1.02032 1.56353 0
M  V30 6566 C 604.827 -1.92382 0.385197 0
M  V30 6567 O 603.952 -2.10583 -0.498373 0
M  V30 6568 C 604.547 -1.85723 2.83359 0
M  V30 6569 C 603.106 -2.38774 2.90971 0
M  V30 6570 C 602.253 -1.17908 2.50984 0
M  V30 6571 H 605.204 -0.221744 1.57143 0
M  V30 6572 H 605.225 -2.71141 2.66951 0
M  V30 6573 H 604.737 -1.19939 3.69102 0
M  V30 6574 H 602.838 -3.08021 2.09651 0
M  V30 6575 H 602.951 -2.71778 3.94555 0
M  V30 6576 H 601.315 -1.52347 2.04114 0
M  V30 6577 H 602.098 -0.537393 3.39068 0
M  V30 6578 N 604.543 -1.41418 -0.695603 0
M  V30 6579 C 605.792 -1.40073 -1.4513 0
M  V30 6580 C 606.105 -0.0130439 -1.95596 0
M  V30 6581 O 607.311 0.123032 -2.71221 0
M  V30 6582 C 605.767 -2.46286 -2.62433 0
M  V30 6583 C 605.375 -3.90962 -2.18753 0
M  V30 6584 C 607.119 -2.54077 -3.40066 0
M  V30 6585 C 605.026 -4.88728 -3.33015 0
M  V30 6586 H 603.956 -0.520903 -0.545138 0
M  V30 6587 H 606.607 -1.67242 -0.75515 0
M  V30 6588 H 604.989 -2.12248 -3.34315 0
M  V30 6589 H 606.163 -4.34248 -1.54161 0
M  V30 6590 H 604.478 -3.86831 -1.54114 0
M  V30 6591 H 607.075 -3.24303 -4.25125 0
M  V30 6592 H 607.418 -1.5776 -3.8525 0
M  V30 6593 H 607.951 -2.87206 -2.75241 0
M  V30 6594 H 604.69 -5.86449 -2.92844 0
M  V30 6595 H 604.21 -4.50091 -3.96457 0
M  V30 6596 H 605.889 -5.09483 -3.98793 0
M  V30 6597 N 606.021 0.929856 -1.27246 0
M  V30 6598 C 606.951 2.04722 -1.12299 0
M  V30 6599 C 607.932 1.70082 -0.0250464 0
M  V30 6600 O 609.117 1.93176 -0.199141 0
M  V30 6601 C 606.247 3.38721 -0.767145 0
M  V30 6602 C 605.201 3.87466 -1.81808 0
M  V30 6603 C 604.527 5.18246 -1.31626 0
M  V30 6604 C 605.827 4.11095 -3.22177 0
M  V30 6605 H 607.521 2.17485 -2.05769 0
M  V30 6606 H 605.067 1.04503 -0.990715 0
M  V30 6607 H 607.02 4.16366 -0.649413 0
M  V30 6608 H 605.744 3.25967 0.203259 0
M  V30 6609 H 604.403 3.12012 -1.92468 0
M  V30 6610 H 604.051 5.01881 -0.335378 0
M  V30 6611 H 603.751 5.51829 -2.01887 0
M  V30 6612 H 605.275 5.98462 -1.21143 0
M  V30 6613 H 606.689 4.79316 -3.1453 0
M  V30 6614 H 605.086 4.55982 -3.90129 0
M  V30 6615 H 606.156 3.16468 -3.67391 0
M  V30 6616 N 607.499 1.09233 1.13605 0
M  V30 6617 C 608.747 0.825525 1.84471 0
M  V30 6618 C 609.068 -0.650702 1.83823 0
M  V30 6619 O 608.338 -1.47204 1.29259 0
M  V30 6620 H 606.918 0.3024 0.683054 0
M  V30 6621 H 609.58 1.38006 1.37624 0
M  V30 6622 H 608.676 1.17727 2.89045 0
M  V30 6623 N 608.977 -1.30795 0.87923 0
M  V30 6624 C 609.94 -2.26563 0.346676 0
M  V30 6625 C 610.94 -1.52578 -0.507597 0
M  V30 6626 O 612.13 -1.71318 -0.315575 0
M  V30 6627 C 609.262 -3.37115 -0.506611 0
M  V30 6628 H 610.455 -2.75183 1.19223 0
M  V30 6629 H 608.008 -1.41886 0.655598 0
M  V30 6630 H 608.743 -2.93802 -1.37299 0
M  V30 6631 H 608.528 -3.91959 0.105218 0
M  V30 6632 H 610.018 -4.08412 -0.871192 0
M  V30 6633 N 610.455 -0.639598 -1.44038 0
M  V30 6634 C 611.704 -0.144885 -2.01179 0
M  V30 6635 C 612.017 1.24372 -1.50967 0
M  V30 6636 O 613.223 1.83291 -2.00292 0
M  V30 6637 C 611.679 -0.208244 -3.59297 0
M  V30 6638 C 611.287 -1.59869 -4.18504 0
M  V30 6639 C 613.031 0.229568 -4.23879 0
M  V30 6640 C 610.938 -1.61671 -5.68873 0
M  V30 6641 H 609.868 -0.0504005 -0.752314 0
M  V30 6642 H 612.519 -0.799639 -1.65161 0
M  V30 6643 H 610.901 0.513767 -3.92653 0
M  V30 6644 H 612.075 -2.34496 -3.96671 0
M  V30 6645 H 610.39 -1.98131 -3.66242 0
M  V30 6646 H 612.987 0.235758 -5.3418 0
M  V30 6647 H 613.33 1.25848 -3.96822 0
M  V30 6648 H 613.863 -0.440233 -3.95357 0
M  V30 6649 H 610.602 -2.62427 -6.00677 0
M  V30 6650 H 610.122 -0.913489 -5.92803 0
M  V30 6651 H 611.801 -1.35439 -6.32665 0
M  V30 6652 N 611.933 1.52934 -0.380664 0
M  V30 6653 C 612.843 2.29921 0.466192 0
M  V30 6654 C 613.859 1.36488 1.07922 0
M  V30 6655 O 615.035 1.69553 1.0869 0
M  V30 6656 C 612.1 3.08468 1.58266 0
M  V30 6657 C 611.161 4.17595 0.995627 0
M  V30 6658 C 610.394 4.92387 2.05889 0
M  V30 6659 O 610.617 4.67184 3.27254 0
M  V30 6660 O 609.551 5.77949 1.68102 0
M  V30 6661 H 613.377 3.03274 -0.160735 0
M  V30 6662 H 610.962 1.48698 -0.144617 0
M  V30 6663 H 612.844 3.57469 2.23145 0
M  V30 6664 H 611.519 2.37937 2.19471 0
M  V30 6665 H 610.426 3.72811 0.310332 0
M  V30 6666 H 611.759 4.90336 0.427918 0
M  V30 6667 N 613.412 0.11024 1.57214 0
M  V30 6668 C 614.359 -0.843195 2.14846 0
M  V30 6669 C 615.329 -1.26954 1.07107 0
M  V30 6670 O 616.514 -1.34861 1.34971 0
M  V30 6671 C 613.654 -2.09123 2.74521 0
M  V30 6672 C 612.767 -1.71404 3.96541 0
M  V30 6673 C 611.902 -2.91107 4.44331 0
M  V30 6674 C 610.941 -2.49586 5.58903 0
M  V30 6675 N 610.078 -3.62175 6.01477 0
M  V30 6676 H 614.918 -0.344886 2.95998 0
M  V30 6677 H 612.455 -0.15855 1.46243 0
M  V30 6678 H 614.413 -2.82234 3.07246 0
M  V30 6679 H 613.043 -2.56427 1.96074 0
M  V30 6680 H 612.095 -0.88201 3.70033 0
M  V30 6681 H 613.407 -1.36884 4.7965 0
M  V30 6682 H 612.561 -3.72454 4.78919 0
M  V30 6683 H 611.3 -3.28848 3.60153 0
M  V30 6684 H 610.305 -1.6667 5.23929 0
M  V30 6685 H 611.53 -2.12973 6.4484 0
M  V30 6686 H 609.476 -3.99605 5.20242 0
M  V30 6687 H 609.393 -3.3155 6.79419 0
M  V30 6688 H 610.661 -4.43987 6.407 0
M  V30 6689 N 614.89 -1.56749 -0.16351 0
M  V30 6690 C 616.301 -1.72039 -0.725216 0
M  V30 6691 C 616.652 -0.72202 -1.82432 0
M  V30 6692 O 615.777 0.114942 -2.16095 0
M  V30 6693 C 616.372 -3.11932 -1.32227 0
M  V30 6694 C 614.931 -3.28879 -1.83072 0
M  V30 6695 C 614.078 -2.67984 -0.712716 0
M  V30 6696 H 617.029 -1.58579 0.0619772 0
M  V30 6697 H 617.05 -3.11015 -2.19202 0
M  V30 6698 H 616.562 -3.84572 -0.522103 0
M  V30 6699 H 614.663 -2.61209 -2.65708 0
M  V30 6700 H 614.776 -4.36688 -1.97079 0
M  V30 6701 H 613.14 -2.28005 -1.13515 0
M  V30 6702 H 613.923 -3.43216 0.0757361 0
M  V30 6703 N 616.368 0.432326 -1.51554 0
M  V30 6704 C 617.614 1.18309 -1.64714 0
M  V30 6705 C 617.947 1.90745 -0.364696 0
M  V30 6706 O 617.222 1.8381 0.635936 0
M  V30 6707 C 617.505 2.1961 -2.85383 0
M  V30 6708 C 617.358 1.51223 -4.23617 0
M  V30 6709 C 618.677 3.20538 -3.01569 0
M  V30 6710 H 615.796 0.428751 -0.599451 0
M  V30 6711 H 618.438 0.471689 -1.84052 0
M  V30 6712 H 616.588 2.8028 -2.69027 0
M  V30 6713 H 618.26 0.938516 -4.51652 0
M  V30 6714 H 616.503 0.814501 -4.26085 0
M  V30 6715 H 617.174 2.25024 -5.04052 0
M  V30 6716 H 619.65 2.69926 -3.16669 0
M  V30 6717 H 618.526 3.88706 -3.87555 0
M  V30 6718 H 618.787 3.86933 -2.13859 0
M  V30 6719 N 617.846 1.41785 0.688094 0
M  V30 6720 C 618.809 1.43936 1.78368 0
M  V30 6721 C 619.809 0.328866 1.57401 0
M  V30 6722 O 620.999 0.589093 1.63937 0
M  V30 6723 C 618.131 1.25804 3.16838 0
M  V30 6724 H 619.324 2.41472 1.77852 0
M  V30 6725 H 616.877 1.28037 0.896448 0
M  V30 6726 H 617.612 0.291386 3.22988 0
M  V30 6727 H 617.397 2.06272 3.33458 0
M  V30 6728 H 618.887 1.30162 3.96797 0
M  V30 6729 N 619.324 -0.923095 1.27737 0
M  V30 6730 C 620.735 -1.48626 1.12993 0
M  V30 6731 C 621.086 -1.94142 -0.283439 0
M  V30 6732 O 620.211 -1.81605 -1.17681 0
M  V30 6733 C 620.806 -2.70117 2.04505 0
M  V30 6734 C 619.365 -3.22642 1.93853 0
M  V30 6735 C 618.512 -1.95368 1.96791 0
M  V30 6736 H 621.463 -0.736737 1.40563 0
M  V30 6737 H 621.484 -3.4506 1.60356 0
M  V30 6738 H 620.996 -2.36959 3.07363 0
M  V30 6739 H 619.097 -3.60549 0.939968 0
M  V30 6740 H 619.21 -3.88525 2.80331 0
M  V30 6741 H 617.574 -2.12061 1.41076 0
M  V30 6742 H 618.357 -1.64517 3.01312 0
M  V30 6743 N 620.802 -1.09834 -1.13024 0
M  V30 6744 C 622.213 -0.855651 -1.65938 0
M  V30 6745 C 622.564 0.615159 -1.86307 0
M  V30 6746 O 621.689 1.47335 -1.58497 0
M  V30 6747 C 622.284 -1.5467 -3.01434 0
M  V30 6748 C 620.843 -1.35088 -3.51323 0
M  V30 6749 C 619.99 -1.6001 -2.26478 0
M  V30 6750 H 622.941 -1.25691 -0.968889 0
M  V30 6751 H 622.962 -0.982179 -3.67605 0
M  V30 6752 H 622.474 -2.61715 -2.86578 0
M  V30 6753 H 620.575 -0.30179 -3.71376 0
M  V30 6754 H 620.688 -2.0886 -4.31178 0
M  V30 6755 H 619.052 -1.02246 -2.33276 0
M  V30 6756 H 619.835 -2.68293 -2.14182 0
M  V30 6757 N 622.28 1.30327 -0.886154 0
M  V30 6758 C 623.243 2.26376 -0.358687 0
M  V30 6759 C 624.243 1.52845 0.499498 0
M  V30 6760 O 625.433 1.71483 0.306485 0
M  V30 6761 C 622.565 3.37379 0.488726 0
M  V30 6762 H 623.758 2.74547 -1.20681 0
M  V30 6763 H 621.311 1.41536 -0.663113 0
M  V30 6764 H 622.046 2.94526 1.35739 0
M  V30 6765 H 621.831 3.91897 -0.126003 0
M  V30 6766 H 623.321 4.08868 0.84952 0
M  V30 6767 N 623.758 0.647228 1.43697 0
M  V30 6768 C 624.986 0.16575 2.06235 0
M  V30 6769 C 625.401 -1.1662 1.48476 0
M  V30 6770 O 624.758 -1.7187 0.613762 0
M  V30 6771 C 624.809 0.0621651 3.61447 0
M  V30 6772 O 624.53 1.34146 4.17057 0
M  V30 6773 C 626.031 -0.446102 4.4105 0
M  V30 6774 H 623.251 0.0871158 0.665321 0
M  V30 6775 H 625.795 0.886183 1.84301 0
M  V30 6776 H 623.95 -0.608794 3.82587 0
M  V30 6777 H 624.364 1.19675 5.10664 0
M  V30 6778 H 625.838 -0.46755 5.50016 0
M  V30 6779 H 626.315 -1.47627 4.13646 0
M  V30 6780 H 626.921 0.192159 4.24866 0
M  V30 6781 N 625.236 -1.5273 0.388769 0
M  V30 6782 C 626.485 -2.00757 -0.194833 0
M  V30 6783 C 626.798 -1.27951 -1.47946 0
M  V30 6784 O 628.004 -1.66686 -2.14308 0
M  V30 6785 C 626.46 -3.57695 -0.397762 0
M  V30 6786 C 626.068 -4.394 0.873583 0
M  V30 6787 C 627.812 -4.14012 -0.937759 0
M  V30 6788 C 625.719 -5.87938 0.638962 0
M  V30 6789 H 624.649 -0.750101 -0.0765845 0
M  V30 6790 H 627.3 -1.76239 0.511086 0
M  V30 6791 H 625.682 -3.7846 -1.16552 0
M  V30 6792 H 626.856 -4.30403 1.64591 0
M  V30 6793 H 625.171 -3.94301 1.33849 0
M  V30 6794 H 627.768 -5.22645 -1.12899 0
M  V30 6795 H 628.111 -3.7007 -1.90666 0
M  V30 6796 H 628.644 -3.97137 -0.229588 0
M  V30 6797 H 625.383 -6.36202 1.57885 0
M  V30 6798 H 624.903 -5.99726 -0.094443 0
M  V30 6799 H 626.582 -6.46423 0.273299 0
M  V30 6800 N 626.714 -0.118576 -1.57153 0
M  V30 6801 C 627.624 0.845484 -2.18835 0
M  V30 6802 C 628.64 1.29299 -1.16438 0
M  V30 6803 O 629.816 1.35607 -1.48905 0
M  V30 6804 C 626.881 2.07795 -2.77529 0
M  V30 6805 C 625.942 1.6824 -3.9496 0
M  V30 6806 C 625.175 2.85612 -4.50845 0
M  V30 6807 O 625.398 4.01025 -4.05629 0
M  V30 6808 O 624.332 2.62721 -5.41536 0
M  V30 6809 H 628.158 0.350568 -3.0167 0
M  V30 6810 H 625.743 0.107013 -1.49016 0
M  V30 6811 H 627.625 2.79978 -3.14945 0
M  V30 6812 H 626.3 2.56294 -1.97725 0
M  V30 6813 H 625.207 0.931663 -3.62313 0
M  V30 6814 H 626.54 1.24484 -4.76198 0
M  V30 6815 N 628.193 1.56834 0.155195 0
M  V30 6816 C 629.103 2.009 1.21146 0
M  V30 6817 C 630.119 0.923029 1.475 0
M  V30 6818 O 631.295 1.23189 1.59331 0
M  V30 6819 C 628.36 2.37378 2.52691 0
M  V30 6820 C 627.421 3.59883 2.34057 0
M  V30 6821 C 626.654 3.94612 3.59329 0
M  V30 6822 O 626.877 3.30104 4.65175 0
M  V30 6823 O 625.811 4.87895 3.52479 0
M  V30 6824 H 629.637 2.9105 0.867371 0
M  V30 6825 H 627.222 1.44916 0.363298 0
M  V30 6826 H 629.104 2.61737 3.3026 0
M  V30 6827 H 627.779 1.50385 2.86646 0
M  V30 6828 H 626.686 3.40722 1.54465 0
M  V30 6829 H 628.019 4.47468 2.0502 0
M  V30 6830 N 629.671 -0.424282 1.51781 0
M  V30 6831 C 630.948 -1.18464 1.55646 0
M  V30 6832 C 631.328 -2.08529 0.328438 0
M  V30 6833 O 630.676 -2.17969 -0.685693 0
M  V30 6834 C 630.886 -1.97514 2.87731 0
M  V30 6835 C 632.234 -2.54106 3.40169 0
M  V30 6836 O 633.258 -2.07711 2.89369 0
M  V30 6837 O 632.117 -3.38759 4.28841 0
M  V30 6838 H 629.211 -0.540055 0.626314 0
M  V30 6839 H 631.757 -0.432291 1.64102 0
M  V30 6840 H 630.529 -1.31444 3.68562 0
M  V30 6841 H 630.152 -2.79787 2.82498 0
M  V30 6842 N 631.149 -1.42148 -0.680565 0
M  V30 6843 C 632.396 -1.4231 -1.44063 0
M  V30 6844 C 632.724 -0.037488 -1.94464 0
M  V30 6845 O 631.979 0.953184 -1.70918 0
M  V30 6846 C 632.278 -2.38945 -2.65782 0
M  V30 6847 C 631.944 -3.85455 -2.33956 0
M  V30 6848 C 630.606 -4.25364 -2.24987 0
M  V30 6849 C 632.958 -4.77895 -2.08004 0
M  V30 6850 C 630.286 -5.55701 -1.88184 0
M  V30 6851 C 632.638 -6.08568 -1.72706 0
M  V30 6852 C 631.302 -6.47482 -1.62244 0
M  V30 6853 H 630.572 -0.520748 -0.527164 0
M  V30 6854 H 633.219 -1.7505 -0.776524 0
M  V30 6855 H 631.524 -1.99511 -3.37198 0
M  V30 6856 H 633.221 -2.36336 -3.23954 0
M  V30 6857 H 629.811 -3.53855 -2.41836 0
M  V30 6858 H 633.995 -4.47854 -2.1387 0
M  V30 6859 H 629.251 -5.84718 -1.78648 0
M  V30 6860 H 633.425 -6.79688 -1.5165 0
M  V30 6861 H 631.052 -7.48387 -1.33496 0
M  V30 6862 N 632.627 0.916307 -1.28225 0
M  V30 6863 C 633.575 2.03977 -1.11786 0
M  V30 6864 C 634.569 1.69358 -0.0378265 0
M  V30 6865 O 635.775 1.78925 -0.196405 0
M  V30 6866 H 632.15 0.66829 -0.344809 0
M  V30 6867 H 634.121 2.14985 -2.06939 0
M  V30 6868 C 632.87 3.38518 -0.7938 0
M  V30 6869 H 632.193 3.65649 -1.61682 0
M  V30 6870 H 633.633 4.17864 -0.718719 0
M  V30 6871 C 632.092 3.33134 0.502353 0
M  V30 6872 O 632.622 3.71281 1.53341 0
M  V30 6873 N 630.828 2.86229 0.502147 0
M  V30 6874 H 630.375 2.55382 -0.337338 0
M  V30 6875 H 630.333 2.83009 1.36942 0
M  V30 6876 N 634.105 1.10431 1.1244 0
M  V30 6877 C 635.068 0.756542 2.16354 0
M  V30 6878 C 636.068 -0.21899 1.59302 0
M  V30 6879 O 637.258 0.00415969 1.742 0
M  V30 6880 C 634.39 0.120612 3.40687 0
M  V30 6881 H 635.583 1.67696 2.48632 0
M  V30 6882 H 633.136 0.904832 1.27446 0
M  V30 6883 H 633.871 -0.810536 3.14008 0
M  V30 6884 H 633.656 0.822693 3.83372 0
M  V30 6885 H 635.146 -0.106945 4.17463 0
M  V30 6886 N 635.583 -1.29855 0.893053 0
M  V30 6887 C 636.533 -2.25493 0.337211 0
M  V30 6888 C 637.517 -1.51606 -0.53894 0
M  V30 6889 O 638.709 -1.72828 -0.382043 0
M  V30 6890 C 635.838 -3.40467 -0.440117 0
M  V30 6891 C 634.924 -4.217 0.450578 0
M  V30 6892 N 635.315 -4.81312 1.55476 0
M  V30 6893 C 633.613 -4.45315 0.247154 0
M  V30 6894 C 634.314 -5.42241 2.10593 0
M  V30 6895 N 633.29 -5.25267 1.39982 0
M  V30 6896 H 637.092 -2.69137 1.18079 0
M  V30 6897 H 634.606 -1.44388 0.743359 0
M  V30 6898 H 636.603 -4.08038 -0.855021 0
M  V30 6899 H 635.263 -2.98361 -1.28104 0
M  V30 6900 H 636.274 -4.80291 1.93755 0
M  V30 6901 H 632.951 -4.13782 -0.555939 0
M  V30 6902 H 634.341 -5.99517 3.03362 0
M  V30 6903 N 637.061 -0.65484 -1.43351 0
M  V30 6904 C 638.291 -0.176429 -2.05845 0
M  V30 6905 C 638.699 1.16375 -1.49176 0
M  V30 6906 O 638.042 1.72981 -0.618322 0
M  V30 6907 C 638.104 -0.0125844 -3.59498 0
M  V30 6908 C 637.768 -1.27831 -4.38758 0
M  V30 6909 C 638.765 -2.2074 -4.70712 0
M  V30 6910 C 636.45 -1.52035 -4.78739 0
M  V30 6911 C 638.444 -3.36145 -5.41558 0
M  V30 6912 C 636.131 -2.67732 -5.49329 0
M  V30 6913 C 637.129 -3.59612 -5.80662 0
M  V30 6914 O 636.817 -4.73289 -6.4981 0
M  V30 6915 H 636.549 -0.0879682 -0.670252 0
M  V30 6916 H 639.103 -0.896193 -1.84818 0
M  V30 6917 H 637.333 0.762567 -3.79107 0
M  V30 6918 H 639.022 0.423392 -4.03686 0
M  V30 6919 H 639.788 -2.03284 -4.40341 0
M  V30 6920 H 635.667 -0.813987 -4.53757 0
M  V30 6921 H 639.211 -4.07881 -5.65932 0
M  V30 6922 H 635.108 -2.85122 -5.79116 0
M  V30 6923 H 635.876 -4.72575 -6.68293 0
M  V30 6924 N 638.539 1.52521 -0.396863 0
M  V30 6925 C 639.764 2.06571 0.185258 0
M  V30 6926 C 640.189 1.26605 1.39115 0
M  V30 6927 O 639.547 0.293055 1.78916 0
M  V30 6928 C 639.595 3.5674 0.526189 0
M  V30 6929 O 638.699 3.7929 1.61903 0
M  V30 6930 H 638.04 0.663712 0.0195474 0
M  V30 6931 H 640.57 1.966 -0.566519 0
M  V30 6932 H 640.58 4.00311 0.788338 0
M  V30 6933 H 639.255 4.14379 -0.355397 0
M  V30 6934 H 637.832 3.47605 1.35 0
M  V30 6935 N 640.017 0.126909 1.57088 0
M  V30 6936 C 641.428 -0.397201 1.82426 0
M  V30 6937 C 641.779 -1.66084 1.04453 0
M  V30 6938 O 640.904 -2.14534 0.283552 0
M  V30 6939 C 641.499 -0.727411 3.30899 0
M  V30 6940 C 640.058 -1.19612 3.56889 0
M  V30 6941 C 639.205 -0.20885 2.76512 0
M  V30 6942 H 642.156 0.351924 1.54749 0
M  V30 6943 H 642.177 -1.58407 3.45959 0
M  V30 6944 H 641.689 0.19247 3.87622 0
M  V30 6945 H 639.79 -2.13263 3.05532 0
M  V30 6946 H 639.903 -1.13598 4.65438 0
M  V30 6947 H 638.267 -0.697479 2.44964 0
M  V30 6948 H 639.05 0.704267 3.35998 0
M  V30 6949 N 641.495 -1.56914 -0.146875 0
M  V30 6950 C 642.458 -1.97368 -1.16526 0
M  V30 6951 C 643.458 -0.860223 -1.35856 0
M  V30 6952 O 644.648 -1.12684 -1.32846 0
M  V30 6953 C 641.78 -2.28974 -2.52555 0
M  V30 6954 H 642.973 -2.88523 -0.818209 0
M  V30 6955 H 640.526 -1.5135 -0.390221 0
M  V30 6956 H 641.261 -1.40611 -2.92231 0
M  V30 6957 H 641.046 -3.10157 -2.39886 0
M  V30 6958 H 642.536 -2.61109 -3.25902 0
M  V30 6959 N 642.974 0.416227 -1.52004 0
M  V30 6960 C 644.202 1.18573 -1.69553 0
M  V30 6961 C 644.617 1.84472 -0.401919 0
M  V30 6962 O 643.974 1.71593 0.621463 0
M  V30 6963 C 644.025 2.25413 -2.82615 0
M  V30 6964 O 643.746 1.62205 -4.06966 0
M  V30 6965 C 645.247 3.15297 -3.11613 0
M  V30 6966 H 642.467 0.356582 -0.56841 0
M  V30 6967 H 645.011 0.490618 -1.98528 0
M  V30 6968 H 643.166 2.90604 -2.56179 0
M  V30 6969 H 643.58 2.3298 -4.69916 0
M  V30 6970 H 645.054 3.86351 -3.94255 0
M  V30 6971 H 645.531 3.77264 -2.24874 0
M  V30 6972 H 646.137 2.55783 -3.39787 0
M  V30 6973 N 644.452 1.42507 0.673017 0
M  V30 6974 C 645.7 1.42789 1.43023 0
M  V30 6975 C 646.021 0.0459738 1.94946 0
M  V30 6976 O 645.291 -0.915765 1.73178 0
M  V30 6977 H 643.871 0.525657 0.530748 0
M  V30 6978 H 646.533 1.77944 0.795113 0
M  V30 6979 H 645.629 2.12872 2.28237 0
M  V30 6980 N 645.93 -0.909495 1.28709 0
M  V30 6981 C 647.178 -1.65577 1.15882 0
M  V30 6982 C 647.499 -1.928 -0.292108 0
M  V30 6983 O 646.769 -1.54716 -1.20166 0
M  V30 6984 H 645.349 -0.613714 0.425869 0
M  V30 6985 H 648.011 -1.09108 1.61498 0
M  V30 6986 H 647.107 -2.61634 1.70159 0
M  V30 6987 N 647.408 -1.11026 -1.11852 0
M  V30 6988 C 648.636 -0.878818 -1.87308 0
M  V30 6989 C 649.051 0.57111 -1.79955 0
M  V30 6990 O 648.408 1.39409 -1.17777 0
M  V30 6991 C 648.459 -1.3264 -3.36287 0
M  V30 6992 O 648.18 -2.71948 -3.43476 0
M  V30 6993 C 649.681 -1.12974 -4.28663 0
M  V30 6994 H 646.901 -0.315015 -0.592458 0
M  V30 6995 H 649.445 -1.47649 -1.41492 0
M  V30 6996 H 647.6 -0.772269 -3.79625 0
M  V30 6997 H 648.014 -2.91241 -4.3621 0
M  V30 6998 H 649.488 -1.49198 -5.31454 0
M  V30 6999 H 649.965 -0.0689127 -4.39146 0
M  V30 7000 H 650.571 -1.67064 -3.91113 0
M  V30 7001 N 648.886 1.2938 -0.899927 0
M  V30 7002 C 649.833 2.27713 -0.376243 0
M  V30 7003 C 650.803 1.57016 0.541774 0
M  V30 7004 O 651.988 1.84997 0.466966 0
M  V30 7005 C 649.128 3.42889 0.39 0
M  V30 7006 C 648.241 4.28369 -0.558938 0
M  V30 7007 C 647.376 5.30726 0.224379 0
M  V30 7008 C 646.415 6.07862 -0.719068 0
M  V30 7009 N 645.552 7.02094 0.0298569 0
M  V30 7010 H 650.392 2.71888 -1.21988 0
M  V30 7011 H 647.929 1.33724 -0.612879 0
M  V30 7012 H 649.887 4.08443 0.850314 0
M  V30 7013 H 648.517 2.99743 1.19809 0
M  V30 7014 H 647.569 3.62986 -1.13777 0
M  V30 7015 H 648.881 4.82068 -1.2811 0
M  V30 7016 H 648.035 6.02098 0.745881 0
M  V30 7017 H 646.774 4.77759 0.979674 0
M  V30 7018 H 645.779 5.35353 -1.25207 0
M  V30 7019 H 647.004 6.62917 -1.4737 0
M  V30 7020 H 644.95 6.51496 0.767415 0
M  V30 7021 H 644.867 7.5335 -0.632391 0
M  V30 7022 H 646.135 7.77685 0.531615 0
M  V30 7023 N 650.364 0.662433 1.43002 0
M  V30 7024 C 651.592 0.187615 2.06048 0
M  V30 7025 C 652.007 -1.15039 1.49705 0
M  V30 7026 O 651.364 -1.71209 0.631956 0
M  V30 7027 C 651.415 0.100498 3.6136 0
M  V30 7028 O 651.136 1.38562 4.15611 0
M  V30 7029 C 652.637 -0.399298 4.41498 0
M  V30 7030 H 649.857 0.0941675 0.664359 0
M  V30 7031 H 652.401 0.905681 1.83351 0
M  V30 7032 H 650.556 -0.568181 3.83211 0
M  V30 7033 H 650.97 1.25084 5.09366 0
M  V30 7034 H 652.444 -0.409187 5.50481 0
M  V30 7035 H 652.921 -1.43232 4.15188 0
M  V30 7036 H 653.527 0.23721 4.24638 0
M  V30 7037 N 651.842 -1.52309 0.404946 0
M  V30 7038 C 653.088 -2.02065 -0.172455 0
M  V30 7039 C 653.421 -1.29022 -1.45145 0
M  V30 7040 O 652.696 -0.395284 -1.90441 0
M  V30 7041 C 652.979 -3.5759 -0.424433 0
M  V30 7042 C 652.832 -4.41287 0.870945 0
M  V30 7043 C 654.151 -4.23186 -1.20837 0
M  V30 7044 H 651.27 -0.734454 -0.0612035 0
M  V30 7045 H 653.912 -1.82236 0.53759 0
M  V30 7046 H 652.062 -3.74617 -1.02929 0
M  V30 7047 H 653.734 -4.3598 1.50729 0
M  V30 7048 H 651.977 -4.07669 1.48284 0
M  V30 7049 H 652.648 -5.48171 0.649083 0
M  V30 7050 H 655.124 -4.10232 -0.696338 0
M  V30 7051 H 654 -5.31953 -1.35343 0
M  V30 7052 H 654.261 -3.81862 -2.22786 0
M  V30 7053 N 653.32 -0.135238 -1.57019 0
M  V30 7054 C 654.566 0.519563 -1.96032 0
M  V30 7055 C 654.899 1.65284 -1.01955 0
M  V30 7056 O 654.174 1.94408 -0.059727 0
M  V30 7057 C 654.457 1.0369 -3.44848 0
M  V30 7058 C 654.31 -0.0940754 -4.49702 0
M  V30 7059 C 655.629 1.92254 -3.95887 0
M  V30 7060 H 652.748 0.18739 -0.712779 0
M  V30 7061 H 655.39 -0.214086 -1.8879 0
M  V30 7062 H 653.54 1.66209 -3.5115 0
M  V30 7063 H 655.212 -0.73 -4.55487 0
M  V30 7064 H 653.455 -0.754924 -4.27181 0
M  V30 7065 H 654.126 0.309419 -5.51132 0
M  V30 7066 H 656.602 1.39581 -3.9199 0
M  V30 7067 H 655.478 2.25364 -5.00502 0
M  V30 7068 H 655.739 2.85513 -3.37543 0
M  V30 7069 N 654.798 1.5699 0.138552 0
M  V30 7070 C 655.761 1.97984 1.15478 0
M  V30 7071 C 656.761 0.867416 1.35398 0
M  V30 7072 O 657.951 1.13387 1.32246 0
M  V30 7073 C 655.083 2.3031 2.51337 0
M  V30 7074 H 656.276 2.88953 0.802896 0
M  V30 7075 H 653.829 1.51555 0.382189 0
M  V30 7076 H 654.564 1.42159 2.91481 0
M  V30 7077 H 654.349 3.11425 2.38237 0
M  V30 7078 H 655.839 2.62834 3.24512 0
M  V30 7079 N 656.276 -0.40816 1.52223 0
M  V30 7080 C 657.186 -1.52202 1.78526 0
M  V30 7081 C 658.202 -1.60546 0.670892 0
M  V30 7082 O 659.378 -1.77242 0.956404 0
M  V30 7083 C 656.443 -2.87928 1.93128 0
M  V30 7084 C 655.504 -2.89463 3.17033 0
M  V30 7085 C 654.737 -4.18715 3.30929 0
M  V30 7086 O 654.96 -5.12662 2.50067 0
M  V30 7087 O 653.894 -4.27125 4.24084 0
M  V30 7088 H 657.72 -1.32911 2.73072 0
M  V30 7089 H 655.305 -0.594112 1.37079 0
M  V30 7090 H 657.187 -3.68426 2.04549 0
M  V30 7091 H 655.862 -3.07285 1.01772 0
M  V30 7092 H 654.769 -2.07815 3.11069 0
M  V30 7093 H 656.102 -2.75055 4.08174 0
M  V30 7094 O 657.793 -1.51699 -0.554045 0
M  V30 7095 H 658.484 -1.51323 -1.20918 0
M  V30 END ATOM
M  V30 BEGIN BOND
M  V30 END BOND
M  V30 END CTAB
M  END
$$$$
