drugbank_target|Q02779 Mitogen-activated protein kinase kinase kinase 10 (DB12010)
 OpenBabel12092121163D

  0  0  0     0  0            999 V3000
M  V30 BEGIN CTAB
M  V30 COUNTS 14537 14738 0 0 0
M  V30 BEGIN ATOM
M  V30 1 H -0.908 1.98254 -0.117106 0
M  V30 2 N 0 1.576 0 0
M  V30 3 C 0.933 2.03868 1.02534 0
M  V30 4 C 1.911 0.928543 1.3348 0
M  V30 5 O 3.095 1.19667 1.45644 0
M  V30 6 C 0.222 2.43627 2.35294 0
M  V30 7 C -0.732 3.65373 2.2001 0
M  V30 8 S 0.101 5.13292 1.52614 0
M  V30 9 C 1.257 5.56322 2.86805 0
M  V30 10 H 1.49 2.90518 0.631377 0
M  V30 11 H -0.977 1.52953 0.210867 0
M  V30 12 H 0.981 2.67203 3.11629 0
M  V30 13 H -0.358 1.57376 2.7183 0
M  V30 14 H -1.165 3.90944 3.18086 0
M  V30 15 H -1.563 3.418 1.51819 0
M  V30 16 H 0.729 5.58782 3.83104 0
M  V30 17 H 1.672 6.56266 2.65933 0
M  V30 18 H 2.08 4.83886 2.90714 0
M  V30 19 N 1.4781 -0.272755 1.55222 0
M  V30 20 C 2.3881 -1.35918 1.91216 0
M  V30 21 C 3.4041 -1.54026 0.809436 0
M  V30 22 O 4.5801 -1.68148 1.10852 0
M  V30 23 C 1.6451 -2.69834 2.17693 0
M  V30 24 C 0.7061 -2.6047 3.41253 0
M  V30 25 C -0.0609 -3.88 3.66458 0
M  V30 26 O 0.1621 -4.88693 2.94169 0
M  V30 27 O -0.9039 -3.88189 4.59992 0
M  V30 28 H 2.9221 -1.0839 2.83699 0
M  V30 29 H 0.5071 -0.471301 1.41771 0
M  V30 30 H 2.3891 -3.49017 2.36147 0
M  V30 31 H 1.0641 -2.97148 1.28392 0
M  V30 32 H -0.0289 -1.79663 3.28134 0
M  V30 33 H 1.3041 -2.38106 4.30774 0
M  V30 34 N 2.9562 -1.48159 -0.537278 0
M  V30 35 C 3.8662 -1.64807 -1.6696 0
M  V30 36 C 4.8822 -0.530651 -1.65711 0
M  V30 37 O 6.0582 -0.800784 -1.84796 0
M  V30 38 C 3.1232 -1.67708 -3.03438 0
M  V30 39 C 2.1842 -2.91025 -3.156 0
M  V30 40 C 1.4172 -2.93778 -4.45567 0
M  V30 41 O 1.6402 -2.05153 -5.3223 0
M  V30 42 O 0.5742 -3.85868 -4.61941 0
M  V30 43 H 4.4002 -2.6066 -1.55853 0
M  V30 44 H 1.9852 -1.31475 -0.709549 0
M  V30 45 H 3.8672 -1.7218 -3.84619 0
M  V30 46 H 2.5422 -0.750278 -3.14885 0
M  V30 47 H 1.4492 -2.92089 -2.33741 0
M  V30 48 H 2.7822 -3.83065 -3.09066 0
M  V30 49 N 4.4343 0.785586 -1.36625 0
M  V30 50 C 5.3443 1.92964 -1.33425 0
M  V30 51 C 6.3603 1.72394 -0.235851 0
M  V30 52 O 7.5363 1.95866 -0.468878 0
M  V30 53 C 4.6013 3.27884 -1.12662 0
M  V30 54 C 3.6623 3.61204 -2.32013 0
M  V30 55 C 2.8953 4.89687 -2.12231 0
M  V30 56 O 3.1183 5.59704 -1.09945 0
M  V30 57 O 2.0523 5.21752 -3.00098 0
M  V30 58 H 5.8783 1.98613 -2.29753 0
M  V30 59 H 3.4633 0.926384 -1.17211 0
M  V30 60 H 5.3453 4.08614 -1.03016 0
M  V30 61 H 4.0203 3.23118 -0.193991 0
M  V30 62 H 2.9273 2.80765 -2.47228 0
M  V30 63 H 4.2603 3.70698 -3.23796 0
M  V30 64 N 5.9124 1.20967 1.01018 0
M  V30 65 C 6.8224 0.980157 2.13143 0
M  V30 66 C 7.8384 -0.0660665 1.73875 0
M  V30 67 O 9.0144 0.122821 2.01025 0
M  V30 68 C 6.0794 0.54216 3.42435 0
M  V30 69 C 5.1404 1.65999 3.95908 0
M  V30 70 C 4.3734 1.2428 5.19028 0
M  V30 71 O 4.5964 0.114196 5.70286 0
M  V30 72 O 3.5304 2.05271 5.65816 0
M  V30 73 H 7.3564 1.91913 2.35379 0
M  V30 74 H 4.9414 0.994099 1.11526 0
M  V30 75 H 6.8234 0.30744 4.20277 0
M  V30 76 H 5.4984 -0.36815 3.216 0
M  V30 77 H 4.4054 1.94906 3.19316 0
M  V30 78 H 5.7384 2.54753 4.21143 0
M  V30 79 N 7.3905 -1.2043 1.01659 0
M  V30 80 C 8.6385 -1.89423 0.704522 0
M  V30 81 C 8.9595 -1.79231 -0.768197 0
M  V30 82 O 8.2295 -1.1947 -1.55254 0
M  V30 83 H 6.8095 -0.701178 0.257602 0
M  V30 84 H 9.4715 -1.4626 1.28818 0
M  V30 85 H 8.5675 -2.96052 0.987916 0
M  V30 86 N 8.8686 -0.792821 -1.36206 0
M  V30 87 C 9.8316 -0.199459 -2.2833 0
M  V30 88 C 10.8316 0.605189 -1.48977 0
M  V30 89 O 12.0216 0.425685 -1.68919 0
M  V30 90 C 9.1536 0.723523 -3.33134 0
M  V30 91 H 10.3466 -1.01181 -2.82316 0
M  V30 92 H 7.8996 -0.562485 -1.45828 0
M  V30 93 H 8.6346 1.56008 -2.84309 0
M  V30 94 H 8.4196 0.148436 -3.91819 0
M  V30 95 H 9.9096 1.13344 -4.01924 0
M  V30 96 N 10.3467 1.47872 -0.545128 0
M  V30 97 C 11.5927 2.02793 -0.0166104 0
M  V30 98 C 11.9257 1.41987 1.32489 0
M  V30 99 O 11.2007 0.571045 1.85928 0
M  V30 100 C 11.4837 3.59989 0.0893294 0
M  V30 101 C 11.3367 4.3125 -1.27841 0
M  V30 102 C 12.6557 4.32606 0.808724 0
M  V30 103 H 9.7747 0.736962 -0.00751035 0
M  V30 104 H 12.4167 1.76433 -0.705085 0
M  V30 105 H 10.5667 3.82579 0.675681 0
M  V30 106 H 12.2387 4.20035 -1.90704 0
M  V30 107 H 10.4817 3.92076 -1.85632 0
M  V30 108 H 11.1527 5.39736 -1.15713 0
M  V30 109 H 13.6287 4.14936 0.310992 0
M  V30 110 H 12.5047 5.42251 0.851782 0
M  V30 111 H 12.7657 4.00963 1.86229 0
M  V30 112 N 11.8248 0.280983 1.55075 0
M  V30 113 C 12.7878 -0.590896 2.21452 0
M  V30 114 C 13.7878 -1.07682 1.19421 0
M  V30 115 O 14.9778 -0.97605 1.44288 0
M  V30 116 C 12.1098 -1.81587 2.88511 0
M  V30 117 H 13.3028 -0.0112554 2.99898 0
M  V30 118 H 10.8558 0.0316438 1.56268 0
M  V30 119 H 11.5908 -2.43587 2.14093 0
M  V30 120 H 11.3758 -1.4753 3.63287 0
M  V30 121 H 12.8658 -2.43575 3.39206 0
M  V30 122 N 13.3029 -1.57598 0.00835791 0
M  V30 123 C 14.2499 -2.08945 -0.980346 0
M  V30 124 C 15.2199 -0.986738 -1.33614 0
M  V30 125 O 16.4049 -1.25968 -1.43306 0
M  V30 126 C 13.5449 -2.60425 -2.26435 0
M  V30 127 C 12.6579 -3.84628 -1.96685 0
M  V30 128 C 11.7929 -4.24579 -3.19228 0
M  V30 129 C 10.8319 -5.41596 -2.85202 0
M  V30 130 N 9.9689 -5.768 -4.00307 0
M  V30 131 H 14.8089 -2.93148 -0.535551 0
M  V30 132 H 12.3459 -1.44912 -0.252776 0
M  V30 133 H 14.3039 -2.88354 -3.01509 0
M  V30 134 H 12.9339 -1.79083 -2.68568 0
M  V30 135 H 11.9859 -3.63556 -1.11942 0
M  V30 136 H 13.2979 -4.69796 -1.67611 0
M  V30 137 H 12.4519 -4.53834 -4.02641 0
M  V30 138 H 11.1909 -3.38137 -3.51447 0
M  V30 139 H 10.1959 -5.12056 -2.00198 0
M  V30 140 H 11.4209 -6.29721 -2.54222 0
M  V30 141 H 9.3669 -4.93316 -4.32407 0
M  V30 142 H 9.2839 -6.5656 -3.74786 0
M  V30 143 H 10.5519 -6.10652 -4.84484 0
M  V30 144 N 14.781 0.264519 -1.55364 0
M  V30 145 C 15.691 1.34902 -1.91934 0
M  V30 146 C 16.707 1.53595 -0.817593 0
M  V30 147 O 17.883 1.67558 -1.11742 0
M  V30 148 C 14.948 2.68676 -2.19121 0
M  V30 149 C 14.009 2.58657 -3.4263 0
M  V30 150 C 13.242 3.86051 -3.68511 0
M  V30 151 O 13.465 4.87126 -2.96757 0
M  V30 152 O 12.399 3.85744 -4.62045 0
M  V30 153 H 16.225 1.06883 -2.8427 0
M  V30 154 H 13.81 0.463775 -1.42019 0
M  V30 155 H 15.692 3.47759 -2.37995 0
M  V30 156 H 14.367 2.96463 -1.29966 0
M  V30 157 H 13.274 1.7792 -3.29082 0
M  V30 158 H 14.607 2.35818 -4.32031 0
M  V30 159 N 16.2591 1.48442 0.529413 0
M  V30 160 C 17.5051 1.57699 1.28463 0
M  V30 161 C 17.8601 0.247913 1.90796 0
M  V30 162 O 17.1531 -0.749279 1.76342 0
M  V30 163 C 17.3471 2.6523 2.39558 0
M  V30 164 C 17.1761 4.08464 1.88114 0
M  V30 165 C 15.9461 4.75596 1.70693 0
M  V30 166 C 18.1441 4.94613 1.40935 0
M  V30 167 N 16.1261 6.03245 1.13881 0
M  V30 168 C 17.4971 6.12511 0.960734 0
M  V30 169 C 19.5521 4.80833 1.29243 0
M  V30 170 C 18.2551 7.18149 0.406792 0
M  V30 171 C 20.2811 5.86593 0.752487 0
M  V30 172 C 19.6431 7.037 0.313946 0
M  V30 173 H 15.7421 0.631608 0.46108 0
M  V30 174 H 18.3261 1.85325 0.596886 0
M  V30 175 H 16.4971 2.39425 3.05827 0
M  V30 176 H 18.2291 2.64169 3.06589 0
M  V30 177 H 14.9841 4.31938 1.94232 0
M  V30 178 H 15.4081 6.71324 0.874831 0
M  V30 179 H 20.0501 3.90635 1.61754 0
M  V30 180 H 17.7681 8.0807 0.0693671 0
M  V30 181 H 21.3541 5.77985 0.665192 0
M  V30 182 H 20.2341 7.8414 -0.0973632 0
M  V30 183 N 17.7372 -0.778329 1.37039 0
M  V30 184 C 18.9852 -1.53361 1.31623 0
M  V30 185 C 19.3062 -1.94739 -0.100831 0
M  V30 186 O 18.5762 -1.65797 -1.04347 0
M  V30 187 H 17.1562 -0.568794 0.484234 0
M  V30 188 H 19.8182 -0.926742 1.71457 0
M  V30 189 H 18.9142 -2.43606 1.95096 0
M  V30 190 N 19.2153 -1.21501 -1.00376 0
M  V30 191 C 20.4433 -1.059 -1.77744 0
M  V30 192 C 20.8583 0.391125 -1.84704 0
M  V30 193 O 20.2153 1.27133 -1.30933 0
M  V30 194 C 20.2663 -1.65111 -3.21591 0
M  V30 195 O 19.9873 -3.0445 -3.15027 0
M  V30 196 C 21.4883 -1.54637 -4.15454 0
M  V30 197 H 18.7083 -0.371825 -0.558558 0
M  V30 198 H 21.2523 -1.60865 -1.26264 0
M  V30 199 H 19.4073 -1.14235 -3.70175 0
M  V30 200 H 19.8213 -3.3278 -4.0541 0
M  V30 201 H 21.2953 -2.00808 -5.14179 0
M  V30 202 H 21.7723 -0.501022 -4.36333 0
M  V30 203 H 22.3783 -2.04767 -3.72761 0
M  V30 204 N 20.6934 1.19889 -1.02296 0
M  V30 205 C 21.9214 1.9339 -0.735399 0
M  V30 206 C 22.3364 1.75148 0.704887 0
M  V30 207 O 21.6934 1.06954 1.47875 0
M  V30 208 C 21.7444 3.45313 -1.06962 0
M  V30 209 O 21.4654 3.62964 -2.45334 0
M  V30 210 C 22.9664 4.35948 -0.804021 0
M  V30 211 H 20.1864 0.61448 -0.269546 0
M  V30 212 H 22.7304 1.522 -1.36585 0
M  V30 213 H 20.8854 3.84359 -0.484455 0
M  V30 214 H 21.2994 4.56886 -2.57595 0
M  V30 215 H 22.7734 5.41174 -1.0879 0
M  V30 216 H 23.2504 4.3842 0.261691 0
M  V30 217 H 23.8564 4.02574 -1.37164 0
M  V30 218 N 22.1715 0.800033 1.35784 0
M  V30 219 C 23.5825 0.439142 1.81462 0
M  V30 220 C 23.9335 -1.03813 1.66485 0
M  V30 221 O 23.0585 -1.80626 1.19177 0
M  V30 222 C 23.6535 0.790314 3.29453 0
M  V30 223 C 22.2125 0.482111 3.733 0
M  V30 224 C 21.3595 1.01938 2.57883 0
M  V30 225 H 24.3105 0.992254 1.23855 0
M  V30 226 H 24.3315 0.0853677 3.80404 0
M  V30 227 H 23.8435 1.86554 3.40322 0
M  V30 228 H 21.9445 -0.584652 3.67984 0
M  V30 229 H 22.0575 1.01015 4.6833 0
M  V30 230 H 20.4215 0.442043 2.50835 0
M  V30 231 H 21.2045 2.10059 2.71533 0
M  V30 232 N 23.6496 -1.47581 0.552962 0
M  V30 233 C 24.6126 -2.28439 -0.186605 0
M  V30 234 C 25.6126 -1.36706 -0.84665 0
M  V30 235 O 26.8026 -1.59378 -0.703164 0
M  V30 236 C 23.9346 -3.16264 -1.2724 0
M  V30 237 H 25.1276 -2.95294 0.523609 0
M  V30 238 H 22.6806 -1.532 0.309745 0
M  V30 239 H 23.4156 -2.54091 -2.01514 0
M  V30 240 H 23.2006 -3.83769 -0.803968 0
M  V30 241 H 24.6906 -3.77198 -1.79196 0
M  V30 242 N 25.1277 -0.289203 -1.54924 0
M  V30 243 C 26.3757 0.322879 -1.99504 0
M  V30 244 C 26.6967 1.55313 -1.1791 0
M  V30 245 O 25.9667 1.94001 -0.272097 0
M  V30 246 H 24.5467 0.122291 -0.736922 0
M  V30 247 H 27.2087 -0.397802 -1.90797 0
M  V30 248 H 26.3047 0.603061 -3.06218 0
M  V30 249 N 26.6058 1.57591 -0.0167156 0
M  V30 250 C 28.0168 1.79201 0.523834 0
M  V30 251 C 28.3678 0.925796 1.72984 0
M  V30 252 O 27.4928 0.132792 2.15992 0
M  V30 253 C 28.0878 3.25 0.957091 0
M  V30 254 C 26.6468 3.47648 1.44283 0
M  V30 255 C 25.7938 2.74374 0.401757 0
M  V30 256 H 28.7448 1.56831 -0.242816 0
M  V30 257 H 28.7658 3.34031 1.82219 0
M  V30 258 H 28.2778 3.88019 0.0791415 0
M  V30 259 H 26.3788 2.89866 2.34113 0
M  V30 260 H 26.4918 4.56352 1.45877 0
M  V30 261 H 24.8558 2.39485 0.867121 0
M  V30 262 H 25.6388 3.40102 -0.467513 0
M  V30 263 N 28.0839 -0.256276 1.55502 0
M  V30 264 C 29.3299 -0.987079 1.77157 0
M  V30 265 C 29.6629 -1.85327 0.580315 0
M  V30 266 O 28.9379 -1.89874 -0.421686 0
M  V30 267 C 29.2209 -1.85553 3.08613 0
M  V30 268 C 29.0739 -1.01816 4.38125 0
M  V30 269 C 30.3929 -2.8397 3.36228 0
M  V30 270 H 27.5119 -0.357428 0.644526 0
M  V30 271 H 30.1539 -0.258239 1.88237 0
M  V30 272 H 28.3039 -2.47695 2.99298 0
M  V30 273 H 29.9759 -0.416159 4.59419 0
M  V30 274 H 28.2189 -0.322178 4.32602 0
M  V30 275 H 28.8899 -1.65939 5.26468 0
M  V30 276 H 31.3659 -2.31964 3.45445 0
M  V30 277 H 30.2419 -3.41864 4.29442 0
M  V30 278 H 30.5029 -3.59955 2.56681 0
M  V30 279 N 29.562 -1.4872 -0.521534 0
M  V30 280 C 30.808 -1.58378 -1.27624 0
M  V30 281 C 31.163 -0.258028 -1.90662 0
M  V30 282 O 30.456 0.739917 -1.76736 0
M  V30 283 C 30.65 -2.66497 -2.38148 0
M  V30 284 C 30.479 -4.09456 -1.85945 0
M  V30 285 C 29.249 -4.76495 -1.68168 0
M  V30 286 C 31.447 -4.95353 -1.3831 0
M  V30 287 N 29.429 -6.0384 -1.1068 0
M  V30 288 C 30.8 -6.13012 -0.928238 0
M  V30 289 C 32.855 -4.81512 -1.26692 0
M  V30 290 C 31.558 -7.18354 -0.368701 0
M  V30 291 C 33.584 -5.86984 -0.721368 0
M  V30 292 C 32.946 -7.03857 -0.276623 0
M  V30 293 H 29.045 -0.634045 -0.457724 0
M  V30 294 H 31.629 -1.85639 -0.587049 0
M  V30 295 H 29.8 -2.41043 -3.04553 0
M  V30 296 H 31.532 -2.65791 -3.05184 0
M  V30 297 H 28.287 -4.32962 -1.91939 0
M  V30 298 H 28.711 -6.71778 -0.839217 0
M  V30 299 H 33.353 -3.91487 -1.5968 0
M  V30 300 H 31.071 -8.08096 -0.0265122 0
M  V30 301 H 34.657 -5.78329 -0.634531 0
M  V30 302 H 33.537 -7.84077 0.138947 0
M  V30 303 N 31.0401 0.771051 -1.3745 0
M  V30 304 C 32.2681 1.56015 -1.35893 0
M  V30 305 C 32.6831 1.88718 0.0555523 0
M  V30 306 O 32.0401 1.51502 1.01752 0
M  V30 307 C 32.0911 2.87001 -2.19801 0
M  V30 308 O 31.8121 2.557 -3.55738 0
M  V30 309 C 33.3131 3.81228 -2.26231 0
M  V30 310 H 30.5331 0.483317 -0.465453 0
M  V30 311 H 33.0771 0.955611 -1.80799 0
M  V30 312 H 31.2321 3.43877 -1.78402 0
M  V30 313 H 31.6461 3.39584 -3.99729 0
M  V30 314 H 33.1201 4.70139 -2.89263 0
M  V30 315 H 33.5971 4.20409 -1.27093 0
M  V30 316 H 34.2031 3.30281 -2.67945 0
M  V30 317 N 32.5182 1.22032 0.997298 0
M  V30 318 C 33.4812 0.987909 2.06816 0
M  V30 319 C 34.4812 -0.0440084 1.6074 0
M  V30 320 O 35.6712 0.194053 1.73116 0
M  V30 321 C 32.8032 0.49132 3.37341 0
M  V30 322 H 33.9962 1.93803 2.28868 0
M  V30 323 H 31.5492 1.03838 1.16822 0
M  V30 324 H 32.2842 -0.463364 3.20973 0
M  V30 325 H 32.0692 1.23575 3.72118 0
M  V30 326 H 33.5592 0.348824 4.16141 0
M  V30 327 N 33.9963 -1.19345 1.0293 0
M  V30 328 C 35.2423 -1.89318 0.727083 0
M  V30 329 C 35.5753 -1.79446 -0.742483 0
M  V30 330 O 34.8503 -1.1871 -1.54072 0
M  V30 331 C 35.1333 -3.40238 1.17942 0
M  V30 332 C 34.9863 -3.58979 2.71024 0
M  V30 333 C 36.3053 -4.33479 0.760548 0
M  V30 334 H 33.4243 -0.687475 0.265606 0
M  V30 335 H 36.0663 -1.40477 1.2793 0
M  V30 336 H 34.2163 -3.81964 0.709608 0
M  V30 337 H 35.8883 -3.26421 3.25955 0
M  V30 338 H 34.1313 -3.02018 3.11396 0
M  V30 339 H 34.8023 -4.64823 2.9773 0
M  V30 340 H 37.2783 -3.99469 1.16464 0
M  V30 341 H 36.1543 -5.37664 1.10493 0
M  V30 342 H 36.4153 -4.40813 -0.337063 0
M  V30 343 N 35.4744 -0.807222 -1.35358 0
M  V30 344 C 36.7214 -0.387888 -1.9875 0
M  V30 345 C 37.0494 1.04509 -1.64037 0
M  V30 346 O 36.3044 1.73986 -0.895946 0
M  V30 347 C 36.6034 -0.519036 -3.53611 0
M  V30 348 C 36.2694 -1.91542 -4.08194 0
M  V30 349 C 34.9314 -2.29745 -4.22813 0
M  V30 350 C 37.2834 -2.82896 -4.37744 0
M  V30 351 C 34.6114 -3.58668 -4.643 0
M  V30 352 C 36.9634 -4.11265 -4.8067 0
M  V30 353 C 35.6274 -4.49466 -4.93494 0
M  V30 354 H 34.8974 -0.141938 -0.727279 0
M  V30 355 H 37.5444 -1.02814 -1.6156 0
M  V30 356 H 35.8494 0.204658 -3.91265 0
M  V30 357 H 37.5464 -0.175345 -4.00616 0
M  V30 358 H 34.1364 -1.60862 -3.97268 0
M  V30 359 H 38.3204 -2.54629 -4.26002 0
M  V30 360 H 33.5764 -3.88113 -4.72418 0
M  V30 361 H 37.7504 -4.82153 -5.02496 0
M  V30 362 H 35.3774 -5.49418 -5.25399 0
M  V30 363 N 36.9525 1.47285 -0.560781 0
M  V30 364 C 38.2295 1.9558 0.0277798 0
M  V30 365 C 38.6095 1.5034 1.48192 0
M  V30 366 O 37.9575 0.743882 2.16052 0
M  V30 367 C 38.1675 3.48789 -0.121418 0
M  V30 368 C 39.5155 4.24594 0.0220912 0
M  V30 369 O 40.5395 3.56166 -0.0491439 0
M  V30 370 O 39.3985 5.46217 0.175958 0
M  V30 371 H 36.4925 0.824663 0.0621342 0
M  V30 372 H 39.0385 1.5767 -0.627556 0
M  V30 373 H 37.8105 3.74533 -1.13316 0
M  V30 374 H 37.4335 3.93473 0.571366 0
M  V30 375 N 38.4306 0.297415 1.54768 0
M  V30 376 C 39.6606 -0.315165 2.04182 0
M  V30 377 C 40.0686 -1.4834 1.17439 0
M  V30 378 O 39.4116 -1.82695 0.191891 0
M  V30 379 C 39.4736 -0.837583 3.49607 0
M  V30 380 C 39.1376 0.204912 4.5654 0
M  V30 381 C 40.1346 1.03214 5.09552 0
M  V30 382 C 37.8196 0.345578 5.0111 0
M  V30 383 C 39.8136 1.986 6.05671 0
M  V30 384 C 37.5006 1.30289 5.97049 0
M  V30 385 C 38.4986 2.12159 6.49213 0
M  V30 386 O 38.1866 3.06268 7.43273 0
M  V30 387 H 37.9186 -0.0729646 0.672051 0
M  V30 388 H 40.4726 0.433907 2.00765 0
M  V30 389 H 38.7026 -1.63712 3.50336 0
M  V30 390 H 40.3916 -1.36566 3.82236 0
M  V30 391 H 41.1576 0.934312 4.75916 0
M  V30 392 H 37.0366 -0.28171 4.60138 0
M  V30 393 H 40.5806 2.62542 6.46311 0
M  V30 394 H 36.4776 1.40145 6.30103 0
M  V30 395 H 37.2456 3.01205 7.61064 0
M  V30 396 N 39.9087 -1.5758 0.0250728 0
M  V30 397 C 40.8187 -2.1343 -0.973905 0
M  V30 398 C 41.8347 -1.08556 -1.35984 0
M  V30 399 O 43.0107 -1.40592 -1.44207 0
M  V30 400 C 40.0757 -2.64703 -2.23904 0
M  V30 401 C 39.1367 -3.84276 -1.91391 0
M  V30 402 C 38.3697 -4.33095 -3.11873 0
M  V30 403 O 38.5927 -3.81107 -4.24398 0
M  V30 404 O 37.5267 -5.24984 -2.94406 0
M  V30 405 H 41.3527 -2.99057 -0.529036 0
M  V30 406 H 38.9377 -1.48118 -0.195288 0
M  V30 407 H 40.8197 -2.97769 -2.98181 0
M  V30 408 H 39.4947 -1.82161 -2.6758 0
M  V30 409 H 38.4017 -3.56143 -1.14511 0
M  V30 410 H 39.7347 -4.67968 -1.52534 0
M  V30 411 N 41.3868 0.248026 -1.55636 0
M  V30 412 C 42.3498 1.29044 -1.89421 0
M  V30 413 C 43.3498 1.41134 -0.770581 0
M  V30 414 O 44.5398 1.39854 -1.03858 0
M  V30 415 C 41.6718 2.66831 -2.12165 0
M  V30 416 H 42.8648 1.00305 -2.82629 0
M  V30 417 H 40.4178 0.487265 -1.48511 0
M  V30 418 H 41.1528 3.00711 -1.21422 0
M  V30 419 H 40.9378 2.59438 -2.93997 0
M  V30 420 H 42.4278 3.42103 -2.3949 0
M  V30 421 N 42.8649 1.48995 0.513639 0
M  V30 422 C 43.8279 1.64229 1.59879 0
M  V30 423 C 44.8279 0.514696 1.5234 0
M  V30 424 O 46.0179 0.78087 1.55718 0
M  V30 425 C 43.1499 1.62783 2.99524 0
M  V30 426 H 44.3429 2.61004 1.47705 0
M  V30 427 H 41.8959 1.37837 0.736936 0
M  V30 428 H 42.6309 0.675461 3.17188 0
M  V30 429 H 42.4159 2.4466 3.06404 0
M  V30 430 H 43.9059 1.76669 3.78388 0
M  V30 431 N 44.343 -0.763751 1.37857 0
M  V30 432 C 45.591 -1.51957 1.33243 0
M  V30 433 C 45.912 -1.94835 -0.0801709 0
M  V30 434 O 45.182 -1.66894 -1.02582 0
M  V30 435 H 43.762 -0.563626 0.49024 0
M  V30 436 H 46.424 -0.908504 1.7243 0
M  V30 437 H 45.52 -2.41523 1.97669 0
M  V30 438 N 45.8211 -1.22559 -0.990812 0
M  V30 439 C 47.0981 -0.959875 -1.70428 0
M  V30 440 C 47.4781 0.524455 -2.04481 0
M  V30 441 O 46.8261 1.49302 -1.72977 0
M  V30 442 C 47.0361 -1.85955 -2.95333 0
M  V30 443 C 48.3841 -2.11687 -3.68068 0
M  V30 444 O 49.4081 -1.8342 -3.05345 0
M  V30 445 O 48.2671 -2.59572 -4.80921 0
M  V30 446 H 45.3611 -0.361154 -0.743974 0
M  V30 447 H 47.9071 -1.33554 -1.04697 0
M  V30 448 H 46.6791 -2.86346 -2.66687 0
M  V30 449 H 46.3021 -1.4856 -3.68803 0
M  V30 450 N 47.2992 1.18797 -1.03562 0
M  V30 451 C 48.2092 2.25913 -0.632505 0
M  V30 452 C 49.2252 1.70668 0.338882 0
M  V30 453 O 50.4012 2.00453 0.195076 0
M  V30 454 C 47.4662 3.467 0.00350942 0
M  V30 455 C 46.5272 4.17098 -1.01624 0
M  V30 456 C 45.7602 5.32119 -0.410478 0
M  V30 457 O 45.9832 5.64976 0.784725 0
M  V30 458 O 44.9172 5.9107 -1.13667 0
M  V30 459 H 48.7432 2.62648 -1.52478 0
M  V30 460 H 46.3282 1.25781 -0.806195 0
M  V30 461 H 48.2102 4.19878 0.35781 0
M  V30 462 H 46.8852 3.11798 0.869686 0
M  V30 463 H 45.7922 3.4601 -1.42224 0
M  V30 464 H 47.1252 4.55987 -1.85301 0
M  V30 465 N 48.7773 0.814389 1.34928 0
M  V30 466 C 49.6873 0.231978 2.3345 0
M  V30 467 C 50.7033 -0.629139 1.62228 0
M  V30 468 O 51.8793 -0.539052 1.94052 0
M  V30 469 C 48.9443 -0.603482 3.41407 0
M  V30 470 C 48.0053 0.279037 4.28392 0
M  V30 471 C 47.2383 -0.516643 5.31193 0
M  V30 472 O 47.4613 -1.75068 5.4287 0
M  V30 473 O 46.3953 0.0965652 6.01823 0
M  V30 474 H 50.2213 1.04721 2.85074 0
M  V30 475 H 47.8063 0.576343 1.37836 0
M  V30 476 H 49.6883 -1.07908 4.0735 0
M  V30 477 H 48.3633 -1.39618 2.92042 0
M  V30 478 H 47.2703 0.801948 3.65403 0
M  V30 479 H 48.6033 1.03588 4.81176 0
M  V30 480 N 50.2554 -1.46986 0.568584 0
M  V30 481 C 51.1854 -2.32946 -0.160753 0
M  V30 482 C 52.1664 -1.44487 -0.897631 0
M  V30 483 O 53.3514 -1.73327 -0.875867 0
M  V30 484 C 50.4814 -3.26494 -1.18403 0
M  V30 485 C 49.4354 -4.24282 -0.562895 0
M  V30 486 C 48.7614 -5.07236 -1.69163 0
M  V30 487 C 50.0614 -5.19989 0.490761 0
M  V30 488 H 51.7554 -2.94175 0.556916 0
M  V30 489 H 49.3014 -1.4146 0.26927 0
M  V30 490 H 51.2544 -3.85477 -1.70251 0
M  V30 491 H 49.9784 -2.63343 -1.93179 0
M  V30 492 H 48.6374 -3.66541 -0.0656164 0
M  V30 493 H 48.2854 -4.4048 -2.42871 0
M  V30 494 H 47.9854 -5.7345 -1.28174 0
M  V30 495 H 49.5094 -5.6908 -2.21314 0
M  V30 496 H 50.9234 -5.73271 0.0579047 0
M  V30 497 H 49.3204 -5.94469 0.820165 0
M  V30 498 H 50.3904 -4.64777 1.3824 0
M  V30 499 N 51.7335 -0.305618 -1.54608 0
M  V30 500 C 52.9615 0.304775 -2.04643 0
M  V30 501 C 53.3765 1.47167 -1.18268 0
M  V30 502 O 52.7335 1.81296 -0.209328 0
M  V30 503 C 52.7845 0.756564 -3.53495 0
M  V30 504 O 52.5055 -0.36389 -4.36586 0
M  V30 505 C 54.0065 1.43163 -4.19546 0
M  V30 506 H 51.2265 0.0655481 -0.667791 0
M  V30 507 H 53.7705 -0.446592 -1.99564 0
M  V30 508 H 51.9255 1.45794 -3.58919 0
M  V30 509 H 52.3395 -0.0113121 -5.24499 0
M  V30 510 H 53.8135 1.69886 -5.25207 0
M  V30 511 H 54.2905 2.37318 -3.69563 0
M  V30 512 H 54.8965 0.773307 -4.18211 0
M  V30 513 N 53.2116 1.57565 -0.0334293 0
M  V30 514 C 54.1416 2.13511 0.945265 0
M  V30 515 C 55.1226 1.05231 1.33643 0
M  V30 516 O 56.3076 1.33084 1.41429 0
M  V30 517 C 53.4376 2.6657 2.22616 0
M  V30 518 C 52.3916 3.79676 1.97561 0
M  V30 519 C 51.7176 4.1918 3.31952 0
M  V30 520 C 53.0176 5.0557 1.31135 0
M  V30 521 H 54.7116 2.95538 0.479325 0
M  V30 522 H 52.2576 1.42166 0.229115 0
M  V30 523 H 54.2106 3.04344 2.91466 0
M  V30 524 H 52.9346 1.8171 2.71384 0
M  V30 525 H 51.5936 3.42347 1.31127 0
M  V30 526 H 51.2416 3.31296 3.78487 0
M  V30 527 H 50.9416 4.95402 3.15992 0
M  V30 528 H 52.4656 4.59541 4.02063 0
M  V30 529 H 53.8796 5.40903 1.89992 0
M  V30 530 H 52.2766 5.86818 1.25559 0
M  V30 531 H 53.3466 4.84062 0.284894 0
M  V30 532 N 54.6897 -0.239769 1.55765 0
M  V30 533 C 56.1057 -0.588624 1.48349 0
M  V30 534 C 56.3057 -1.88005 0.72502 0
M  V30 535 O 55.3617 -2.51186 0.257269 0
M  V30 536 C 56.6747 -0.68474 2.928 0
M  V30 537 C 58.2227 -0.77659 3.03213 0
M  V30 538 C 58.6977 -0.904207 4.48986 0
M  V30 539 N 60.1887 -0.968896 4.52953 0
M  V30 540 C 60.9237 -1.08703 5.63002 0
M  V30 541 N 60.4197 -1.17026 6.82845 0
M  V30 542 N 62.2127 -1.12074 5.50814 0
M  V30 543 H 54.3637 0.607911 2.03515 0
M  V30 544 H 56.6267 0.21083 0.924259 0
M  V30 545 H 56.3327 0.194284 3.51163 0
M  V30 546 H 56.2067 -1.55435 3.43686 0
M  V30 547 H 58.5937 -1.64606 2.44926 0
M  V30 548 H 58.6747 0.118315 2.55526 0
M  V30 549 H 58.3187 -0.0392633 5.07885 0
M  V30 550 H 58.2487 -1.81426 4.9436 0
M  V30 551 H 60.7397 -0.915633 3.6664 0
M  V30 552 H 61.0527 -1.25966 7.62465 0
M  V30 553 H 59.3977 -1.13971 6.85591 0
M  V30 554 H 62.5887 -1.05226 4.5612 0
M  V30 555 H 62.7617 -1.20936 6.36615 0
M  V30 556 N 56.1678 -1.49265 -0.50573 0
M  V30 557 C 57.5838 -1.35923 -0.836486 0
M  V30 558 C 57.7838 -0.388704 -1.97715 0
M  V30 559 O 56.8398 0.181336 -2.51848 0
M  V30 560 C 58.1528 -2.76531 -1.18115 0
M  V30 561 C 59.7008 -2.85197 -1.28964 0
M  V30 562 C 60.1758 -4.26561 -1.66761 0
M  V30 563 N 61.6668 -4.2935 -1.73819 0
M  V30 564 C 62.4018 -5.35693 -2.045 0
M  V30 565 N 61.8978 -6.52287 -2.33438 0
M  V30 566 N 63.6908 -5.23105 -2.05711 0
M  V30 567 H 55.8418 -2.10965 0.246519 0
M  V30 568 H 58.1048 -0.9468 0.0476887 0
M  V30 569 H 57.8108 -3.49226 -0.416398 0
M  V30 570 H 57.6848 -3.11599 -2.1257 0
M  V30 571 H 60.0718 -2.12742 -2.04511 0
M  V30 572 H 60.1528 -2.53718 -0.325704 0
M  V30 573 H 59.7968 -4.99541 -0.917656 0
M  V30 574 H 59.7268 -4.55502 -2.64246 0
M  V30 575 H 62.2178 -3.4526 -1.53635 0
M  V30 576 H 62.5308 -7.29158 -2.56024 0
M  V30 577 H 60.8758 -6.55521 -2.30905 0
M  V30 578 H 64.0668 -4.31026 -1.82577 0
M  V30 579 H 64.2398 -6.06078 -2.29289 0
M  V30 580 N 57.6459 0.756429 -1.3826 0
M  V30 581 C 58.8939 1.51248 -1.34047 0
M  V30 582 C 59.2149 1.94875 0.0698372 0
M  V30 583 O 58.4849 1.67436 1.01696 0
M  V30 584 H 57.0649 0.561018 -0.493222 0
M  V30 585 H 59.7269 0.899347 -1.7291 0
M  V30 586 H 58.8229 2.40472 -1.98947 0
M  V30 587 N 59.124 1.23083 0.984299 0
M  V30 588 C 60.401 0.9689 1.69917 0
M  V30 589 C 60.781 -0.513604 2.04757 0
M  V30 590 O 60.129 -1.48383 1.73767 0
M  V30 591 C 60.339 1.87518 2.94343 0
M  V30 592 C 61.687 2.13636 3.6694 0
M  V30 593 O 62.711 1.85036 3.04368 0
M  V30 594 O 61.57 2.62119 4.79537 0
M  V30 595 H 58.664 0.365095 0.742048 0
M  V30 596 H 61.21 1.34107 1.03987 0
M  V30 597 H 59.982 2.87756 2.65164 0
M  V30 598 H 59.605 1.50514 3.6801 0
M  V30 599 N 60.6021 -1.18246 1.0419 0
M  V30 600 C 62.0181 -1.40269 0.761366 0
M  V30 601 C 62.2181 -1.90777 -0.648578 0
M  V30 602 O 61.2741 -2.0929 -1.41258 0
M  V30 603 C 62.5871 -2.40237 1.8085 0
M  V30 604 C 64.1351 -2.53961 1.82955 0
M  V30 605 C 64.6101 -3.57194 2.86664 0
M  V30 606 N 66.1011 -3.64702 2.85563 0
M  V30 607 C 66.8361 -4.44309 3.6246 0
M  V30 608 N 66.3321 -5.27514 4.49111 0
M  V30 609 N 68.1251 -4.39084 3.50944 0
M  V30 610 H 60.2761 -0.837882 1.95175 0
M  V30 611 H 62.5391 -0.430608 0.84456 0
M  V30 612 H 62.2451 -2.10176 2.81991 0
M  V30 613 H 62.1191 -3.39601 1.64168 0
M  V30 614 H 64.5061 -2.83338 0.824855 0
M  V30 615 H 64.5871 -1.54706 2.03715 0
M  V30 616 H 64.2311 -3.28558 3.87314 0
M  V30 617 H 64.1611 -4.5613 2.6316 0
M  V30 618 H 66.6521 -3.05289 2.22727 0
M  V30 619 H 66.9651 -5.85411 5.04493 0
M  V30 620 H 65.3101 -5.2693 4.53178 0
M  V30 621 H 68.5011 -3.7313 2.82651 0
M  V30 622 H 68.6741 -5.00883 4.11121 0
M  V30 623 N 62.0802 -0.821533 -1.34494 0
M  V30 624 C 63.3262 -0.409552 -1.98622 0
M  V30 625 C 63.6592 1.0244 -1.64984 0
M  V30 626 O 62.9342 1.71325 -0.920758 0
M  V30 627 C 63.2172 -0.610458 -3.54888 0
M  V30 628 C 63.0702 -2.09043 -3.98273 0
M  V30 629 C 64.3892 -0.0455379 -4.40076 0
M  V30 630 H 61.5082 -0.15028 -0.721516 0
M  V30 631 H 64.1502 -1.03384 -1.59411 0
M  V30 632 H 62.3002 -0.079044 -3.8842 0
M  V30 633 H 63.9722 -2.68537 -3.75081 0
M  V30 634 H 62.2152 -2.58139 -3.48635 0
M  V30 635 H 62.8862 -2.18182 -5.07051 0
M  V30 636 H 65.3622 -0.499557 -4.1309 0
M  V30 637 H 64.2382 -0.215922 -5.48475 0
M  V30 638 H 64.4992 1.04939 -4.29465 0
M  V30 639 N 63.5583 1.46682 -0.576371 0
M  V30 640 C 64.4903 2.28341 0.198231 0
M  V30 641 C 65.5033 1.38141 0.861453 0
M  V30 642 O 66.6923 1.62797 0.732082 0
M  V30 643 C 63.7923 3.12986 1.29972 0
M  V30 644 C 62.9653 4.31271 0.729639 0
M  V30 645 C 62.0243 4.97363 1.71803 0
M  V30 646 O 61.0503 5.55156 1.25658 0
M  V30 647 N 62.2523 4.93796 3.05198 0
M  V30 648 H 65.0173 2.9546 -0.502324 0
M  V30 649 H 62.5783 1.56525 -0.413715 0
M  V30 650 H 64.5703 3.54066 1.96008 0
M  V30 651 H 63.1403 2.47984 1.90323 0
M  V30 652 H 62.3603 3.94052 -0.108012 0
M  V30 653 H 63.6483 5.07739 0.328438 0
M  V30 654 H 63.0463 4.48077 3.45317 0
M  V30 655 H 61.6033 5.38837 3.6674 0
M  V30 656 N 65.0364 0.313813 1.54444 0
M  V30 657 C 66.2824 -0.292108 2.00685 0
M  V30 658 C 66.6154 -1.52548 1.20177 0
M  V30 659 O 65.8904 -1.92452 0.281531 0
M  V30 660 C 66.1734 -0.635968 3.5444 0
M  V30 661 C 66.0264 0.607437 4.4568 0
M  V30 662 C 67.3454 -1.45747 4.15266 0
M  V30 663 H 64.4644 -0.104697 0.729526 0
M  V30 664 H 67.1064 0.428457 1.85106 0
M  V30 665 H 65.2564 -1.24986 3.67846 0
M  V30 666 H 66.9284 1.24581 4.44159 0
M  V30 667 H 65.1714 1.23822 4.15753 0
M  V30 668 H 65.8424 0.322515 5.51057 0
M  V30 669 H 68.3184 -0.938645 4.05375 0
M  V30 670 H 67.1944 -1.66683 5.2298 0
M  V30 671 H 67.4554 -2.45063 3.67963 0
M  V30 672 N 66.5145 -1.57545 0.0417849 0
M  V30 673 C 67.4445 -2.14009 -0.933929 0
M  V30 674 C 68.4255 -1.05938 -1.33083 0
M  V30 675 O 69.6105 -1.33833 -1.40721 0
M  V30 676 C 66.7405 -2.67747 -2.21199 0
M  V30 677 C 65.6945 -3.80718 -1.95544 0
M  V30 678 C 65.0205 -4.20935 -3.29724 0
M  V30 679 C 66.3205 -5.06258 -1.28452 0
M  V30 680 H 68.0145 -2.95788 -0.463645 0
M  V30 681 H 65.5605 -1.42285 -0.221573 0
M  V30 682 H 67.5135 -3.05886 -2.89848 0
M  V30 683 H 66.2375 -1.83147 -2.70416 0
M  V30 684 H 64.8965 -3.43037 -1.2931 0
M  V30 685 H 64.5445 -3.33298 -3.76724 0
M  V30 686 H 64.2445 -4.9707 -3.13361 0
M  V30 687 H 65.7685 -4.61666 -3.9962 0
M  V30 688 H 67.1825 -5.41903 -1.8712 0
M  V30 689 H 65.5795 -5.87475 -1.22445 0
M  V30 690 H 66.6495 -4.84207 -0.259219 0
M  V30 691 N 67.9926 0.231505 -1.5589 0
M  V30 692 C 69.2176 0.978689 -1.82856 0
M  V30 693 C 69.6426 1.77559 -0.620846 0
M  V30 694 O 69.0006 1.76119 0.430305 0
M  V30 695 C 69.0486 1.87997 -3.07716 0
M  V30 696 O 68.1526 2.97393 -2.85712 0
M  V30 697 H 67.4936 0.277663 -0.603158 0
M  V30 698 H 70.0236 0.24783 -2.03093 0
M  V30 699 H 70.0336 2.2917 -3.37558 0
M  V30 700 H 68.7086 1.29417 -3.95252 0
M  V30 701 H 67.2856 2.60238 -2.67078 0
M  V30 702 N 69.4707 1.49531 0.497807 0
M  V30 703 C 70.4027 1.62559 1.61578 0
M  V30 704 C 71.4157 0.508134 1.54667 0
M  V30 705 O 72.6047 0.780309 1.60541 0
M  V30 706 C 69.7047 1.56925 3.00379 0
M  V30 707 C 68.8777 2.84257 3.3244 0
M  V30 708 C 67.9367 2.71632 4.50669 0
M  V30 709 O 66.9627 3.4557 4.52294 0
M  V30 710 N 68.1647 1.83391 5.5077 0
M  V30 711 H 70.9297 2.58981 1.50828 0
M  V30 712 H 68.4907 1.4666 0.685743 0
M  V30 713 H 70.4827 1.46129 3.77397 0
M  V30 714 H 69.0527 0.683483 3.05037 0
M  V30 715 H 68.2727 3.09381 2.44289 0
M  V30 716 H 69.5607 3.68666 3.5066 0
M  V30 717 H 68.9587 1.22583 5.52259 0
M  V30 718 H 67.5157 1.78515 6.26878 0
M  V30 719 N 70.9488 -0.749086 1.3866 0
M  V30 720 C 72.2258 -1.4992 1.25632 0
M  V30 721 C 72.6058 -2.10633 -0.140317 0
M  V30 722 O 71.9538 -1.97437 -1.15025 0
M  V30 723 C 72.1638 -2.56195 2.36992 0
M  V30 724 C 73.5118 -3.22972 2.75634 0
M  V30 725 O 74.5358 -2.66502 2.36337 0
M  V30 726 O 73.3948 -4.25122 3.43415 0
M  V30 727 H 70.4888 -0.665067 0.491544 0
M  V30 728 H 73.0348 -0.784113 1.50498 0
M  V30 729 H 71.8068 -2.09612 3.30422 0
M  V30 730 H 71.4298 -3.35279 2.13714 0
M  V30 731 N 72.4269 -1.23603 -0.977757 0
M  V30 732 C 73.6669 -1.08148 -1.73446 0
M  V30 733 C 74.0309 0.374785 -1.88307 0
M  V30 734 O 75.2319 0.650588 -2.60808 0
M  V30 735 C 73.5029 -1.78991 -3.0935 0
M  V30 736 S 75.0619 -1.79141 -4.00567 0
M  V30 737 H 71.8799 -0.386987 -0.596458 0
M  V30 738 H 74.4819 -1.5678 -1.16792 0
M  V30 739 H 73.1859 -2.8408 -2.96187 0
M  V30 740 H 72.7169 -1.30651 -3.71071 0
M  V30 741 H 74.7319 -0.851892 -4.88833 0
M  V30 742 N 73.905 1.17692 -1.04816 0
M  V30 743 C 74.868 2.19787 -0.650117 0
M  V30 744 C 75.868 1.58044 0.296427 0
M  V30 745 O 77.058 1.74012 0.0808097 0
M  V30 746 C 74.19 3.40869 0.0456987 0
M  V30 747 H 75.383 2.56516 -1.5537 0
M  V30 748 H 72.936 1.31708 -0.841594 0
M  V30 749 H 73.671 3.09681 0.962726 0
M  V30 750 H 73.456 3.86928 -0.634727 0
M  V30 751 H 74.946 4.16445 0.310432 0
M  V30 752 N 75.3831 0.828654 1.34056 0
M  V30 753 C 76.6291 0.42008 1.98402 0
M  V30 754 C 76.9621 -1.01564 1.65525 0
M  V30 755 O 76.2371 -1.70834 0.929831 0
M  V30 756 C 76.5201 0.62927 3.54559 0
M  V30 757 C 76.3731 2.11152 3.97159 0
M  V30 758 C 77.6921 0.0688756 4.40046 0
M  V30 759 H 74.8111 0.154104 0.720709 0
M  V30 760 H 77.4531 1.04228 1.5886 0
M  V30 761 H 75.6031 0.0996418 3.88372 0
M  V30 762 H 77.2751 2.70522 3.73651 0
M  V30 763 H 75.5181 2.59985 3.47261 0
M  V30 764 H 76.1891 2.20868 5.05887 0
M  V30 765 H 78.6651 0.521458 4.1282 0
M  V30 766 H 77.5411 0.245006 5.48353 0
M  V30 767 H 77.8021 -1.0266 4.30015 0
M  V30 768 N 76.8612 -1.46375 0.584142 0
M  V30 769 C 78.0862 -2.07268 0.0740405 0
M  V30 770 C 78.5112 -1.42979 -1.22223 0
M  V30 771 O 77.8692 -0.514092 -1.73859 0
M  V30 772 C 77.9172 -3.60518 -0.0767769 0
M  V30 773 O 77.0212 -3.96533 -1.13292 0
M  V30 774 H 76.3622 -0.660961 0.0634524 0
M  V30 775 H 78.8922 -1.87991 0.807492 0
M  V30 776 H 78.9022 -4.07021 -0.282489 0
M  V30 777 H 77.5772 -4.06702 0.86986 0
M  V30 778 H 76.1542 -3.61738 -0.905553 0
M  V30 779 N 78.3393 -0.321999 -1.54275 0
M  V30 780 C 79.5873 0.280489 -2.00144 0
M  V30 781 C 79.9083 1.52777 -1.21178 0
M  V30 782 O 79.1783 1.9338 -0.313187 0
M  V30 783 H 77.7583 0.106632 -0.73935 0
M  V30 784 H 80.4203 -0.438184 -1.8991 0
M  V30 785 H 79.5163 0.537972 -3.07428 0
M  V30 786 N 79.8174 1.5752 -0.0501392 0
M  V30 787 C 81.0944 1.83996 0.663685 0
M  V30 788 C 81.4744 0.938339 1.89099 0
M  V30 789 O 80.8224 -0.00087759 2.285 0
M  V30 790 C 81.0324 3.33702 1.02196 0
M  V30 791 C 82.3804 4.00691 1.40469 0
M  V30 792 O 83.4044 3.38321 1.11433 0
M  V30 793 O 82.2634 5.10658 1.94654 0
M  V30 794 H 79.3574 0.759385 0.32751 0
M  V30 795 H 81.9034 1.69514 -0.0794238 0
M  V30 796 H 80.6754 3.91015 0.149364 0
M  V30 797 H 80.2984 3.53368 1.82255 0
M  V30 798 N 81.2955 -0.223234 1.56011 0
M  V30 799 C 82.2055 -1.29766 1.95443 0
M  V30 800 C 83.2215 -1.51373 0.858028 0
M  V30 801 O 84.3975 -1.64536 1.16146 0
M  V30 802 C 81.4625 -2.62772 2.26167 0
M  V30 803 C 80.5235 -2.49482 3.49367 0
M  V30 804 C 79.7565 -3.76145 3.78616 0
M  V30 805 O 79.9795 -4.79087 3.09568 0
M  V30 806 O 78.9135 -3.73358 4.72109 0
M  V30 807 H 82.7395 -0.99309 2.87004 0
M  V30 808 H 80.3245 -0.425958 1.43199 0
M  V30 809 H 82.2065 -3.41327 2.47131 0
M  V30 810 H 80.8815 -2.92913 1.37781 0
M  V30 811 H 79.7885 -1.69133 3.33684 0
M  V30 812 H 81.1215 -2.2428 4.38131 0
M  V30 813 N 82.7736 -1.49793 -0.48987 0
M  V30 814 C 84.0216 -1.59525 -1.24081 0
M  V30 815 C 84.3426 -0.288953 -1.92847 0
M  V30 816 O 83.6126 0.692436 -1.83254 0
M  V30 817 H 82.1926 -0.587796 -0.460983 0
M  V30 818 H 84.8546 -1.86477 -0.566778 0
M  V30 819 H 83.9506 -2.39696 -1.99881 0
M  V30 820 N 84.2517 0.741722 -1.39055 0
M  V30 821 C 85.4977 1.50234 -1.37118 0
M  V30 822 C 85.8527 1.92368 0.0350439 0
M  V30 823 O 85.1457 1.63422 1.00019 0
M  V30 824 C 85.3397 2.7592 -2.27163 0
M  V30 825 C 85.1687 2.46074 -3.76401 0
M  V30 826 C 83.9387 2.38704 -4.45364 0
M  V30 827 C 86.1367 2.12062 -4.68545 0
M  V30 828 N 84.1187 2.01258 -5.79973 0
M  V30 829 C 85.4897 1.85005 -5.91754 0
M  V30 830 C 87.5447 1.98473 -4.56632 0
M  V30 831 C 86.2477 1.4573 -7.04383 0
M  V30 832 C 88.2737 1.60599 -5.69176 0
M  V30 833 C 87.6357 1.34423 -6.91455 0
M  V30 834 H 83.7347 0.548858 -0.557027 0
M  V30 835 H 86.3187 0.862642 -1.74547 0
M  V30 836 H 84.4897 3.3768 -1.91904 0
M  V30 837 H 86.2217 3.42068 -2.16267 0
M  V30 838 H 82.9767 2.55574 -3.98721 0
M  V30 839 H 83.4007 1.85147 -6.51191 0
M  V30 840 H 88.0427 2.17381 -3.62637 0
M  V30 841 H 85.7607 1.25562 -7.98286 0
M  V30 842 H 89.3467 1.507 -5.61944 0
M  V30 843 H 88.2267 1.05555 -7.77064 0
M  V30 844 N 85.7298 1.2412 0.971189 0
M  V30 845 C 86.9758 1.09048 1.71698 0
M  V30 846 C 87.3308 -0.367442 1.88859 0
M  V30 847 O 86.6238 -1.26792 1.43646 0
M  V30 848 C 86.8178 1.75983 3.11071 0
M  V30 849 C 86.6468 3.28133 3.07504 0
M  V30 850 C 85.4168 3.97331 3.1218 0
M  V30 851 C 87.6148 4.24773 2.89952 0
M  V30 852 N 85.5968 5.3639 2.98596 0
M  V30 853 C 86.9678 5.50806 2.84627 0
M  V30 854 C 89.0228 4.15392 2.74506 0
M  V30 855 C 87.7258 6.68533 2.65437 0
M  V30 856 C 89.7518 5.32793 2.56682 0
M  V30 857 C 89.1138 6.57756 2.52063 0
M  V30 858 H 85.2128 0.453632 0.636979 0
M  V30 859 H 87.7968 1.56983 1.15171 0
M  V30 860 H 85.9678 1.30566 3.65796 0
M  V30 861 H 87.6998 1.53803 3.74335 0
M  V30 862 H 84.4548 3.48473 3.20724 0
M  V30 863 H 84.8788 6.09321 2.95054 0
M  V30 864 H 89.5208 3.19543 2.76861 0
M  V30 865 H 87.2388 7.64509 2.61825 0
M  V30 866 H 90.8248 5.27383 2.4568 0
M  V30 867 H 89.7048 7.4707 2.38446 0
M  V30 868 N 87.2079 -1.17134 1.05439 0
M  V30 869 C 88.4359 -1.91372 0.786414 0
M  V30 870 C 88.8509 -1.76955 -0.658202 0
M  V30 871 O 88.2079 -1.10838 -1.44987 0
M  V30 872 C 88.2589 -3.42356 1.1608 0
M  V30 873 O 87.9799 -3.56332 2.54871 0
M  V30 874 C 89.4809 -4.33663 0.919322 0
M  V30 875 H 86.7009 -0.607118 0.285743 0
M  V30 876 H 89.2449 -1.48525 1.40572 0
M  V30 877 H 87.3999 -3.82939 0.586191 0
M  V30 878 H 87.8139 -4.49896 2.69618 0
M  V30 879 H 89.2879 -5.38099 1.231 0
M  V30 880 H 89.7649 -4.38959 -0.145359 0
M  V30 881 H 90.3709 -3.98796 1.47789 0
M  V30 882 N 88.686 -0.835752 -1.33615 0
M  V30 883 C 89.934 -0.429109 -1.97492 0
M  V30 884 C 90.255 1.01433 -1.66543 0
M  V30 885 O 89.525 1.70611 -0.962744 0
M  V30 886 H 88.105 -0.155686 -0.730596 0
M  V30 887 H 90.767 -1.06802 -1.63031 0
M  V30 888 H 89.863 -0.55861 -3.0706 0
M  V30 889 N 90.1641 1.46063 -0.591896 0
M  V30 890 C 91.0961 2.28539 0.174001 0
M  V30 891 C 92.1091 1.39047 0.846753 0
M  V30 892 O 93.2981 1.63564 0.714774 0
M  V30 893 C 90.3981 3.14347 1.26645 0
M  V30 894 C 89.5711 4.32021 0.683856 0
M  V30 895 C 88.6301 4.99157 1.66518 0
M  V30 896 O 87.6561 5.56458 1.19763 0
M  V30 897 N 88.8581 4.97005 2.99943 0
M  V30 898 H 91.6231 2.94911 -0.533633 0
M  V30 899 H 89.1841 1.56077 -0.430294 0
M  V30 900 H 91.1761 3.56125 1.92242 0
M  V30 901 H 89.7461 2.49988 1.87682 0
M  V30 902 H 88.9661 3.93915 -0.1498 0
M  V30 903 H 90.2541 5.08059 0.274567 0
M  V30 904 H 89.6521 4.51714 3.40545 0
M  V30 905 H 88.2091 5.42696 3.61004 0
M  V30 906 N 91.6422 0.330177 1.54103 0
M  V30 907 C 92.5722 -0.525353 2.27513 0
M  V30 908 C 93.5532 -1.11383 1.2856 0
M  V30 909 O 94.7382 -1.13773 1.57383 0
M  V30 910 C 91.8682 -1.6831 3.03791 0
M  V30 911 C 90.8222 -1.2236 4.10137 0
M  V30 912 C 90.1482 -2.46882 4.74293 0
M  V30 913 C 91.4482 -0.333697 5.21233 0
M  V30 914 H 93.1422 0.087013 2.99274 0
M  V30 915 H 90.6882 0.0432893 1.43935 0
M  V30 916 H 92.6412 -2.28795 3.5388 0
M  V30 917 H 91.3652 -2.32216 2.29659 0
M  V30 918 H 90.0242 -0.64165 3.60941 0
M  V30 919 H 89.6722 -3.09165 3.96769 0
M  V30 920 H 89.3722 -2.16825 5.46133 0
M  V30 921 H 90.8962 -3.08117 5.27159 0
M  V30 922 H 92.3102 -0.845013 5.67038 0
M  V30 923 H 90.7072 -0.125612 5.99969 0
M  V30 924 H 91.7772 0.633724 4.80741 0
M  V30 925 N 93.1203 -1.57491 0.0584922 0
M  V30 926 C 94.5313 -1.80526 -0.476138 0
M  V30 927 C 94.8823 -0.971334 -1.70469 0
M  V30 928 O 94.0073 -0.190012 -2.15564 0
M  V30 929 C 94.6023 -3.27424 -0.870587 0
M  V30 930 C 93.1613 -3.51351 -1.35015 0
M  V30 931 C 92.3083 -2.75343 -0.32887 0
M  V30 932 H 95.2593 -1.56133 0.284312 0
M  V30 933 H 95.2803 -3.38745 -1.73299 0
M  V30 934 H 94.7923 -3.88093 0.0237627 0
M  V30 935 H 92.8933 -2.95971 -2.26345 0
M  V30 936 H 93.0063 -4.60059 -1.33726 0
M  V30 937 H 91.3703 -2.417 -0.803321 0
M  V30 938 H 92.1533 -3.38743 0.557521 0
M  V30 939 N 94.5984 0.214957 -1.56127 0
M  V30 940 C 95.8234 0.95924 -1.83884 0
M  V30 941 C 96.2484 1.7689 -0.639644 0
M  V30 942 O 95.6064 1.76566 0.411601 0
M  V30 943 C 95.6544 1.84723 -3.09693 0
M  V30 944 O 94.7584 2.94346 -2.8885 0
M  V30 945 H 94.0994 0.27125 -0.606069 0
M  V30 946 H 96.6294 0.226276 -2.03345 0
M  V30 947 H 96.6394 2.25576 -3.39969 0
M  V30 948 H 95.3144 1.25218 -3.96602 0
M  V30 949 H 93.8914 2.57391 -2.69823 0
M  V30 950 N 96.0765 1.50051 0.48192 0
M  V30 951 C 97.3245 1.60181 1.23234 0
M  V30 952 C 97.6455 0.299176 1.92691 0
M  V30 953 O 96.9155 -0.682708 1.83619 0
M  V30 954 H 95.4955 0.590232 0.457859 0
M  V30 955 H 98.1575 1.86775 0.556881 0
M  V30 956 H 97.2535 2.40753 1.98607 0
M  V30 957 N 97.5546 -0.734337 1.39446 0
M  V30 958 C 98.9706 -1.03997 1.21065 0
M  V30 959 C 99.1706 -2.01369 0.0727019 0
M  V30 960 O 98.2266 -2.45856 -0.575426 0
M  V30 961 C 99.5396 -1.60163 2.54496 0
M  V30 962 C 101.088 -1.7224 2.61347 0
M  V30 963 C 101.563 -2.31814 3.95002 0
M  V30 964 N 103.054 -2.39223 3.96644 0
M  V30 965 C 103.789 -2.86258 4.96834 0
M  V30 966 N 103.285 -3.33184 6.07421 0
M  V30 967 N 105.078 -2.85473 4.84213 0
M  V30 968 H 97.2286 -0.0885624 2.12215 0
M  V30 969 H 99.4916 -0.10191 0.942506 0
M  V30 970 H 99.1976 -0.960811 3.38321 0
M  V30 971 H 99.0716 -2.5896 2.74262 0
M  V30 972 H 101.459 -2.35443 1.77906 0
M  V30 973 H 101.54 -0.720939 2.4543 0
M  V30 974 H 101.184 -1.69238 4.78875 0
M  V30 975 H 101.114 -3.32638 4.08239 0
M  V30 976 H 103.605 -2.06057 3.16779 0
M  V30 977 H 103.918 -3.67586 6.7978 0
M  V30 978 H 102.263 -3.31191 6.11013 0
M  V30 979 H 105.454 -2.48136 3.96921 0
M  V30 980 H 105.627 -3.21814 5.62441 0
M  V30 981 N 99.0327 -1.24633 -0.964593 0
M  V30 982 C 100.279 -1.08949 -1.71049 0
M  V30 983 C 100.612 0.370302 -1.90637 0
M  V30 984 O 99.8867 1.27349 -1.47011 0
M  V30 985 C 100.17 -1.83329 -3.0994 0
M  V30 986 C 100.023 -3.37077 -2.97824 0
M  V30 987 C 101.342 -1.60846 -4.09654 0
M  V30 988 H 98.4607 -0.397178 -0.620821 0
M  V30 989 H 101.103 -1.5334 -1.12191 0
M  V30 990 H 99.2527 -1.45597 -3.60186 0
M  V30 991 H 100.925 -3.84425 -2.5498 0
M  V30 992 H 99.1677 -3.65298 -2.33965 0
M  V30 993 H 99.8387 -3.84324 -3.96231 0
M  V30 994 H 102.315 -1.93674 -3.68279 0
M  V30 995 H 101.191 -2.1534 -5.04896 0
M  V30 996 H 101.452 -0.547434 -4.38698 0
M  V30 997 N 100.511 1.16574 -1.06058 0
M  V30 998 C 101.759 1.86677 -0.77434 0
M  V30 999 C 102.08 1.81959 0.701147 0
M  V30 1000 O 101.35 1.2515 1.50713 0
M  V30 1001 H 99.9298 0.691134 -0.283449 0
M  V30 1002 H 102.592 1.41378 -1.34158 0
M  V30 1003 H 101.688 2.92181 -1.09711 0
M  V30 1004 N 101.989 0.842826 1.3317 0
M  V30 1005 C 103.235 0.441099 1.97945 0
M  V30 1006 C 103.568 -0.998024 1.66593 0
M  V30 1007 O 102.843 -1.69839 0.947898 0
M  V30 1008 C 103.126 0.666841 3.53872 0
M  V30 1009 C 102.979 2.15352 3.94897 0
M  V30 1010 C 104.298 0.115544 4.39948 0
M  V30 1011 H 101.417 0.161739 0.719034 0
M  V30 1012 H 104.059 1.05907 1.57746 0
M  V30 1013 H 102.209 0.140828 3.88245 0
M  V30 1014 H 103.881 2.7447 3.70761 0
M  V30 1015 H 102.124 2.63653 3.44484 0
M  V30 1016 H 102.795 2.26221 5.03516 0
M  V30 1017 H 105.271 0.565213 4.12243 0
M  V30 1018 H 104.147 0.303152 5.48062 0
M  V30 1019 H 104.408 -0.980935 4.3108 0
M  V30 1020 N 103.467 -1.45747 0.599634 0
M  V30 1021 C 104.714 -2.02292 0.0917284 0
M  V30 1022 C 105.042 -1.46906 -1.27472 0
M  V30 1023 O 104.297 -0.630652 -1.8526 0
M  V30 1024 C 104.596 -3.57399 -0.00602758 0
M  V30 1025 C 104.262 -4.31902 1.29503 0
M  V30 1026 C 102.924 -4.51974 1.65144 0
M  V30 1027 C 105.276 -4.74551 2.15525 0
M  V30 1028 C 102.604 -5.11949 2.86574 0
M  V30 1029 C 104.956 -5.35868 3.36196 0
M  V30 1030 C 103.62 -5.54165 3.72099 0
M  V30 1031 H 102.89 -0.740239 0.0335658 0
M  V30 1032 H 105.537 -1.7491 0.779661 0
M  V30 1033 H 103.842 -3.84014 -0.777183 0
M  V30 1034 H 105.539 -3.98846 -0.415038 0
M  V30 1035 H 102.129 -4.16588 1.00761 0
M  V30 1036 H 106.313 -4.58784 1.8929 0
M  V30 1037 H 101.569 -5.24305 3.14507 0
M  V30 1038 H 105.743 -5.6787 4.03109 0
M  V30 1039 H 103.37 -6.00406 4.6628 0
M  V30 1040 N 104.945 -0.338344 -1.53925 0
M  V30 1041 C 106.356 0.146651 -1.86123 0
M  V30 1042 C 106.707 1.5042 -1.2597 0
M  V30 1043 O 105.832 2.08723 -0.571294 0
M  V30 1044 C 106.427 0.272879 -3.37699 0
M  V30 1045 C 104.986 0.702103 -3.69794 0
M  V30 1046 C 104.133 -0.167304 -2.76795 0
M  V30 1047 H 107.084 -0.558123 -1.48562 0
M  V30 1048 H 107.105 1.10128 -3.64214 0
M  V30 1049 H 106.617 -0.715307 -3.81451 0
M  V30 1050 H 104.718 1.6995 -3.31584 0
M  V30 1051 H 104.831 0.495604 -4.7653 0
M  V30 1052 H 103.195 0.359527 -2.5215 0
M  V30 1053 H 103.978 -1.15253 -3.23375 0
M  V30 1054 N 106.423 1.57458 -0.0668435 0
M  V30 1055 C 107.648 1.9804 0.616027 0
M  V30 1056 C 108.073 0.944771 1.62652 0
M  V30 1057 O 107.431 -0.0902094 1.81075 0
M  V30 1058 C 107.479 3.37665 1.26549 0
M  V30 1059 O 106.583 3.36701 2.38131 0
M  V30 1060 H 105.924 0.644719 0.158849 0
M  V30 1061 H 108.454 2.04121 -0.139891 0
M  V30 1062 H 108.464 3.7474 1.6135 0
M  V30 1063 H 107.139 4.12573 0.525016 0
M  V30 1064 H 105.716 3.1139 2.0516 0
M  V30 1065 N 107.901 -0.206675 1.56239 0
M  V30 1066 C 108.849 -1.27571 1.94495 0
M  V30 1067 C 109.843 -1.47737 0.828862 0
M  V30 1068 O 111.049 -1.48735 1.0138 0
M  V30 1069 H 107.424 -0.428029 0.6183 0
M  V30 1070 H 109.395 -0.925961 2.8367 0
M  V30 1071 C 108.144 -2.61568 2.29079 0
M  V30 1072 H 107.467 -2.46863 3.14482 0
M  V30 1073 H 108.907 -3.35144 2.5972 0
M  V30 1074 C 107.366 -3.17695 1.12123 0
M  V30 1075 O 107.896 -3.99801 0.390153 0
M  V30 1076 N 106.102 -2.76276 0.901097 0
M  V30 1077 H 105.649 -2.09613 1.49733 0
M  V30 1078 H 105.607 -3.1417 0.120319 0
M  V30 1079 N 109.379 -1.50304 -0.473955 0
M  V30 1080 C 110.609 -1.64663 -1.24778 0
M  V30 1081 C 111.017 -0.328174 -1.86332 0
M  V30 1082 O 110.36 0.699536 -1.69859 0
M  V30 1083 C 110.422 -2.6778 -2.39863 0
M  V30 1084 C 110.086 -4.11413 -1.98969 0
M  V30 1085 C 111.083 -4.97372 -1.51385 0
M  V30 1086 C 108.768 -4.57312 -2.07777 0
M  V30 1087 C 110.762 -6.27277 -1.13148 0
M  V30 1088 C 108.449 -5.87223 -1.69152 0
M  V30 1089 C 109.447 -6.72031 -1.21915 0
M  V30 1090 O 109.135 -7.99518 -0.838237 0
M  V30 1091 H 108.867 -0.556602 -0.383627 0
M  V30 1092 H 111.421 -1.9726 -0.572491 0
M  V30 1093 H 109.651 -2.30419 -3.10554 0
M  V30 1094 H 111.34 -2.71388 -3.01833 0
M  V30 1095 H 112.106 -4.63128 -1.44004 0
M  V30 1096 H 107.985 -3.91449 -2.43493 0
M  V30 1097 H 111.529 -6.93425 -0.762077 0
M  V30 1098 H 107.426 -6.20989 -1.76191 0
M  V30 1099 H 108.194 -8.12764 -0.967339 0
M  V30 1100 N 110.857 0.726932 -1.39834 0
M  V30 1101 C 112.103 1.48884 -1.377 0
M  V30 1102 C 112.436 1.94185 0.0244852 0
M  V30 1103 O 111.711 1.67361 0.990986 0
M  V30 1104 C 111.994 2.72288 -2.3565 0
M  V30 1105 C 111.847 2.32956 -3.84775 0
M  V30 1106 C 113.166 3.74414 -2.31306 0
M  V30 1107 H 110.285 0.540062 -0.5015 0
M  V30 1108 H 112.927 0.830547 -1.70886 0
M  V30 1109 H 111.077 3.28457 -2.07481 0
M  V30 1110 H 112.749 1.82356 -4.23726 0
M  V30 1111 H 110.992 1.65088 -4.01159 0
M  V30 1112 H 111.663 3.21362 -4.4881 0
M  V30 1113 H 114.139 3.27849 -2.56231 0
M  V30 1114 H 113.015 4.58414 -3.01907 0
M  V30 1115 H 113.276 4.21909 -1.32081 0
M  V30 1116 N 112.336 1.25143 0.95797 0
M  V30 1117 C 113.299 1.05321 2.03569 0
M  V30 1118 C 114.299 0.007152 1.60798 0
M  V30 1119 O 115.489 0.24903 1.72411 0
M  V30 1120 C 112.621 0.598394 3.35607 0
M  V30 1121 H 113.814 2.00986 2.22586 0
M  V30 1122 H 111.367 1.07502 1.13459 0
M  V30 1123 H 112.102 -0.361014 3.22284 0
M  V30 1124 H 111.887 1.35351 3.67998 0
M  V30 1125 H 113.377 0.48104 4.1482 0
M  V30 1126 N 113.814 -1.1601 1.06675 0
M  V30 1127 C 115.225 -1.68235 0.809565 0
M  V30 1128 C 115.576 -1.8454 -0.666303 0
M  V30 1129 O 114.701 -1.54374 -1.5165 0
M  V30 1130 C 115.296 -3.05585 1.46299 0
M  V30 1131 C 113.855 -3.54915 1.25349 0
M  V30 1132 C 113.002 -2.30804 1.53703 0
M  V30 1133 H 115.953 -1.00318 1.22971 0
M  V30 1134 H 115.974 -3.70174 0.880431 0
M  V30 1135 H 115.486 -2.93686 2.53713 0
M  V30 1136 H 113.587 -3.72067 0.199261 0
M  V30 1137 H 113.7 -4.36774 1.9689 0
M  V30 1138 H 112.064 -2.36007 0.957739 0
M  V30 1139 H 112.847 -2.21499 2.62284 0
M  V30 1140 N 115.292 -0.849877 -1.32721 0
M  V30 1141 C 116.54 -0.450032 -1.97026 0
M  V30 1142 C 116.861 0.996604 -1.67609 0
M  V30 1143 O 116.131 1.6958 -0.980786 0
M  V30 1144 H 114.711 -0.163426 -0.728904 0
M  V30 1145 H 117.373 -1.08526 -1.6189 0
M  V30 1146 H 116.469 -0.591146 -3.0645 0
M  V30 1147 N 116.77 1.45427 -0.607355 0
M  V30 1148 C 117.733 2.28974 0.101693 0
M  V30 1149 C 118.733 1.39754 0.795329 0
M  V30 1150 O 119.923 1.61878 0.643527 0
M  V30 1151 C 117.055 3.20768 1.15414 0
M  V30 1152 H 118.248 2.93147 -0.632844 0
M  V30 1153 H 115.801 1.51945 -0.366391 0
M  V30 1154 H 116.536 2.61395 1.91945 0
M  V30 1155 H 116.321 3.86489 0.66098 0
M  V30 1156 H 117.811 3.83589 1.65073 0
M  V30 1157 N 118.248 0.346503 1.53744 0
M  V30 1158 C 119.659 -0.136779 1.86198 0
M  V30 1159 C 120.01 -1.49749 1.26766 0
M  V30 1160 O 119.135 -2.08417 0.582355 0
M  V30 1161 C 119.73 -0.254966 3.37839 0
M  V30 1162 C 118.289 -0.682482 3.70161 0
M  V30 1163 C 117.436 0.181981 2.76702 0
M  V30 1164 H 120.387 0.565994 1.48264 0
M  V30 1165 H 120.408 -1.08195 3.64793 0
M  V30 1166 H 119.92 0.735526 3.81066 0
M  V30 1167 H 118.021 -1.68189 3.3248 0
M  V30 1168 H 118.134 -0.470326 4.76786 0
M  V30 1169 H 116.498 -0.34615 2.52337 0
M  V30 1170 H 117.281 1.16966 3.2276 0
M  V30 1171 N 119.726 -1.57421 0.075193 0
M  V30 1172 C 120.689 -2.11791 -0.876203 0
M  V30 1173 C 121.689 -1.04268 -1.22412 0
M  V30 1174 O 122.879 -1.30242 -1.15684 0
M  V30 1175 C 120.011 -2.62207 -2.17854 0
M  V30 1176 H 121.204 -2.9716 -0.40444 0
M  V30 1177 H 118.757 -1.55333 -0.173557 0
M  V30 1178 H 119.492 -1.803 -2.6956 0
M  V30 1179 H 119.277 -3.40802 -1.93897 0
M  V30 1180 H 120.767 -3.04335 -2.85955 0
M  V30 1181 N 121.204 0.198386 -1.56346 0
M  V30 1182 C 122.167 1.22952 -1.93431 0
M  V30 1183 C 123.167 1.38611 -0.815092 0
M  V30 1184 O 124.357 1.36479 -1.08255 0
M  V30 1185 C 121.489 2.59946 -2.20546 0
M  V30 1186 H 122.682 0.912626 -2.85677 0
M  V30 1187 H 120.235 0.43977 -1.49986 0
M  V30 1188 H 120.97 2.96696 -1.30927 0
M  V30 1189 H 120.755 2.49953 -3.02102 0
M  V30 1190 H 122.245 3.3431 -2.50253 0
M  V30 1191 N 122.682 1.50554 0.465978 0
M  V30 1192 C 124.093 1.54599 1.04671 0
M  V30 1193 C 124.444 0.352488 1.93008 0
M  V30 1194 O 123.569 -0.534044 2.09707 0
M  V30 1195 C 124.164 2.80166 1.90505 0
M  V30 1196 C 122.723 2.86876 2.43678 0
M  V30 1197 C 121.87 2.48947 1.22151 0
M  V30 1198 H 124.821 1.56744 0.248384 0
M  V30 1199 H 124.842 2.62311 2.75633 0
M  V30 1200 H 124.354 3.67013 1.26186 0
M  V30 1201 H 122.455 2.04393 3.11536 0
M  V30 1202 H 122.568 3.89885 2.78436 0
M  V30 1203 H 120.932 2.01498 1.5579 0
M  V30 1204 H 121.715 3.38107 0.594866 0
M  V30 1205 N 124.16 -0.719506 1.40217 0
M  V30 1206 C 125.123 -1.8153 1.39927 0
M  V30 1207 C 126.123 -1.58095 0.293723 0
M  V30 1208 O 127.313 -1.65209 0.552429 0
M  V30 1209 C 124.445 -3.19561 1.18716 0
M  V30 1210 H 125.638 -1.83186 2.37451 0
M  V30 1211 H 123.191 -0.924746 1.26008 0
M  V30 1212 H 123.926 -3.23557 0.219366 0
M  V30 1213 H 123.711 -3.3797 1.98793 0
M  V30 1214 H 125.201 -3.99598 1.21291 0
M  V30 1215 N 125.638 -1.25649 -0.95132 0
M  V30 1216 C 126.886 -1.10375 -1.69298 0
M  V30 1217 C 127.207 0.355339 -1.91735 0
M  V30 1218 O 126.477 1.25188 -1.50681 0
M  V30 1219 H 125.057 -0.405461 -0.627384 0
M  V30 1220 H 127.719 -1.57823 -1.14358 0
M  V30 1221 H 126.815 -1.61465 -2.67087 0
M  V30 1222 N 127.117 1.15442 -1.07289 0
M  V30 1223 C 128.047 2.22312 -0.714107 0
M  V30 1224 C 129.028 1.67467 0.298155 0
M  V30 1225 O 130.213 1.93445 0.171048 0
M  V30 1226 C 127.343 3.47124 -0.110448 0
M  V30 1227 C 126.297 4.14926 -1.04979 0
M  V30 1228 C 125.623 5.33807 -0.308924 0
M  V30 1229 C 126.923 4.64762 -2.38314 0
M  V30 1230 H 128.617 2.5258 -1.6076 0
M  V30 1231 H 126.163 1.21404 -0.77441 0
M  V30 1232 H 128.116 4.21124 0.152482 0
M  V30 1233 H 126.84 3.16187 0.81812 0
M  V30 1234 H 125.499 3.42866 -1.29764 0
M  V30 1235 H 125.147 4.99126 0.623084 0
M  V30 1236 H 124.847 5.80113 -0.935036 0
M  V30 1237 H 126.371 6.10576 -0.0537771 0
M  V30 1238 H 127.785 5.30292 -2.1786 0
M  V30 1239 H 126.182 5.21728 -2.96514 0
M  V30 1240 H 127.252 3.80434 -3.00663 0
M  V30 1241 N 128.595 0.856903 1.32268 0
M  V30 1242 C 129.527 0.260412 2.27716 0
M  V30 1243 C 130.54 -0.569137 1.52528 0
M  V30 1244 O 131.729 -0.39326 1.74114 0
M  V30 1245 C 128.829 -0.650477 3.32599 0
M  V30 1246 C 128.002 0.14372 4.37164 0
M  V30 1247 C 127.061 -0.69328 5.21613 0
M  V30 1248 O 126.087 -0.12599 5.69061 0
M  V30 1249 N 127.289 -2.00761 5.44679 0
M  V30 1250 H 130.054 1.08059 2.79541 0
M  V30 1251 H 127.615 0.717103 1.45152 0
M  V30 1252 H 129.607 -1.21581 3.86005 0
M  V30 1253 H 128.177 -1.37133 2.80915 0
M  V30 1254 H 127.397 0.890486 3.8401 0
M  V30 1255 H 128.685 0.68915 5.04111 0
M  V30 1256 H 128.083 -2.49181 5.07863 0
M  V30 1257 H 126.64 -2.52103 6.01072 0
M  V30 1258 N 130.073 -1.45103 0.615059 0
M  V30 1259 C 131.003 -2.33339 -0.0865619 0
M  V30 1260 C 131.984 -1.4727 -0.851209 0
M  V30 1261 O 133.169 -1.76026 -0.820281 0
M  V30 1262 C 130.299 -3.30095 -1.07956 0
M  V30 1263 C 129.253 -4.25858 -0.427628 0
M  V30 1264 C 128.579 -5.12361 -1.5294 0
M  V30 1265 C 129.879 -5.18165 0.655944 0
M  V30 1266 H 131.573 -2.92254 0.650224 0
M  V30 1267 H 129.119 -1.40532 0.314138 0
M  V30 1268 H 131.072 -3.90698 -1.57901 0
M  V30 1269 H 129.796 -2.69355 -1.84703 0
M  V30 1270 H 128.455 -3.66564 0.0510292 0
M  V30 1271 H 128.103 -4.47984 -2.28734 0
M  V30 1272 H 127.803 -5.77238 -1.09865 0
M  V30 1273 H 129.327 -5.75833 -2.03098 0
M  V30 1274 H 130.741 -5.72796 0.240257 0
M  V30 1275 H 129.138 -5.91559 1.00888 0
M  V30 1276 H 130.208 -4.60144 1.52957 0
M  V30 1277 N 131.551 -0.354651 -1.53558 0
M  V30 1278 C 132.962 0.126902 -1.86268 0
M  V30 1279 C 133.313 1.49075 -1.27558 0
M  V30 1280 O 132.438 2.08105 -0.5934 0
M  V30 1281 C 133.033 0.237046 -3.3797 0
M  V30 1282 C 131.592 0.662842 -3.70518 0
M  V30 1283 C 130.739 -0.196652 -2.76602 0
M  V30 1284 H 133.69 -0.573849 -1.47962 0
M  V30 1285 H 133.711 1.06259 -3.65362 0
M  V30 1286 H 133.223 -0.755725 -3.80671 0
M  V30 1287 H 131.324 1.66424 -3.33367 0
M  V30 1288 H 131.437 0.445034 -4.77029 0
M  V30 1289 H 129.801 0.332763 -2.52517 0
M  V30 1290 H 130.584 -1.18676 -3.22135 0
M  V30 1291 N 133.029 1.57378 -0.0835403 0
M  V30 1292 C 133.961 2.10389 0.909338 0
M  V30 1293 C 134.974 1.03858 1.25369 0
M  V30 1294 O 136.163 1.31338 1.20882 0
M  V30 1295 C 133.263 2.55908 2.2218 0
M  V30 1296 C 132.436 3.86145 2.05453 0
M  V30 1297 C 131.495 4.17633 3.20108 0
M  V30 1298 O 130.521 4.87043 2.94581 0
M  V30 1299 N 131.723 3.72113 4.45547 0
M  V30 1300 H 134.488 2.962 0.456657 0
M  V30 1301 H 132.049 1.61579 0.101877 0
M  V30 1302 H 134.041 2.74027 2.97811 0
M  V30 1303 H 132.611 1.75171 2.58909 0
M  V30 1304 H 131.831 3.7729 1.1422 0
M  V30 1305 H 133.119 4.7137 1.91541 0
M  V30 1306 H 132.517 3.16062 4.69171 0
M  V30 1307 H 131.074 3.95409 5.18165 0
M  V30 1308 N 134.507 -0.190092 1.56449 0
M  V30 1309 C 135.417 -1.25591 1.98152 0
M  V30 1310 C 136.433 -1.49519 0.889944 0
M  V30 1311 O 137.609 -1.62036 1.19609 0
M  V30 1312 C 134.674 -2.57916 2.3169 0
M  V30 1313 C 133.735 -2.42015 3.5458 0
M  V30 1314 C 132.968 -3.6803 3.8651 0
M  V30 1315 O 133.191 -4.72413 3.1966 0
M  V30 1316 O 132.125 -3.6326 4.79923 0
M  V30 1317 H 135.951 -0.931988 2.89046 0
M  V30 1318 H 133.536 -0.395488 1.4407 0
M  V30 1319 H 135.418 -3.36008 2.54316 0
M  V30 1320 H 134.093 -2.89925 1.43963 0
M  V30 1321 H 133 -1.62017 3.37196 0
M  V30 1322 H 134.333 -2.14937 4.4279 0
M  V30 1323 N 135.985 -1.50799 -0.457987 0
M  V30 1324 C 137.234 -1.6168 -1.20593 0
M  V30 1325 C 137.547 -0.32888 -1.92815 0
M  V30 1326 O 138.753 -0.316773 -2.69646 0
M  V30 1327 C 137.209 -2.8545 -2.19195 0
M  V30 1328 C 136.817 -4.21168 -1.52715 0
M  V30 1329 C 138.561 -3.05681 -2.94549 0
M  V30 1330 C 136.468 -5.3611 -2.4968 0
M  V30 1331 H 135.398 -0.602134 -0.453818 0
M  V30 1332 H 138.049 -1.77245 -0.475031 0
M  V30 1333 H 136.431 -2.63472 -2.95632 0
M  V30 1334 H 137.605 -4.53449 -0.819775 0
M  V30 1335 H 135.92 -4.06648 -0.895922 0
M  V30 1336 H 138.517 -3.88727 -3.67145 0
M  V30 1337 H 138.86 -2.17929 -3.54701 0
M  V30 1338 H 139.393 -3.27901 -2.25223 0
M  V30 1339 H 136.132 -6.26057 -1.94249 0
M  V30 1340 H 135.652 -5.0823 -3.18532 0
M  V30 1341 H 137.331 -5.6722 -3.11241 0
M  V30 1342 N 137.463 0.71206 -1.40597 0
M  V30 1343 C 138.874 1.29135 -1.34837 0
M  V30 1344 C 139.225 1.96186 -0.0235395 0
M  V30 1345 O 138.35 1.97768 0.878444 0
M  V30 1346 C 138.945 2.34827 -2.44217 0
M  V30 1347 C 137.504 2.88371 -2.41907 0
M  V30 1348 C 136.651 1.62202 -2.24913 0
M  V30 1349 H 139.602 0.507944 -1.50352 0
M  V30 1350 H 139.623 3.15749 -2.12327 0
M  V30 1351 H 139.135 1.85996 -3.40627 0
M  V30 1352 H 137.236 3.41422 -1.49204 0
M  V30 1353 H 137.349 3.39925 -3.37621 0
M  V30 1354 H 135.713 1.874 -1.72492 0
M  V30 1355 H 136.496 1.15391 -3.23326 0
M  V30 1356 N 138.941 1.26152 0.944643 0
M  V30 1357 C 140.188 1.11492 1.69044 0
M  V30 1358 C 140.516 -0.342366 1.91463 0
M  V30 1359 O 139.771 -1.26812 1.49054 0
M  V30 1360 C 140.07 1.82541 3.07268 0
M  V30 1361 C 139.736 3.32445 3.04616 0
M  V30 1362 C 138.398 3.73337 3.036 0
M  V30 1363 C 140.75 4.28171 2.97185 0
M  V30 1364 C 138.078 5.08348 2.92915 0
M  V30 1365 C 140.43 5.63218 2.88041 0
M  V30 1366 C 139.094 6.03426 2.85366 0
M  V30 1367 H 138.364 0.407977 0.618576 0
M  V30 1368 H 141.011 1.56551 1.10291 0
M  V30 1369 H 139.316 1.29941 3.69625 0
M  V30 1370 H 141.013 1.68642 3.63815 0
M  V30 1371 H 137.603 2.99915 3.06185 0
M  V30 1372 H 141.787 3.97563 2.97081 0
M  V30 1373 H 137.043 5.38667 2.89219 0
M  V30 1374 H 141.217 6.37078 2.81254 0
M  V30 1375 H 138.844 7.07999 2.76842 0
M  V30 1376 N 140.419 -1.14872 1.07899 0
M  V30 1377 C 141.369 -2.17809 0.674027 0
M  V30 1378 C 142.353 -1.58008 -0.303699 0
M  V30 1379 O 143.545 -1.76616 -0.11654 0
M  V30 1380 C 140.674 -3.43208 0.0793318 0
M  V30 1381 C 139.76 -4.10051 1.08253 0
M  V30 1382 N 140.151 -4.52296 2.2641 0
M  V30 1383 C 138.449 -4.36469 0.917124 0
M  V30 1384 C 139.15 -5.04199 2.901 0
M  V30 1385 N 138.126 -4.98088 2.17736 0
M  V30 1386 H 141.928 -2.48207 1.57386 0
M  V30 1387 H 139.442 -1.315 0.952976 0
M  V30 1388 H 141.439 -4.16272 -0.228719 0
M  V30 1389 H 140.099 -3.14291 -0.815551 0
M  V30 1390 H 141.11 -4.45504 2.64096 0
M  V30 1391 H 137.787 -4.17432 0.0756078 0
M  V30 1392 H 139.177 -5.46802 3.90458 0
M  V30 1393 N 141.898 -0.863906 -1.31812 0
M  V30 1394 C 142.808 -0.318461 -2.32428 0
M  V30 1395 C 143.824 0.568496 -1.64451 0
M  V30 1396 O 145 0.46666 -1.95919 0
M  V30 1397 C 142.065 0.476355 -3.43412 0
M  V30 1398 C 141.126 -0.43784 -4.27061 0
M  V30 1399 C 140.359 0.319138 -5.32745 0
M  V30 1400 O 140.582 1.54799 -5.48993 0
M  V30 1401 O 139.516 -0.319861 -6.01049 0
M  V30 1402 H 143.342 -1.15229 -2.80991 0
M  V30 1403 H 140.927 -0.627103 -1.35602 0
M  V30 1404 H 142.809 0.927156 -4.11074 0
M  V30 1405 H 141.484 1.28683 -2.97022 0
M  V30 1406 H 140.391 -0.937013 -3.62175 0
M  V30 1407 H 141.724 -1.21375 -4.77 0
M  V30 1408 N 143.376 1.44774 -0.622745 0
M  V30 1409 C 144.306 2.33382 0.0741861 0
M  V30 1410 C 145.287 1.47719 0.843387 0
M  V30 1411 O 146.472 1.76458 0.810934 0
M  V30 1412 C 143.602 3.30663 1.06204 0
M  V30 1413 C 142.556 4.26079 0.405037 0
M  V30 1414 C 141.882 5.13165 1.5022 0
M  V30 1415 C 143.182 5.1781 -0.683414 0
M  V30 1416 H 144.876 2.91905 -0.665713 0
M  V30 1417 H 142.422 1.40363 -0.321587 0
M  V30 1418 H 144.375 3.9153 1.55827 0
M  V30 1419 H 143.099 2.70331 1.83272 0
M  V30 1420 H 141.758 3.66532 -0.0704683 0
M  V30 1421 H 141.406 4.49191 2.26355 0
M  V30 1422 H 141.106 5.77812 1.06803 0
M  V30 1423 H 142.63 5.76902 2.00041 0
M  V30 1424 H 144.044 5.72661 -0.270631 0
M  V30 1425 H 142.441 5.91015 -1.04023 0
M  V30 1426 H 143.511 4.59326 -1.55395 0
M  V30 1427 N 144.854 0.36279 1.53368 0
M  V30 1428 C 145.786 -0.519668 2.23231 0
M  V30 1429 C 146.799 -1.04844 1.24546 0
M  V30 1430 O 147.988 -0.955296 1.50786 0
M  V30 1431 C 145.088 -1.72995 2.9142 0
M  V30 1432 C 144.261 -1.33316 4.16588 0
M  V30 1433 C 143.32 -2.40521 4.68013 0
M  V30 1434 O 142.346 -2.03027 5.3176 0
M  V30 1435 N 143.548 -3.72065 4.45587 0
M  V30 1436 H 146.313 0.078751 2.99597 0
M  V30 1437 H 143.874 0.187833 1.60807 0
M  V30 1438 H 145.866 -2.44184 3.22733 0
M  V30 1439 H 144.436 -2.2353 2.18525 0
M  V30 1440 H 143.656 -0.451236 3.91609 0
M  V30 1441 H 144.944 -1.04432 4.97967 0
M  V30 1442 H 144.342 -4.05304 3.94646 0
M  V30 1443 H 142.899 -4.39366 4.81457 0
M  V30 1444 N 146.332 -1.57332 0.0918853 0
M  V30 1445 C 147.262 -2.16872 -0.865371 0
M  V30 1446 C 148.243 -1.10118 -1.29646 0
M  V30 1447 O 149.428 -1.38242 -1.36392 0
M  V30 1448 C 146.558 -2.74649 -2.12569 0
M  V30 1449 C 145.512 -3.86747 -1.83333 0
M  V30 1450 C 144.838 -4.31212 -3.16166 0
M  V30 1451 C 146.138 -5.10089 -1.1228 0
M  V30 1452 H 147.832 -2.97114 -0.369307 0
M  V30 1453 H 145.378 -1.42918 -0.176194 0
M  V30 1454 H 147.331 -3.14952 -2.7997 0
M  V30 1455 H 146.055 -1.91657 -2.64452 0
M  V30 1456 H 144.714 -3.46978 -1.18331 0
M  V30 1457 H 144.362 -3.45115 -3.6593 0
M  V30 1458 H 144.062 -5.06788 -2.97388 0
M  V30 1459 H 145.586 -4.74146 -3.84731 0
M  V30 1460 H 147 -5.47582 -1.69785 0
M  V30 1461 H 145.397 -5.91073 -1.03693 0
M  V30 1462 H 146.467 -4.84786 -0.105041 0
M  V30 1463 N 147.81 0.181792 -1.56548 0
M  V30 1464 C 148.72 1.24538 -1.98815 0
M  V30 1465 C 149.736 1.49045 -0.897861 0
M  V30 1466 O 150.912 1.61399 -1.20467 0
M  V30 1467 C 147.977 2.56683 -2.33055 0
M  V30 1468 C 147.038 2.40131 -3.55859 0
M  V30 1469 C 146.271 3.65975 -3.88456 0
M  V30 1470 O 146.494 4.70711 -3.22161 0
M  V30 1471 O 145.428 3.6071 -4.81842 0
M  V30 1472 H 149.254 0.916647 -2.89536 0
M  V30 1473 H 146.839 0.387842 -1.44278 0
M  V30 1474 H 148.721 3.34655 -2.56094 0
M  V30 1475 H 147.396 2.89157 -1.45498 0
M  V30 1476 H 146.303 1.60226 -3.38051 0
M  V30 1477 H 147.636 2.12585 -4.43924 0
M  V30 1478 N 149.288 1.51039 0.449983 0
M  V30 1479 C 150.198 1.74261 1.57067 0
M  V30 1480 C 151.214 0.626363 1.62335 0
M  V30 1481 O 152.39 0.907162 1.79812 0
M  V30 1482 C 149.455 1.85114 2.93144 0
M  V30 1483 C 148.516 3.0893 2.98095 0
M  V30 1484 C 147.749 3.19256 4.27681 0
M  V30 1485 O 147.972 2.35835 5.19363 0
M  V30 1486 O 146.906 4.12144 4.38658 0
M  V30 1487 H 150.732 2.69303 1.40391 0
M  V30 1488 H 148.317 1.35389 0.631688 0
M  V30 1489 H 150.199 1.94311 3.73926 0
M  V30 1490 H 148.874 0.932588 3.09975 0
M  V30 1491 H 147.781 3.0522 2.16314 0
M  V30 1492 H 149.114 4.00433 2.86206 0
M  V30 1493 N 150.766 -0.704594 1.40972 0
M  V30 1494 C 152.015 -1.46018 1.39146 0
M  V30 1495 C 152.328 -1.956 0.000589254 0
M  V30 1496 O 153.534 -2.71137 -0.1403 0
M  V30 1497 C 151.99 -2.63996 2.4461 0
M  V30 1498 C 151.598 -2.21238 3.89561 0
M  V30 1499 C 153.342 -3.41677 2.51907 0
M  V30 1500 C 151.249 -3.3612 4.86598 0
M  V30 1501 H 150.179 -0.548444 0.517422 0
M  V30 1502 H 152.83 -0.765784 1.66757 0
M  V30 1503 H 151.212 -3.3566 2.10115 0
M  V30 1504 H 152.386 -1.56923 4.33257 0
M  V30 1505 H 150.701 -1.56574 3.85841 0
M  V30 1506 H 153.298 -4.27182 3.2159 0
M  V30 1507 H 153.641 -3.86247 1.55303 0
M  V30 1508 H 154.174 -2.77064 2.85448 0
M  V30 1509 H 150.913 -2.96572 5.84573 0
M  V30 1510 H 150.433 -3.99315 4.47557 0
M  V30 1511 H 152.112 -4.02029 5.06934 0
M  V30 1512 N 152.244 -1.26651 -0.937939 0
M  V30 1513 C 153.493 -1.11775 -1.67897 0
M  V30 1514 C 153.806 0.33794 -1.92659 0
M  V30 1515 O 155.012 0.607434 -2.64618 0
M  V30 1516 C 153.468 -1.9523 -3.02346 0
M  V30 1517 C 153.076 -3.45393 -2.8532 0
M  V30 1518 C 154.82 -1.88972 -3.80118 0
M  V30 1519 C 152.727 -4.21083 -4.15263 0
M  V30 1520 H 151.657 -0.414696 -0.629717 0
M  V30 1521 H 154.308 -1.50988 -1.04283 0
M  V30 1522 H 152.69 -1.48853 -3.66959 0
M  V30 1523 H 153.864 -3.99561 -2.29537 0
M  V30 1524 H 152.179 -3.52921 -2.20988 0
M  V30 1525 H 154.776 -2.42805 -4.76392 0
M  V30 1526 H 155.119 -0.86113 -4.07296 0
M  V30 1527 H 155.652 -2.33189 -3.22285 0
M  V30 1528 H 152.391 -5.24425 -3.93267 0
M  V30 1529 H 151.911 -3.71695 -4.70747 0
M  V30 1530 H 153.59 -4.29706 -4.83696 0
M  V30 1531 N 153.722 1.14298 -1.08507 0
M  V30 1532 C 154.97 1.84993 -0.813763 0
M  V30 1533 C 155.291 1.83405 0.662393 0
M  V30 1534 O 154.561 1.28319 1.48024 0
M  V30 1535 H 153.141 0.684966 -0.298045 0
M  V30 1536 H 155.803 1.385 -1.37126 0
M  V30 1537 H 154.899 2.89788 -1.15884 0
M  V30 1538 N 155.201 0.870884 1.31352 0
M  V30 1539 C 156.447 0.482987 1.96965 0
M  V30 1540 C 156.78 -0.962462 1.68672 0
M  V30 1541 O 156.055 -1.6779 0.98371 0
M  V30 1542 C 156.338 0.741752 3.52378 0
M  V30 1543 C 156.191 2.2368 3.9024 0
M  V30 1544 C 157.51 0.208838 4.39604 0
M  V30 1545 H 154.629 0.176955 0.715441 0
M  V30 1546 H 157.271 1.09229 1.55464 0
M  V30 1547 H 155.421 0.223149 3.87859 0
M  V30 1548 H 157.093 2.82273 3.64856 0
M  V30 1549 H 155.336 2.70901 3.38814 0
M  V30 1550 H 156.007 2.3685 4.98604 0
M  V30 1551 H 158.483 0.652529 4.10952 0
M  V30 1552 H 157.359 0.419336 5.47296 0
M  V30 1553 H 157.62 -0.889275 4.33064 0
M  V30 1554 N 156.679 -1.44442 0.630414 0
M  V30 1555 C 157.927 -2.01653 0.134351 0
M  V30 1556 C 158.248 -1.49836 -1.24796 0
M  V30 1557 O 157.518 -0.701684 -1.82902 0
M  V30 1558 H 156.098 -0.74554 0.0466769 0
M  V30 1559 H 158.76 -1.76952 0.816955 0
M  V30 1560 H 157.856 -3.11935 0.101498 0
M  V30 1561 N 158.157 -0.370918 -1.53173 0
M  V30 1562 C 159.405 0.216673 -2.00935 0
M  V30 1563 C 159.726 1.48845 -1.25977 0
M  V30 1564 O 158.996 1.92286 -0.374551 0
M  V30 1565 H 157.576 0.0830565 -0.742368 0
M  V30 1566 H 160.238 -0.49838 -1.8842 0
M  V30 1567 H 159.334 0.439893 -3.08984 0
M  V30 1568 N 159.635 1.57281 -0.100228 0
M  V30 1569 C 160.882 1.94537 0.562268 0
M  V30 1570 C 161.21 0.982315 1.67871 0
M  V30 1571 O 160.465 0.00280936 1.957 0
M  V30 1572 C 160.764 3.38305 1.15259 0
M  V30 1573 C 160.43 4.50618 0.159409 0
M  V30 1574 C 159.092 4.81066 -0.113741 0
M  V30 1575 C 161.444 5.18615 -0.518461 0
M  V30 1576 C 158.772 5.76835 -1.07137 0
M  V30 1577 C 161.124 6.15412 -1.46459 0
M  V30 1578 C 159.788 6.44262 -1.74592 0
M  V30 1579 H 159.058 0.711863 0.205748 0
M  V30 1580 H 161.705 1.90679 -0.17715 0
M  V30 1581 H 160.01 3.38766 1.96836 0
M  V30 1582 H 161.707 3.64435 1.67297 0
M  V30 1583 H 158.297 4.2689 0.382491 0
M  V30 1584 H 162.481 4.95264 -0.320581 0
M  V30 1585 H 157.737 5.975 -1.29628 0
M  V30 1586 H 161.911 6.67194 -1.99564 0
M  V30 1587 H 159.538 7.1828 -2.48953 0
M  V30 1588 N 161.113 -0.173488 1.56642 0
M  V30 1589 C 162.361 -0.888706 1.81512 0
M  V30 1590 C 162.682 -1.82875 0.676872 0
M  V30 1591 O 161.952 -1.93536 -0.303414 0
M  V30 1592 H 160.532 -0.331164 0.669582 0
M  V30 1593 H 163.194 -0.173823 1.94123 0
M  V30 1594 H 162.29 -1.46691 2.75478 0
M  V30 1595 N 162.591 -1.51276 -0.441967 0
M  V30 1596 C 163.538 -1.72256 -1.53612 0
M  V30 1597 C 164.508 -0.564164 -1.56225 0
M  V30 1598 O 165.693 -0.798074 -1.73307 0
M  V30 1599 C 162.833 -1.84932 -2.91366 0
M  V30 1600 C 161.946 -3.12459 -2.98317 0
M  V30 1601 C 161.081 -3.15758 -4.27166 0
M  V30 1602 C 160.12 -4.37619 -4.27967 0
M  V30 1603 N 159.257 -4.38493 -5.48333 0
M  V30 1604 H 164.097 -2.65654 -1.35026 0
M  V30 1605 H 161.634 -1.31662 -0.656009 0
M  V30 1606 H 163.592 -1.90263 -3.7129 0
M  V30 1607 H 162.222 -0.949461 -3.08521 0
M  V30 1608 H 161.274 -3.1646 -2.11086 0
M  V30 1609 H 162.586 -4.02382 -2.94771 0
M  V30 1610 H 161.74 -3.19979 -5.15459 0
M  V30 1611 H 160.479 -2.23715 -4.33362 0
M  V30 1612 H 159.484 -4.33579 -3.38067 0
M  V30 1613 H 160.709 -5.30921 -4.23438 0
M  V30 1614 H 158.655 -3.49318 -5.55259 0
M  V30 1615 H 158.572 -5.22219 -5.46647 0
M  V30 1616 H 159.84 -4.469 -6.38671 0
M  V30 1617 N 164.069 0.697108 -1.41344 0
M  V30 1618 C 165.315 1.4593 -1.40827 0
M  V30 1619 C 165.648 1.94193 -0.0167098 0
M  V30 1620 O 164.923 1.69425 0.955263 0
M  V30 1621 C 165.206 2.67229 -2.41373 0
M  V30 1622 C 165.059 2.24741 -3.8963 0
M  V30 1623 C 166.378 3.69423 -2.39196 0
M  V30 1624 H 163.497 0.529303 -0.512842 0
M  V30 1625 H 166.139 0.794112 -1.72609 0
M  V30 1626 H 164.289 3.23982 -2.14401 0
M  V30 1627 H 165.961 1.73327 -4.27499 0
M  V30 1628 H 164.204 1.56542 -4.0457 0
M  V30 1629 H 164.875 3.1177 -4.55525 0
M  V30 1630 H 167.351 3.2234 -2.63128 0
M  V30 1631 H 166.227 4.51907 -3.11563 0
M  V30 1632 H 166.488 4.19012 -1.41001 0
M  V30 1633 N 165.547 1.27147 0.931209 0
M  V30 1634 C 166.777 1.15914 1.71019 0
M  V30 1635 C 167.185 -0.287112 1.87009 0
M  V30 1636 O 166.528 -1.20761 1.38429 0
M  V30 1637 C 166.59 1.76647 3.13107 0
M  V30 1638 C 166.254 3.25807 3.20467 0
M  V30 1639 C 167.251 4.22489 3.02983 0
M  V30 1640 C 164.936 3.66452 3.43538 0
M  V30 1641 C 166.93 5.57794 3.08454 0
M  V30 1642 C 164.617 5.01888 3.48643 0
M  V30 1643 C 165.615 5.97369 3.31119 0
M  V30 1644 O 165.303 7.30337 3.35952 0
M  V30 1645 H 165.035 0.404062 0.54195 0
M  V30 1646 H 167.589 1.68457 1.17521 0
M  V30 1647 H 165.819 1.18578 3.68071 0
M  V30 1648 H 167.508 1.60179 3.72958 0
M  V30 1649 H 168.274 3.92425 2.85004 0
M  V30 1650 H 164.153 2.92611 3.5623 0
M  V30 1651 H 167.697 6.32298 2.94694 0
M  V30 1652 H 163.594 5.31609 3.66145 0
M  V30 1653 H 164.362 7.38739 3.5243 0
M  V30 1654 N 167.025 -1.13721 1.09112 0
M  V30 1655 C 168.441 -1.36914 0.820174 0
M  V30 1656 C 168.641 -1.93356 -0.567079 0
M  V30 1657 O 167.697 -2.15093 -1.32255 0
M  V30 1658 C 169.01 -2.3235 1.90877 0
M  V30 1659 C 170.558 -2.45973 1.93562 0
M  V30 1660 C 171.033 -3.44714 3.01556 0
M  V30 1661 N 172.524 -3.52263 3.00775 0
M  V30 1662 C 173.259 -4.28536 3.80978 0
M  V30 1663 N 172.755 -5.07991 4.71081 0
M  V30 1664 N 174.548 -4.23804 3.69251 0
M  V30 1665 H 166.699 -0.754348 1.98553 0
M  V30 1666 H 168.962 -0.3944 0.862063 0
M  V30 1667 H 168.668 -1.98027 2.90651 0
M  V30 1668 H 168.542 -3.32332 1.78424 0
M  V30 1669 H 170.929 -2.79584 0.944286 0
M  V30 1670 H 171.01 -1.45926 2.10093 0
M  V30 1671 H 170.654 -3.11835 4.00901 0
M  V30 1672 H 170.584 -4.44558 2.82269 0
M  V30 1673 H 173.075 -2.95567 2.35475 0
M  V30 1674 H 173.388 -5.63487 5.28869 0
M  V30 1675 H 171.733 -5.07235 4.75119 0
M  V30 1676 H 174.924 -3.60806 2.98222 0
M  V30 1677 H 175.097 -4.82995 4.31995 0
M  V30 1678 N 168.503 -0.877838 -1.30888 0
M  V30 1679 C 169.466 -0.344265 -2.266 0
M  V30 1680 C 170.466 0.50922 -1.52524 0
M  V30 1681 O 171.656 0.317398 -1.71284 0
M  V30 1682 C 168.788 0.510198 -3.37061 0
M  V30 1683 H 169.981 -1.1893 -2.7531 0
M  V30 1684 H 167.534 -0.654088 -1.41956 0
M  V30 1685 H 168.269 1.37612 -2.93655 0
M  V30 1686 H 168.054 -0.101047 -3.9197 0
M  V30 1687 H 169.544 0.875537 -4.08319 0
M  V30 1688 N 169.982 1.44106 -0.638065 0
M  V30 1689 C 170.912 2.33448 0.0494287 0
M  V30 1690 C 171.893 1.48606 0.827672 0
M  V30 1691 O 173.078 1.77308 0.792173 0
M  V30 1692 C 170.208 3.31771 1.02691 0
M  V30 1693 C 169.162 4.26485 0.359823 0
M  V30 1694 C 168.488 5.14729 1.44769 0
M  V30 1695 C 169.788 5.17056 -0.738296 0
M  V30 1696 H 171.482 2.91183 -0.696636 0
M  V30 1697 H 169.028 1.40014 -0.336456 0
M  V30 1698 H 170.981 3.93161 1.51666 0
M  V30 1699 H 169.705 2.7226 1.80395 0
M  V30 1700 H 168.364 3.66437 -0.10934 0
M  V30 1701 H 168.012 4.51566 2.21578 0
M  V30 1702 H 167.712 5.78913 1.00668 0
M  V30 1703 H 169.236 5.78991 1.93911 0
M  V30 1704 H 170.65 5.72342 -0.331354 0
M  V30 1705 H 169.047 5.89879 -1.10286 0
M  V30 1706 H 170.117 4.57652 -1.60258 0
M  V30 1707 N 171.46 0.379036 1.52974 0
M  V30 1708 C 172.706 -0.199244 2.02422 0
M  V30 1709 C 173.061 -1.4532 1.26095 0
M  V30 1710 O 172.354 -1.88377 0.34996 0
M  V30 1711 C 172.548 -0.53096 3.53434 0
M  V30 1712 C 172.377 0.689298 4.44386 0
M  V30 1713 C 171.147 1.20546 4.9071 0
M  V30 1714 C 173.345 1.55856 4.90116 0
M  V30 1715 N 171.327 2.38434 5.65705 0
M  V30 1716 C 172.698 2.58396 5.63588 0
M  V30 1717 C 174.753 1.57986 4.7217 0
M  V30 1718 C 173.456 3.62939 6.21022 0
M  V30 1719 C 175.482 2.6143 5.30479 0
M  V30 1720 C 174.844 3.62693 6.03849 0
M  V30 1721 H 170.943 -0.0352671 0.781204 0
M  V30 1722 H 173.527 0.526614 1.87443 0
M  V30 1723 H 171.698 -1.22588 3.68547 0
M  V30 1724 H 173.43 -1.0955 3.89591 0
M  V30 1725 H 170.185 0.768022 4.67331 0
M  V30 1726 H 170.609 2.98055 6.07859 0
M  V30 1727 H 175.251 0.810475 4.14959 0
M  V30 1728 H 172.969 4.40751 6.77321 0
M  V30 1729 H 176.555 2.63949 5.18481 0
M  V30 1730 H 175.435 4.41424 6.48163 0
M  V30 1731 N 172.938 -1.57226 0.108567 0
M  V30 1732 C 174.354 -1.5766 -0.248058 0
M  V30 1733 C 174.554 -1.12063 -1.67464 0
M  V30 1734 O 173.61 -0.803236 -2.39383 0
M  V30 1735 C 174.923 -3.0069 -0.0242287 0
M  V30 1736 C 176.471 -3.12868 -0.0909372 0
M  V30 1737 C 176.946 -4.57879 0.105067 0
M  V30 1738 N 178.437 -4.63172 0.0506846 0
M  V30 1739 C 179.172 -5.73126 0.177396 0
M  V30 1740 N 178.668 -6.91866 0.359696 0
M  V30 1741 N 180.461 -5.61977 0.117709 0
M  V30 1742 H 172.612 -1.85169 1.04049 0
M  V30 1743 H 174.875 -0.85529 0.40888 0
M  V30 1744 H 174.581 -3.38299 0.961604 0
M  V30 1745 H 174.455 -3.6945 -0.76068 0
M  V30 1746 H 176.842 -2.75124 -1.06729 0
M  V30 1747 H 176.923 -2.46672 0.677225 0
M  V30 1748 H 176.567 -4.96321 1.07834 0
M  V30 1749 H 176.497 -5.22153 -0.682954 0
M  V30 1750 H 178.988 -3.778 -0.0871266 0
M  V30 1751 H 179.301 -7.71503 0.447529 0
M  V30 1752 H 177.646 -6.93874 0.395536 0
M  V30 1753 H 180.837 -4.68094 -0.0236741 0
M  V30 1754 H 181.01 -6.47627 0.219905 0
M  V30 1755 N 174.416 0.165178 -1.56732 0
M  V30 1756 C 175.664 0.879068 -1.8198 0
M  V30 1757 C 175.985 1.82514 -0.686561 0
M  V30 1758 O 175.255 1.93694 0.293146 0
M  V30 1759 H 173.835 0.327608 -0.671329 0
M  V30 1760 H 176.497 0.163526 -1.94213 0
M  V30 1761 H 175.593 1.45228 -2.76252 0
M  V30 1762 N 175.894 1.51508 0.433938 0
M  V30 1763 C 176.804 1.75917 1.5521 0
M  V30 1764 C 177.82 0.643545 1.61662 0
M  V30 1765 O 178.996 0.926183 1.7884 0
M  V30 1766 C 176.061 1.88213 2.91164 0
M  V30 1767 C 175.122 3.12074 2.94802 0
M  V30 1768 C 174.355 3.23774 4.24271 0
M  V30 1769 O 174.578 2.4133 5.16833 0
M  V30 1770 O 173.512 4.16774 4.34262 0
M  V30 1771 H 177.338 2.70777 1.37527 0
M  V30 1772 H 174.923 1.36051 0.617293 0
M  V30 1773 H 176.805 1.98267 3.71845 0
M  V30 1774 H 175.48 0.965413 3.08968 0
M  V30 1775 H 174.387 3.07497 2.13065 0
M  V30 1776 H 175.72 4.03446 2.81943 0
M  V30 1777 N 177.372 -0.689602 1.41712 0
M  V30 1778 C 178.282 -1.83314 1.46401 0
M  V30 1779 C 179.298 -1.7036 0.35405 0
M  V30 1780 O 180.474 -1.92171 0.602692 0
M  V30 1781 C 177.539 -3.19344 1.34982 0
M  V30 1782 C 176.6 -3.44363 2.56344 0
M  V30 1783 C 175.833 -4.73904 2.45461 0
M  V30 1784 O 176.056 -5.508 1.48241 0
M  V30 1785 O 174.99 -4.99839 3.35328 0
M  V30 1786 H 178.816 -1.82314 2.42889 0
M  V30 1787 H 176.401 -0.843438 1.23315 0
M  V30 1788 H 178.283 -4.00547 1.3092 0
M  V30 1789 H 176.958 -3.21014 0.41612 0
M  V30 1790 H 175.865 -2.63067 2.65982 0
M  V30 1791 H 177.198 -3.47512 3.48563 0
M  V30 1792 N 178.85 -1.27639 -0.924453 0
M  V30 1793 C 180.096 -1.14336 -1.67497 0
M  V30 1794 C 180.429 0.309465 -1.91718 0
M  V30 1795 O 179.704 1.22608 -1.50989 0
M  V30 1796 C 179.987 -1.93096 -3.0395 0
M  V30 1797 C 179.84 -3.46381 -2.8695 0
M  V30 1798 C 181.159 -1.73798 -4.0433 0
M  V30 1799 H 178.278 -0.416728 -0.607871 0
M  V30 1800 H 180.92 -1.56832 -1.07256 0
M  V30 1801 H 179.07 -1.56982 -3.55372 0
M  V30 1802 H 180.742 -3.92343 -2.42621 0
M  V30 1803 H 178.985 -3.72557 -2.22225 0
M  V30 1804 H 179.656 -3.96735 -3.83804 0
M  V30 1805 H 182.132 -2.05293 -3.61931 0
M  V30 1806 H 181.008 -2.31294 -4.97789 0
M  V30 1807 H 181.269 -0.686725 -4.36734 0
M  V30 1808 N 180.328 1.1314 -1.09713 0
M  V30 1809 C 181.291 2.16831 -0.742751 0
M  V30 1810 C 182.291 1.59159 0.229129 0
M  V30 1811 O 183.481 1.74199 0.00693237 0
M  V30 1812 C 180.613 3.40756 -0.0989168 0
M  V30 1813 H 181.806 2.49695 -1.66109 0
M  V30 1814 H 179.359 1.2802 -0.896699 0
M  V30 1815 H 180.094 3.13485 0.830514 0
M  V30 1816 H 179.879 3.83888 -0.798265 0
M  V30 1817 H 181.369 4.17386 0.133524 0
M  V30 1818 N 181.806 0.884767 1.30421 0
M  V30 1819 C 183.052 0.503851 1.96441 0
M  V30 1820 C 183.385 -0.944518 1.69684 0
M  V30 1821 O 182.66 -1.66737 1.00145 0
M  V30 1822 C 182.943 0.779085 3.51571 0
M  V30 1823 C 182.796 2.27807 3.87846 0
M  V30 1824 C 184.115 0.255452 4.39358 0
M  V30 1825 H 181.234 0.184533 0.713524 0
M  V30 1826 H 183.876 1.10872 1.54297 0
M  V30 1827 H 182.026 0.264274 3.876 0
M  V30 1828 H 183.698 2.86127 3.61841 0
M  V30 1829 H 181.941 2.74479 3.35922 0
M  V30 1830 H 182.612 2.42125 4.96064 0
M  V30 1831 H 185.088 0.696079 4.10236 0
M  V30 1832 H 183.964 0.477361 5.4682 0
M  V30 1833 H 184.225 -0.843293 4.33983 0
M  V30 1834 N 183.284 -1.43765 0.645699 0
M  V30 1835 C 184.231 -2.30745 -0.0504648 0
M  V30 1836 C 185.201 -1.4432 -0.822241 0
M  V30 1837 O 186.386 -1.73202 -0.800358 0
M  V30 1838 C 183.526 -3.29802 -1.0161 0
M  V30 1839 C 182.639 -4.31326 -0.241219 0
M  V30 1840 C 181.774 -5.17469 -1.19998 0
M  V30 1841 C 180.813 -6.10691 -0.415094 0
M  V30 1842 N 179.95 -6.89483 -1.32506 0
M  V30 1843 H 184.79 -2.8973 0.697155 0
M  V30 1844 H 182.327 -1.42738 0.355563 0
M  V30 1845 H 184.285 -3.85734 -1.58949 0
M  V30 1846 H 182.915 -2.72483 -1.73069 0
M  V30 1847 H 181.967 -3.77749 0.448334 0
M  V30 1848 H 183.279 -4.9743 0.369437 0
M  V30 1849 H 182.433 -5.7799 -1.84424 0
M  V30 1850 H 181.172 -4.51473 -1.84455 0
M  V30 1851 H 180.177 -5.49265 0.242565 0
M  V30 1852 H 181.402 -6.78727 0.224966 0
M  V30 1853 H 179.348 -6.26142 -1.95657 0
M  V30 1854 H 179.265 -7.52081 -0.768783 0
M  V30 1855 H 180.533 -7.54516 -1.9577 0
M  V30 1856 N 184.763 -0.387143 -1.52771 0
M  V30 1857 C 185.726 0.436939 -2.24997 0
M  V30 1858 C 186.726 0.991991 -1.26555 0
M  V30 1859 O 187.916 0.874335 -1.50669 0
M  V30 1860 C 185.048 1.61281 -3.00335 0
M  V30 1861 H 186.241 -0.195365 -2.99263 0
M  V30 1862 H 183.794 -0.139218 -1.55679 0
M  V30 1863 H 184.529 2.2826 -2.30364 0
M  V30 1864 H 184.314 1.22154 -3.72587 0
M  V30 1865 H 185.804 2.19629 -3.5518 0
M  V30 1866 N 186.241 1.57166 -0.116904 0
M  V30 1867 C 187.204 2.14039 0.819742 0
M  V30 1868 C 188.204 1.07477 1.19605 0
M  V30 1869 O 189.394 1.33263 1.1219 0
M  V30 1870 C 186.526 2.67891 2.10826 0
M  V30 1871 H 187.719 2.98128 0.325511 0
M  V30 1872 H 185.272 1.55739 0.132312 0
M  V30 1873 H 186.007 1.87384 2.64685 0
M  V30 1874 H 185.792 3.45823 1.84793 0
M  V30 1875 H 187.282 3.11809 2.77785 0
M  V30 1876 N 187.719 -0.156864 1.56817 0
M  V30 1877 C 189.135 -0.50916 1.5126 0
M  V30 1878 C 189.335 -1.83897 0.823658 0
M  V30 1879 O 188.391 -2.49469 0.390055 0
M  V30 1880 C 189.704 -0.52857 2.96018 0
M  V30 1881 C 191.252 -0.614771 3.06903 0
M  V30 1882 C 191.727 -0.664938 4.53147 0
M  V30 1883 N 193.218 -0.727433 4.57452 0
M  V30 1884 C 193.953 -0.787067 5.67973 0
M  V30 1885 N 193.449 -0.806649 6.88088 0
M  V30 1886 N 195.242 -0.827195 5.5598 0
M  V30 1887 H 187.393 0.714935 2.00006 0
M  V30 1888 H 189.656 0.259526 0.911784 0
M  V30 1889 H 189.362 0.380154 3.49639 0
M  V30 1890 H 189.236 -1.36998 3.51442 0
M  V30 1891 H 191.623 -1.51392 2.53307 0
M  V30 1892 H 191.704 0.253597 2.5454 0
M  V30 1893 H 191.348 0.230011 5.07379 0
M  V30 1894 H 191.278 -1.54966 5.03282 0
M  V30 1895 H 193.769 -0.719998 3.70978 0
M  V30 1896 H 194.082 -0.853727 7.6807 0
M  V30 1897 H 192.427 -0.774687 6.90669 0
M  V30 1898 H 195.618 -0.808998 4.61056 0
M  V30 1899 H 195.791 -0.870206 6.4213 0
M  V30 1900 N 189.197 -1.51736 -0.425897 0
M  V30 1901 C 190.127 -1.76827 -1.52494 0
M  V30 1902 C 191.108 -0.618524 -1.58456 0
M  V30 1903 O 192.293 -0.862416 -1.74 0
M  V30 1904 C 189.423 -1.90374 -2.90474 0
M  V30 1905 C 188.377 -3.0588 -2.99369 0
M  V30 1906 C 187.703 -3.04625 -4.3944 0
M  V30 1907 C 189.003 -4.45644 -2.72394 0
M  V30 1908 H 190.697 -2.68855 -1.31748 0
M  V30 1909 H 188.243 -1.29372 -0.632362 0
M  V30 1910 H 190.196 -2.0651 -3.6733 0
M  V30 1911 H 188.92 -0.95004 -3.12477 0
M  V30 1912 H 187.579 -2.89467 -2.24954 0
M  V30 1913 H 187.227 -2.0701 -4.58428 0
M  V30 1914 H 186.927 -3.82195 -4.46319 0
M  V30 1915 H 188.451 -3.22869 -5.18255 0
M  V30 1916 H 189.865 -4.62348 -3.38979 0
M  V30 1917 H 188.262 -5.25006 -2.9067 0
M  V30 1918 H 189.332 -4.54893 -1.67929 0
M  V30 1919 N 190.675 0.682077 -1.42076 0
M  V30 1920 C 191.952 1.43755 -1.32642 0
M  V30 1921 C 192.332 2.11063 0.0396611 0
M  V30 1922 O 191.68 2.02701 1.05474 0
M  V30 1923 C 191.89 2.44596 -2.48946 0
M  V30 1924 C 193.238 3.09454 -2.9073 0
M  V30 1925 O 194.262 2.54922 -2.48783 0
M  V30 1926 O 193.121 4.08253 -3.63307 0
M  V30 1927 H 190.215 0.640857 -0.522715 0
M  V30 1928 H 192.761 0.711415 -1.54068 0
M  V30 1929 H 191.533 1.93609 -3.40046 0
M  V30 1930 H 191.156 3.24701 -2.29467 0
M  V30 1931 N 192.153 1.28127 0.917671 0
M  V30 1932 C 193.564 1.13622 1.48145 0
M  V30 1933 C 193.915 -0.275207 1.9426 0
M  V30 1934 O 193.04 -1.1691 1.82102 0
M  V30 1935 C 193.635 2.05648 2.69248 0
M  V30 1936 C 192.194 1.95219 3.21818 0
M  V30 1937 C 191.341 1.97618 1.94532 0
M  V30 1938 H 194.292 1.40874 0.730772 0
M  V30 1939 H 194.313 1.61818 3.44377 0
M  V30 1940 H 193.825 3.08365 2.35653 0
M  V30 1941 H 191.926 0.955244 3.60147 0
M  V30 1942 H 192.039 2.81976 3.87333 0
M  V30 1943 H 190.403 1.41973 2.11461 0
M  V30 1944 H 191.186 3.02007 1.63238 0
M  V30 1945 N 193.631 -1.12557 1.10312 0
M  V30 1946 C 194.541 -2.21841 0.763142 0
M  V30 1947 C 195.557 -1.72354 -0.238801 0
M  V30 1948 O 196.733 -2.01249 -0.0778746 0
M  V30 1949 C 193.798 -3.46131 0.198632 0
M  V30 1950 C 192.859 -4.10464 1.25769 0
M  V30 1951 C 192.092 -5.28821 0.72002 0
M  V30 1952 O 192.315 -5.6859 -0.453993 0
M  V30 1953 O 191.249 -5.83437 1.47935 0
M  V30 1954 H 195.075 -2.53312 1.67532 0
M  V30 1955 H 192.66 -1.20867 0.878157 0
M  V30 1956 H 194.542 -4.2125 -0.112401 0
M  V30 1957 H 193.217 -3.16338 -0.686419 0
M  V30 1958 H 192.124 -3.3713 1.62156 0
M  V30 1959 H 193.457 -4.44408 2.11571 0
M  V30 1960 N 195.109 -0.891671 -1.2995 0
M  V30 1961 C 196.056 -0.361736 -2.27948 0
M  V30 1962 C 197.026 0.551761 -1.56668 0
M  V30 1963 O 198.211 0.478736 -1.84696 0
M  V30 1964 C 195.351 0.411825 -3.42634 0
M  V30 1965 C 194.464 -0.531651 -4.28716 0
M  V30 1966 C 193.599 0.258167 -5.30572 0
M  V30 1967 C 192.638 -0.680349 -6.08307 0
M  V30 1968 N 191.775 0.0745613 -7.0206 0
M  V30 1969 H 196.615 -1.20254 -2.72659 0
M  V30 1970 H 194.152 -0.604352 -1.34112 0
M  V30 1971 H 196.11 0.876304 -4.07893 0
M  V30 1972 H 194.74 1.21715 -2.98974 0
M  V30 1973 H 193.792 -1.11463 -3.63703 0
M  V30 1974 H 195.104 -1.25038 -4.82874 0
M  V30 1975 H 194.258 0.784204 -6.0161 0
M  V30 1976 H 192.997 1.01008 -4.77126 0
M  V30 1977 H 192.002 -1.21796 -5.3614 0
M  V30 1978 H 193.227 -1.43145 -6.63842 0
M  V30 1979 H 191.173 0.808883 -6.50994 0
M  V30 1980 H 191.09 -0.584409 -7.53738 0
M  V30 1981 H 192.358 0.581123 -7.77331 0
M  V30 1982 N 196.587 1.43421 -0.653314 0
M  V30 1983 C 197.864 1.95361 -0.0966581 0
M  V30 1984 C 198.244 1.59461 1.38331 0
M  V30 1985 O 197.592 0.879777 2.10884 0
M  V30 1986 C 197.802 3.47311 -0.342988 0
M  V30 1987 C 199.15 4.23875 -0.24798 0
M  V30 1988 O 200.174 3.55133 -0.275553 0
M  V30 1989 O 199.033 5.4623 -0.171771 0
M  V30 1990 H 196.127 0.826945 0.00956291 0
M  V30 1991 H 198.673 1.5336 -0.726558 0
M  V30 1992 H 197.445 3.66569 -1.36906 0
M  V30 1993 H 197.068 3.9631 0.319975 0
M  V30 1994 N 198.065 0.39524 1.52563 0
M  V30 1995 C 199.476 -0.0774719 1.86539 0
M  V30 1996 C 199.827 -1.45641 1.31466 0
M  V30 1997 O 198.952 -2.06459 0.648367 0
M  V30 1998 C 199.547 -0.147356 3.38479 0
M  V30 1999 C 198.106 -0.564373 3.72145 0
M  V30 2000 C 197.253 0.269919 2.75983 0
M  V30 2001 H 200.204 0.612876 1.46388 0
M  V30 2002 H 200.225 -0.965343 3.68051 0
M  V30 2003 H 199.737 0.856387 3.78534 0
M  V30 2004 H 197.838 -1.57527 3.37663 0
M  V30 2005 H 197.951 -0.318402 4.78041 0
M  V30 2006 H 196.315 -0.265696 2.5331 0
M  V30 2007 H 197.098 1.27175 3.18875 0
M  V30 2008 N 199.544 -1.57102 0.125237 0
M  V30 2009 C 200.507 -2.14471 -0.80838 0
M  V30 2010 C 201.507 -1.0811 -1.19033 0
M  V30 2011 O 202.697 -1.33856 -1.11482 0
M  V30 2012 C 199.829 -2.69005 -2.09402 0
M  V30 2013 H 201.022 -2.98297 -0.309696 0
M  V30 2014 H 198.575 -1.55807 -0.124051 0
M  V30 2015 H 199.31 -1.88785 -2.63687 0
M  V30 2016 H 199.095 -3.46799 -1.82957 0
M  V30 2017 H 200.585 -3.13278 -2.76128 0
M  V30 2018 N 201.022 0.148545 -1.56898 0
M  V30 2019 C 202.268 0.862694 -1.83536 0
M  V30 2020 C 202.601 1.80889 -0.706604 0
M  V30 2021 O 201.876 1.92328 0.289885 0
M  V30 2022 C 202.159 1.63853 -3.20662 0
M  V30 2023 C 202.012 0.713925 -4.44098 0
M  V30 2024 C 203.331 2.60133 -3.54991 0
M  V30 2025 H 200.45 0.312179 -0.667618 0
M  V30 2026 H 203.092 0.127953 -1.89569 0
M  V30 2027 H 201.242 2.26489 -3.1565 0
M  V30 2028 H 202.914 0.098686 -4.61194 0
M  V30 2029 H 201.157 0.0234019 -4.33794 0
M  V30 2030 H 201.828 1.29278 -5.36648 0
M  V30 2031 H 204.304 2.07616 -3.60603 0
M  V30 2032 H 203.18 3.11468 -4.51972 0
M  V30 2033 H 203.441 3.41417 -2.80868 0
M  V30 2034 N 202.5 1.5196 0.417844 0
M  V30 2035 C 203.728 1.69426 1.18753 0
M  V30 2036 C 204.143 0.399955 1.84515 0
M  V30 2037 O 203.5 -0.623288 1.71527 0
M  V30 2038 C 203.551 2.82375 2.25714 0
M  V30 2039 O 203.272 4.06793 1.62638 0
M  V30 2040 C 204.773 3.11277 3.15628 0
M  V30 2041 H 201.993 0.568031 0.357186 0
M  V30 2042 H 204.537 1.98475 0.49273 0
M  V30 2043 H 202.692 2.5587 2.90877 0
M  V30 2044 H 203.106 4.69667 2.3348 0
M  V30 2045 H 204.58 3.93843 3.86771 0
M  V30 2046 H 205.057 2.24473 3.77503 0
M  V30 2047 H 205.663 3.39515 2.56144 0
M  V30 2048 N 203.978 -0.674533 1.42435 0
M  V30 2049 C 204.941 -1.76986 1.45632 0
M  V30 2050 C 205.941 -1.5708 0.343871 0
M  V30 2051 O 207.131 -1.63367 0.604709 0
M  V30 2052 C 204.263 -3.15623 1.28822 0
M  V30 2053 H 205.456 -1.75539 2.43158 0
M  V30 2054 H 203.009 -0.884189 1.28887 0
M  V30 2055 H 203.744 -3.22696 0.322193 0
M  V30 2056 H 203.529 -3.31475 2.09444 0
M  V30 2057 H 205.019 -3.95537 1.33942 0
M  V30 2058 N 205.456 -1.28612 -0.910864 0
M  V30 2059 C 206.366 -1.14643 -2.0468 0
M  V30 2060 C 207.382 -0.0723121 -1.7385 0
M  V30 2061 O 208.558 -0.282178 -1.99413 0
M  V30 2062 C 205.623 -0.812561 -3.37044 0
M  V30 2063 C 204.684 -1.96935 -3.81465 0
M  V30 2064 C 203.917 -1.65131 -5.07511 0
M  V30 2065 O 204.14 -0.567013 -5.67575 0
M  V30 2066 O 203.074 -2.49585 -5.47714 0
M  V30 2067 H 206.9 -2.1001 -2.19384 0
M  V30 2068 H 204.485 -1.07958 -1.03274 0
M  V30 2069 H 206.367 -0.640441 -4.16505 0
M  V30 2070 H 205.042 0.111426 -3.23508 0
M  V30 2071 H 203.949 -2.19664 -3.02818 0
M  V30 2072 H 205.282 -2.87414 -3.99567 0
M  V30 2073 N 206.934 1.1197 -1.10907 0
M  V30 2074 C 207.866 2.17592 -0.720175 0
M  V30 2075 C 208.879 1.60938 0.245495 0
M  V30 2076 O 210.068 1.78476 0.0292245 0
M  V30 2077 C 207.168 3.38873 -0.0427917 0
M  V30 2078 C 206.341 4.25006 -1.03388 0
M  V30 2079 C 205.4 5.24774 -0.387075 0
M  V30 2080 O 204.426 5.59631 -1.03934 0
M  V30 2081 N 205.628 5.74208 0.852407 0
M  V30 2082 H 208.393 2.51567 -1.62893 0
M  V30 2083 H 205.954 1.27439 -0.998543 0
M  V30 2084 H 207.946 4.02703 0.401501 0
M  V30 2085 H 206.516 3.03007 0.768456 0
M  V30 2086 H 205.736 3.57716 -1.65629 0
M  V30 2087 H 207.024 4.79397 -1.70458 0
M  V30 2088 H 206.422 5.48062 1.40161 0
M  V30 2089 H 204.979 6.39901 1.23977 0
M  V30 2090 N 208.412 0.89855 1.29475 0
M  V30 2091 C 209.658 0.524658 1.95896 0
M  V30 2092 C 209.991 -0.926468 1.70676 0
M  V30 2093 O 209.266 -1.65665 1.01908 0
M  V30 2094 C 209.549 0.81633 3.50725 0
M  V30 2095 C 209.402 2.31907 3.85408 0
M  V30 2096 C 210.721 0.302038 4.39062 0
M  V30 2097 H 207.84 0.19209 0.711527 0
M  V30 2098 H 210.482 1.12502 1.53112 0
M  V30 2099 H 208.632 0.305369 3.87298 0
M  V30 2100 H 210.304 2.89949 3.58786 0
M  V30 2101 H 208.547 2.78027 3.32992 0
M  V30 2102 H 209.218 2.47373 4.93468 0
M  V30 2103 H 211.694 0.739551 4.09475 0
M  V30 2104 H 210.57 0.535331 5.46283 0
M  V30 2105 H 210.831 -0.797216 4.34853 0
M  V30 2106 N 209.89 -1.43072 0.660911 0
M  V30 2107 C 211.13 -2.03596 0.181146 0
M  V30 2108 C 211.494 -1.51057 -1.18515 0
M  V30 2109 O 212.695 -2.03275 -1.75877 0
M  V30 2110 C 210.966 -3.56845 0.19911 0
M  V30 2111 S 212.525 -4.38289 -0.211684 0
M  V30 2112 H 209.343 -0.706954 0.0757479 0
M  V30 2113 H 211.945 -1.75027 0.870965 0
M  V30 2114 H 210.649 -3.92583 1.1961 0
M  V30 2115 H 210.18 -3.90067 -0.510996 0
M  V30 2116 H 212.195 -4.74583 -1.44863 0
M  V30 2117 N 211.368 -0.403325 -1.52352 0
M  V30 2118 C 212.3 0.4603 -2.2453 0
M  V30 2119 C 213.313 1.01505 -1.27282 0
M  V30 2120 O 214.502 0.914982 -1.53266 0
M  V30 2121 C 211.602 1.65208 -2.95905 0
M  V30 2122 C 210.775 1.22224 -4.19976 0
M  V30 2123 C 209.834 2.28028 -4.74226 0
M  V30 2124 O 208.86 1.88857 -5.36956 0
M  V30 2125 N 210.062 3.6012 -4.55295 0
M  V30 2126 H 212.827 -0.158156 -2.99282 0
M  V30 2127 H 210.388 -0.230402 -1.60252 0
M  V30 2128 H 212.38 2.35541 -3.29093 0
M  V30 2129 H 210.95 2.17658 -2.24374 0
M  V30 2130 H 210.17 0.34725 -3.92668 0
M  V30 2131 H 211.458 0.911924 -5.00561 0
M  V30 2132 H 210.856 3.94698 -4.05253 0
M  V30 2133 H 209.413 4.26447 -4.92936 0
M  V30 2134 N 212.846 1.57033 -0.133567 0
M  V30 2135 C 213.756 2.19632 0.824564 0
M  V30 2136 C 214.772 1.17666 1.28182 0
M  V30 2137 O 215.948 1.50193 1.3418 0
M  V30 2138 C 213.013 2.79499 2.05137 0
M  V30 2139 C 212.074 3.96548 1.64464 0
M  V30 2140 C 211.307 4.5355 2.81297 0
M  V30 2141 O 211.53 4.09438 3.97136 0
M  V30 2142 O 210.464 5.44018 2.57542 0
M  V30 2143 H 214.29 3.01991 0.321766 0
M  V30 2144 H 211.875 1.49112 0.0927889 0
M  V30 2145 H 213.757 3.17602 2.7696 0
M  V30 2146 H 212.432 2.00162 2.54395 0
M  V30 2147 H 211.339 3.63186 0.897048 0
M  V30 2148 H 212.672 4.77364 1.19934 0
M  V30 2149 N 214.325 -0.140222 1.56975 0
M  V30 2150 C 215.288 -1.15689 1.97861 0
M  V30 2151 C 216.288 -1.3549 0.865974 0
M  V30 2152 O 217.478 -1.32367 1.13246 0
M  V30 2153 C 214.61 -2.51582 2.30042 0
M  V30 2154 H 215.803 -0.805971 2.88867 0
M  V30 2155 H 213.356 -0.383801 1.51515 0
M  V30 2156 H 214.091 -2.91632 1.41849 0
M  V30 2157 H 213.876 -2.38569 3.11171 0
M  V30 2158 H 215.366 -3.24792 2.62488 0
M  V30 2159 N 215.803 -1.52179 -0.40978 0
M  V30 2160 C 217.219 -1.40968 -0.74835 0
M  V30 2161 C 217.419 -0.513657 -1.94843 0
M  V30 2162 O 216.475 0.0208026 -2.52491 0
M  V30 2163 C 217.788 -2.83483 -1.0029 0
M  V30 2164 C 219.336 -2.92821 -1.10565 0
M  V30 2165 C 219.811 -4.36303 -1.39296 0
M  V30 2166 N 221.302 -4.39535 -1.46162 0
M  V30 2167 C 222.037 -5.47614 -1.70018 0
M  V30 2168 N 221.533 -6.65812 -1.91483 0
M  V30 2169 N 223.326 -5.35129 -1.72027 0
M  V30 2170 H 215.477 -2.0897 0.380186 0
M  V30 2171 H 217.74 -0.94185 0.107805 0
M  V30 2172 H 217.446 -3.51168 -0.193461 0
M  V30 2173 H 217.32 -3.24487 -1.92323 0
M  V30 2174 H 219.707 -2.25318 -1.90568 0
M  V30 2175 H 219.788 -2.55276 -0.16369 0
M  V30 2176 H 219.432 -5.04366 -0.598109 0
M  V30 2177 H 219.362 -4.71385 -2.34743 0
M  V30 2178 H 221.853 -3.54332 -1.31367 0
M  V30 2179 H 222.166 -7.43964 -2.09134 0
M  V30 2180 H 220.511 -6.68879 -1.88749 0
M  V30 2181 H 223.702 -4.41764 -1.54796 0
M  V30 2182 H 223.875 -6.19433 -1.9028 0
M  V30 2183 N 217.281 0.66697 -1.42791 0
M  V30 2184 C 218.211 1.79218 -1.49677 0
M  V30 2185 C 219.192 1.66405 -0.352623 0
M  V30 2186 O 220.377 1.85708 -0.567993 0
M  V30 2187 C 217.507 3.17565 -1.40605 0
M  V30 2188 C 216.461 3.45124 -2.53127 0
M  V30 2189 C 215.787 4.83127 -2.29112 0
M  V30 2190 C 217.087 3.41236 -3.95418 0
M  V30 2191 H 218.781 1.73713 -2.43853 0
M  V30 2192 H 216.327 0.83432 -1.17367 0
M  V30 2193 H 218.28 3.96022 -1.44029 0
M  V30 2194 H 217.004 3.23767 -0.429271 0
M  V30 2195 H 215.663 2.69031 -2.49034 0
M  V30 2196 H 215.311 4.85988 -1.29709 0
M  V30 2197 H 215.011 5.02528 -3.04531 0
M  V30 2198 H 216.535 5.63859 -2.34297 0
M  V30 2199 H 217.949 4.09651 -4.01073 0
M  V30 2200 H 216.346 3.72173 -4.70752 0
M  V30 2201 H 217.416 2.39665 -4.21532 0
M  V30 2202 N 218.759 1.29093 0.90403 0
M  V30 2203 C 220.006 1.16813 1.65411 0
M  V30 2204 C 220.334 -0.28128 1.92455 0
M  V30 2205 O 219.589 -1.22006 1.53013 0
M  V30 2206 C 219.888 1.92224 3.01305 0
M  V30 2207 C 219.554 3.41968 2.93885 0
M  V30 2208 C 218.216 3.82807 2.91569 0
M  V30 2209 C 220.568 4.37409 2.83413 0
M  V30 2210 C 217.896 5.1741 2.76594 0
M  V30 2211 C 220.248 5.72097 2.69977 0
M  V30 2212 C 218.912 6.12199 2.66024 0
M  V30 2213 H 218.182 0.42745 0.605283 0
M  V30 2214 H 220.829 1.59981 1.05254 0
M  V30 2215 H 219.134 1.41635 3.65304 0
M  V30 2216 H 220.831 1.80131 3.58265 0
M  V30 2217 H 217.421 3.09504 2.96488 0
M  V30 2218 H 221.605 4.06813 2.84283 0
M  V30 2219 H 216.861 5.47596 2.71935 0
M  V30 2220 H 221.035 6.45704 2.60844 0
M  V30 2221 H 218.662 7.16448 2.54178 0
M  V30 2222 N 220.237 -1.11381 1.11499 0
M  V30 2223 C 221.485 -1.8277 0.862524 0
M  V30 2224 C 221.806 -1.85097 -0.613534 0
M  V30 2225 O 221.076 -1.32198 -1.4457 0
M  V30 2226 H 219.656 -0.676823 0.316101 0
M  V30 2227 H 222.318 -1.34816 1.4075 0
M  V30 2228 H 221.414 -2.86614 1.23527 0
M  V30 2229 N 221.715 -0.905404 -1.28997 0
M  V30 2230 C 222.678 -0.392253 -2.25819 0
M  V30 2231 C 223.678 0.476753 -1.5357 0
M  V30 2232 O 224.868 0.280994 -1.71919 0
M  V30 2233 C 222 0.438588 -3.38067 0
M  V30 2234 H 223.193 -1.24743 -2.72725 0
M  V30 2235 H 220.746 -0.684051 -1.40536 0
M  V30 2236 H 221.481 1.31352 -2.96508 0
M  V30 2237 H 221.266 -0.184167 -3.91667 0
M  V30 2238 H 222.756 0.78873 -4.10084 0
M  V30 2239 N 223.193 1.4272 -0.668489 0
M  V30 2240 C 224.123 2.335 -0.000100175 0
M  V30 2241 C 225.104 1.50328 0.795964 0
M  V30 2242 O 226.289 1.78949 0.754385 0
M  V30 2243 C 223.419 3.33874 0.956302 0
M  V30 2244 C 222.373 4.27152 0.269278 0
M  V30 2245 C 221.699 5.17684 1.33818 0
M  V30 2246 C 222.999 5.15373 -0.847805 0
M  V30 2247 H 224.693 2.89639 -0.758244 0
M  V30 2248 H 222.239 1.39269 -0.366079 0
M  V30 2249 H 224.192 3.9629 1.43292 0
M  V30 2250 H 222.916 2.76025 1.74579 0
M  V30 2251 H 221.575 3.66123 -0.187042 0
M  V30 2252 H 221.223 4.56165 2.1195 0
M  V30 2253 H 220.923 5.80918 0.883659 0
M  V30 2254 H 222.447 5.82974 1.81586 0
M  V30 2255 H 223.861 5.7151 -0.452681 0
M  V30 2256 H 222.258 5.87407 -1.22773 0
M  V30 2257 H 223.328 4.5415 -1.69929 0
M  V30 2258 N 224.671 0.411399 1.52136 0
M  V30 2259 C 225.603 -0.448386 2.24771 0
M  V30 2260 C 226.616 -1.00828 1.27818 0
M  V30 2261 O 227.805 -0.906841 1.53749 0
M  V30 2262 C 224.905 -1.63636 2.96777 0
M  V30 2263 C 224.078 -1.19995 4.20618 0
M  V30 2264 C 223.137 -2.25509 4.75428 0
M  V30 2265 O 222.163 -1.86007 5.3795 0
M  V30 2266 N 223.365 -3.577 4.57199 0
M  V30 2267 H 226.13 0.174025 2.99194 0
M  V30 2268 H 223.691 0.238897 1.60128 0
M  V30 2269 H 225.683 -2.33793 3.30338 0
M  V30 2270 H 224.253 -2.16465 2.25526 0
M  V30 2271 H 223.473 -0.326421 3.92846 0
M  V30 2272 H 224.761 -0.885365 5.01038 0
M  V30 2273 H 224.159 -3.92543 4.07341 0
M  V30 2274 H 222.716 -4.23827 4.95191 0
M  V30 2275 N 226.149 -1.5696 0.141893 0
M  V30 2276 C 227.099 -2.13074 -0.811383 0
M  V30 2277 C 228.083 -1.05726 -1.21288 0
M  V30 2278 O 229.275 -1.31914 -1.18015 0
M  V30 2279 C 226.404 -2.75186 -2.0525 0
M  V30 2280 C 225.49 -3.8965 -1.67432 0
M  V30 2281 N 225.881 -4.95733 -1.0041 0
M  V30 2282 C 224.179 -4.00262 -1.96739 0
M  V30 2283 C 224.88 -5.75858 -0.822345 0
M  V30 2284 N 223.856 -5.26452 -1.3546 0
M  V30 2285 H 227.658 -2.92465 -0.290031 0
M  V30 2286 H 225.172 -1.6229 -0.0598218 0
M  V30 2287 H 227.169 -3.13745 -2.74535 0
M  V30 2288 H 225.829 -1.97266 -2.57907 0
M  V30 2289 H 226.84 -5.13607 -0.665441 0
M  V30 2290 H 223.517 -3.33412 -2.51282 0
M  V30 2291 H 224.907 -6.71254 -0.294496 0
M  V30 2292 N 227.627 0.131896 -1.57047 0
M  V30 2293 C 229.038 0.690407 -1.73465 0
M  V30 2294 C 229.389 1.8094 -0.758629 0
M  V30 2295 O 228.514 2.16282 0.0713813 0
M  V30 2296 C 229.109 1.25916 -3.14532 0
M  V30 2297 C 227.668 1.76409 -3.32501 0
M  V30 2298 C 226.815 0.658579 -2.69366 0
M  V30 2299 H 229.766 -0.0939144 -1.58422 0
M  V30 2300 H 229.787 2.12892 -3.15369 0
M  V30 2301 H 229.299 0.444515 -3.85546 0
M  V30 2302 H 227.4 2.60391 -2.66509 0
M  V30 2303 H 227.513 1.88241 -4.4057 0
M  V30 2304 H 225.877 1.08899 -2.30246 0
M  V30 2305 H 226.66 -0.14487 -3.42994 0
M  V30 2306 N 229.106 1.52395 0.401703 0
M  V30 2307 C 230.054 1.7689 1.51039 0
M  V30 2308 C 231.048 0.636298 1.56996 0
M  V30 2309 O 232.254 0.818507 1.60314 0
M  V30 2310 H 228.629 0.559502 0.502456 0
M  V30 2311 H 230.6 2.69757 1.27568 0
M  V30 2312 C 229.349 1.94331 2.88324 0
M  V30 2313 H 228.672 2.80905 2.84486 0
M  V30 2314 H 230.112 2.15466 3.65172 0
M  V30 2315 C 228.571 0.712396 3.29282 0
M  V30 2316 O 229.101 -0.116218 4.01532 0
M  V30 2317 N 227.307 0.546154 2.85422 0
M  V30 2318 H 226.854 1.22156 2.26794 0
M  V30 2319 H 226.812 -0.276113 3.13185 0
M  V30 2320 N 230.584 -0.659388 1.43143 0
M  V30 2321 C 231.833 -1.41518 1.43721 0
M  V30 2322 C 232.146 -1.95499 0.0628176 0
M  V30 2323 O 233.352 -2.71446 -0.0539683 0
M  V30 2324 C 231.808 -2.5608 2.52885 0
M  V30 2325 C 231.416 -2.08733 3.96402 0
M  V30 2326 C 233.16 -3.3349 2.62649 0
M  V30 2327 C 231.067 -3.20469 4.97045 0
M  V30 2328 H 229.997 -0.531705 0.534608 0
M  V30 2329 H 232.648 -0.712343 1.69109 0
M  V30 2330 H 231.03 -3.28805 2.20688 0
M  V30 2331 H 232.204 -1.43059 4.3803 0
M  V30 2332 H 230.519 -1.44219 3.90627 0
M  V30 2333 H 233.116 -4.16734 3.35017 0
M  V30 2334 H 233.459 -3.8111 1.67513 0
M  V30 2335 H 233.992 -2.67842 2.94118 0
M  V30 2336 H 230.731 -2.77824 5.93712 0
M  V30 2337 H 230.251 -3.84874 4.60034 0
M  V30 2338 H 231.93 -3.85698 5.19467 0
M  V30 2339 N 232.062 -1.29571 -0.897171 0
M  V30 2340 C 233.311 -1.1706 -1.64256 0
M  V30 2341 C 233.624 0.276476 -1.93636 0
M  V30 2342 O 234.83 0.52294 -2.66416 0
M  V30 2343 C 233.286 -2.0475 -2.95982 0
M  V30 2344 C 232.894 -3.54295 -2.74187 0
M  V30 2345 C 234.638 -2.0097 -3.73914 0
M  V30 2346 C 232.545 -4.34081 -4.01656 0
M  V30 2347 H 231.475 -0.43452 -0.616205 0
M  V30 2348 H 234.126 -1.54229 -0.994268 0
M  V30 2349 H 232.508 -1.60452 -3.62038 0
M  V30 2350 H 233.682 -4.06662 -2.1671 0
M  V30 2351 H 231.997 -3.59773 -2.09648 0
M  V30 2352 H 234.594 -2.57838 -4.68427 0
M  V30 2353 H 234.937 -0.990273 -4.0435 0
M  V30 2354 H 235.47 -2.43325 -3.14703 0
M  V30 2355 H 232.209 -5.36671 -3.76384 0
M  V30 2356 H 231.729 -3.86483 -4.58684 0
M  V30 2357 H 233.408 -4.44877 -4.69781 0
M  V30 2358 N 233.54 1.10788 -1.12088 0
M  V30 2359 C 234.503 2.15207 -0.788577 0
M  V30 2360 C 235.503 1.59609 0.195317 0
M  V30 2361 O 236.693 1.74174 -0.0300193 0
M  V30 2362 C 233.825 3.4047 -0.171174 0
M  V30 2363 H 235.018 2.46116 -1.71368 0
M  V30 2364 H 232.571 1.26089 -0.923652 0
M  V30 2365 H 233.306 3.15176 0.763832 0
M  V30 2366 H 233.091 3.82109 -0.879514 0
M  V30 2367 H 234.581 4.17576 0.04496 0
M  V30 2368 N 235.018 0.912232 1.28515 0
M  V30 2369 C 235.948 0.416403 2.29757 0
M  V30 2370 C 236.929 -0.515194 1.6211 0
M  V30 2371 O 238.114 -0.423253 1.89532 0
M  V30 2372 C 235.244 -0.34572 3.45575 0
M  V30 2373 C 234.198 0.496599 4.25109 0
M  V30 2374 C 233.524 -0.393771 5.33248 0
M  V30 2375 C 234.824 1.75307 4.92001 0
M  V30 2376 H 236.518 1.26249 2.7148 0
M  V30 2377 H 234.064 0.608515 1.30511 0
M  V30 2378 H 236.017 -0.703422 4.15488 0
M  V30 2379 H 234.741 -1.2257 3.02728 0
M  V30 2380 H 233.4 0.8368 3.56922 0
M  V30 2381 H 233.048 -1.27225 4.86644 0
M  V30 2382 H 232.748 0.166209 5.87365 0
M  V30 2383 H 234.272 -0.747389 6.06009 0
M  V30 2384 H 235.686 1.46437 5.54283 0
M  V30 2385 H 234.083 2.25534 5.56106 0
M  V30 2386 H 235.153 2.48176 4.16577 0
M  V30 2387 N 236.496 -1.42363 0.676048 0
M  V30 2388 C 237.912 -1.55811 0.345718 0
M  V30 2389 C 238.112 -1.65544 -1.14879 0
M  V30 2390 O 237.168 -1.62306 -1.93424 0
M  V30 2391 C 238.481 -2.80746 1.07713 0
M  V30 2392 C 240.029 -2.9452 1.05958 0
M  V30 2393 C 240.504 -4.22318 1.77233 0
M  V30 2394 N 241.995 -4.29233 1.74108 0
M  V30 2395 C 242.73 -5.26935 2.26113 0
M  V30 2396 N 242.226 -6.30783 2.86505 0
M  V30 2397 N 244.019 -5.18741 2.1648 0
M  V30 2398 H 236.17 -1.34289 1.6456 0
M  V30 2399 H 238.433 -0.646506 0.69335 0
M  V30 2400 H 238.139 -2.79696 2.13221 0
M  V30 2401 H 238.013 -3.71676 0.64316 0
M  V30 2402 H 240.4 -2.95097 0.0128255 0
M  V30 2403 H 240.481 -2.04817 1.53244 0
M  V30 2404 H 240.125 -4.22502 2.81877 0
M  V30 2405 H 240.055 -5.10958 1.27396 0
M  V30 2406 H 242.546 -3.54814 1.30059 0
M  V30 2407 H 242.859 -7.01691 3.23805 0
M  V30 2408 H 241.204 -6.31341 2.90575 0
M  V30 2409 H 244.395 -4.36533 1.68987 0
M  V30 2410 H 244.568 -5.94721 2.57316 0
M  V30 2411 N 237.974 -0.419461 -1.51915 0
M  V30 2412 C 239.222 0.152637 -2.01523 0
M  V30 2413 C 239.543 1.44762 -1.30649 0
M  V30 2414 O 238.813 1.90997 -0.435535 0
M  V30 2415 H 237.393 0.0593966 -0.744635 0
M  V30 2416 H 240.055 -0.558073 -1.86739 0
M  V30 2417 H 239.151 0.341369 -3.10227 0
M  V30 2418 N 239.452 1.56882 -0.150215 0
M  V30 2419 C 240.415 2.1573 0.774157 0
M  V30 2420 C 241.415 1.0999 1.17298 0
M  V30 2421 O 242.605 1.35613 1.09338 0
M  V30 2422 C 239.737 2.72302 2.05096 0
M  V30 2423 H 240.93 2.98752 0.262201 0
M  V30 2424 H 238.483 1.55985 0.099248 0
M  V30 2425 H 239.218 1.92956 2.6065 0
M  V30 2426 H 239.003 3.49665 1.77416 0
M  V30 2427 H 240.493 3.17632 2.71109 0
M  V30 2428 N 240.93 -0.123565 1.57115 0
M  V30 2429 C 242.17 -0.838097 1.86428 0
M  V30 2430 C 242.534 -1.77266 0.737611 0
M  V30 2431 O 243.735 -2.52842 0.912389 0
M  V30 2432 C 242.006 -1.57219 3.20962 0
M  V30 2433 S 243.565 -2.32893 3.71896 0
M  V30 2434 H 240.383 -0.279811 0.653626 0
M  V30 2435 H 242.985 -0.0967034 1.95261 0
M  V30 2436 H 241.689 -0.877522 4.00909 0
M  V30 2437 H 241.22 -2.35405 3.15195 0
M  V30 2438 H 243.235 -3.5853 3.43032 0
M  V30 2439 N 242.408 -1.52605 -0.393616 0
M  V30 2440 C 243.338 -1.80022 -1.48709 0
M  V30 2441 C 244.319 -0.651995 -1.57108 0
M  V30 2442 O 245.504 -0.89913 -1.72132 0
M  V30 2443 C 242.634 -1.96492 -2.86371 0
M  V30 2444 C 241.588 -3.12161 -2.92813 0
M  V30 2445 C 240.914 -3.13877 -4.3288 0
M  V30 2446 C 242.214 -4.51322 -2.6288 0
M  V30 2447 H 243.908 -2.71589 -1.26015 0
M  V30 2448 H 241.454 -1.30684 -0.604778 0
M  V30 2449 H 243.407 -2.14255 -3.62867 0
M  V30 2450 H 242.131 -1.01611 -3.10391 0
M  V30 2451 H 240.79 -2.94173 -2.18764 0
M  V30 2452 H 240.438 -2.16687 -4.53933 0
M  V30 2453 H 240.138 -3.91576 -4.38112 0
M  V30 2454 H 241.662 -3.33789 -5.1129 0
M  V30 2455 H 243.076 -4.69435 -3.29096 0
M  V30 2456 H 241.473 -5.31053 -2.79468 0
M  V30 2457 H 242.543 -4.58353 -1.58242 0
M  V30 2458 N 243.887 0.651787 -1.4349 0
M  V30 2459 C 244.835 1.78586 -1.49029 0
M  V30 2460 C 245.829 1.65448 -0.363767 0
M  V30 2461 O 247.035 1.71777 -0.537821 0
M  V30 2462 H 243.41 0.589236 -0.467231 0
M  V30 2463 H 245.381 1.71035 -2.44519 0
M  V30 2464 C 244.13 3.16851 -1.43181 0
M  V30 2465 H 243.453 3.27598 -2.29171 0
M  V30 2466 H 244.893 3.96156 -1.51118 0
M  V30 2467 C 243.352 3.36568 -0.149616 0
M  V30 2468 O 243.882 3.93885 0.788509 0
M  V30 2469 N 242.088 2.90539 -0.0593484 0
M  V30 2470 H 241.635 2.4408 -0.823575 0
M  V30 2471 H 241.593 3.04108 0.797853 0
M  V30 2472 N 245.365 1.30045 0.890287 0
M  V30 2473 C 246.776 1.16738 1.45702 0
M  V30 2474 C 247.127 -0.233939 1.948 0
M  V30 2475 O 246.252 -1.13021 1.84541 0
M  V30 2476 C 246.847 2.11313 2.64825 0
M  V30 2477 C 245.406 2.02001 3.17604 0
M  V30 2478 C 244.553 2.01699 1.90296 0
M  V30 2479 H 247.504 1.42392 0.700726 0
M  V30 2480 H 247.525 1.69086 3.40867 0
M  V30 2481 H 247.037 3.13294 2.2906 0
M  V30 2482 H 245.138 1.03142 3.5804 0
M  V30 2483 H 245.251 2.90128 3.81264 0
M  V30 2484 H 243.615 1.46427 2.08402 0
M  V30 2485 H 244.398 3.05402 1.56795 0
M  V30 2486 N 246.843 -1.10192 1.12674 0
M  V30 2487 C 248.254 -1.63707 0.897604 0
M  V30 2488 C 248.605 -1.87812 -0.567546 0
M  V30 2489 O 247.73 -1.62196 -1.43253 0
M  V30 2490 C 248.325 -2.974 1.62292 0
M  V30 2491 C 246.884 -3.47772 1.43986 0
M  V30 2492 C 246.031 -2.22332 1.65722 0
M  V30 2493 H 248.982 -0.936587 1.28116 0
M  V30 2494 H 249.003 -3.64986 1.07541 0
M  V30 2495 H 248.515 -2.79824 2.68924 0
M  V30 2496 H 246.616 -3.70487 0.396206 0
M  V30 2497 H 246.729 -4.25723 2.19765 0
M  V30 2498 H 245.093 -2.30599 1.08149 0
M  V30 2499 H 245.876 -2.07285 2.73657 0
M  V30 2500 N 248.321 -0.919034 -1.28029 0
M  V30 2501 C 249.271 -0.382574 -2.24767 0
M  V30 2502 C 250.255 0.508286 -1.52661 0
M  V30 2503 O 251.447 0.347145 -1.73562 0
M  V30 2504 C 248.576 0.371432 -3.41285 0
M  V30 2505 C 247.662 -0.535449 -4.20706 0
M  V30 2506 N 248.053 -1.65141 -4.78082 0
M  V30 2507 C 246.351 -0.336824 -4.44726 0
M  V30 2508 C 247.052 -2.21475 -5.37888 0
M  V30 2509 N 246.028 -1.50537 -5.22341 0
M  V30 2510 H 249.83 -1.23477 -2.66703 0
M  V30 2511 H 247.344 -0.772299 -1.42861 0
M  V30 2512 H 249.341 0.772638 -4.09678 0
M  V30 2513 H 248.001 1.22066 -3.00882 0
M  V30 2514 H 249.012 -2.03392 -4.7629 0
M  V30 2515 H 245.689 0.47246 -4.14818 0
M  V30 2516 H 247.079 -3.15379 -5.93284 0
M  V30 2517 N 249.799 1.42003 -0.683588 0
M  V30 2518 C 250.729 2.33487 -0.024866 0
M  V30 2519 C 251.71 1.51163 0.779975 0
M  V30 2520 O 252.895 1.79739 0.735362 0
M  V30 2521 C 250.025 3.3487 0.920836 0
M  V30 2522 C 248.979 4.27414 0.223958 0
M  V30 2523 C 248.305 5.19074 1.2832 0
M  V30 2524 C 249.605 5.14445 -0.90242 0
M  V30 2525 H 251.299 2.88819 -0.788921 0
M  V30 2526 H 248.845 1.38873 -0.38083 0
M  V30 2527 H 250.798 3.97787 1.39081 0
M  V30 2528 H 249.522 2.77861 1.71642 0
M  V30 2529 H 248.181 3.65904 -0.225864 0
M  V30 2530 H 247.829 4.58387 2.071 0
M  V30 2531 H 247.529 5.81822 0.821995 0
M  V30 2532 H 249.053 5.84867 1.75392 0
M  V30 2533 H 250.467 5.70998 -0.513272 0
M  V30 2534 H 248.864 5.86072 -1.28997 0
M  V30 2535 H 249.934 4.52322 -1.74737 0
M  V30 2536 N 251.277 0.427512 1.51691 0
M  V30 2537 C 252.517 -0.141524 2.03909 0
M  V30 2538 C 252.881 -1.40811 1.30523 0
M  V30 2539 O 254.082 -2.05676 1.73063 0
M  V30 2540 C 252.353 -0.364962 3.55532 0
M  V30 2541 S 253.912 -0.898812 4.29496 0
M  V30 2542 H 250.73 -0.0364542 0.710065 0
M  V30 2543 H 253.332 0.584659 1.86553 0
M  V30 2544 H 252.036 0.56336 4.06515 0
M  V30 2545 H 251.567 -1.1185 3.77164 0
M  V30 2546 H 253.582 -2.17747 4.45871 0
M  V30 2547 N 252.755 -1.56801 0.158532 0
M  V30 2548 C 253.685 -2.20347 -0.772609 0
M  V30 2549 C 254.666 -1.15518 -1.24859 0
M  V30 2550 O 255.851 -1.43902 -1.30406 0
M  V30 2551 C 252.981 -2.83417 -2.00729 0
M  V30 2552 C 251.935 -3.94174 -1.66765 0
M  V30 2553 C 251.261 -4.44233 -2.97592 0
M  V30 2554 C 252.561 -5.14392 -0.905447 0
M  V30 2555 H 254.255 -2.98413 -0.242959 0
M  V30 2556 H 251.801 -1.43537 -0.115419 0
M  V30 2557 H 253.754 -3.26543 -2.6636 0
M  V30 2558 H 252.478 -2.02701 -2.56086 0
M  V30 2559 H 251.137 -3.51684 -1.03508 0
M  V30 2560 H 250.785 -3.60325 -3.50963 0
M  V30 2561 H 250.485 -5.18945 -2.75626 0
M  V30 2562 H 252.009 -4.90037 -3.64274 0
M  V30 2563 H 253.423 -5.5429 -1.46408 0
M  V30 2564 H 251.82 -5.9494 -0.7853 0
M  V30 2565 H 252.89 -4.84795 0.100668 0
M  V30 2566 N 254.233 0.115231 -1.57178 0
M  V30 2567 C 255.479 0.82357 -1.85325 0
M  V30 2568 C 255.812 1.79349 -0.744814 0
M  V30 2569 O 255.087 1.92899 0.249024 0
M  V30 2570 C 255.37 1.57014 -3.24066 0
M  V30 2571 C 255.223 0.619565 -4.45513 0
M  V30 2572 C 256.542 2.52545 -3.60429 0
M  V30 2573 H 253.661 0.297948 -0.674089 0
M  V30 2574 H 256.303 0.0877138 -1.89797 0
M  V30 2575 H 254.453 2.19742 -3.20383 0
M  V30 2576 H 256.125 0.000837639 -4.613 0
M  V30 2577 H 254.368 -0.0686174 -4.33746 0
M  V30 2578 H 255.039 1.17866 -5.3927 0
M  V30 2579 H 257.515 1.9992 -3.64926 0
M  V30 2580 H 256.391 3.01811 -4.58477 0
M  V30 2581 H 256.652 3.35383 -2.88047 0
M  V30 2582 N 255.711 1.52812 0.385517 0
M  V30 2583 C 256.644 1.72592 1.49289 0
M  V30 2584 C 257.622 0.573819 1.52138 0
M  V30 2585 O 258.806 0.80404 1.70492 0
M  V30 2586 C 255.933 1.78669 2.87741 0
M  V30 2587 C 254.979 3.00455 3.02703 0
M  V30 2588 S 255.812 4.60366 2.73538 0
M  V30 2589 C 256.968 4.69263 4.14177 0
M  V30 2590 H 257.201 2.66248 1.32285 0
M  V30 2591 H 254.734 1.43148 0.578611 0
M  V30 2592 H 256.692 1.82855 3.67524 0
M  V30 2593 H 255.353 0.861 3.02069 0
M  V30 2594 H 254.546 3.01258 4.04054 0
M  V30 2595 H 254.148 2.94278 2.30817 0
M  V30 2596 H 256.44 4.48092 5.08153 0
M  V30 2597 H 257.383 5.71276 4.18388 0
M  V30 2598 H 257.791 3.98072 4.00249 0
M  V30 2599 N 257.189 -0.644168 1.43834 0
M  V30 2600 C 258.099 -1.78563 1.52159 0
M  V30 2601 C 259.115 -1.69147 0.408069 0
M  V30 2602 O 260.291 -1.90156 0.663524 0
M  V30 2603 C 257.356 -3.14888 1.45073 0
M  V30 2604 C 256.417 -3.36034 2.6717 0
M  V30 2605 C 255.65 -4.65855 2.60413 0
M  V30 2606 O 255.873 -5.45805 1.65689 0
M  V30 2607 O 254.807 -4.88918 3.5106 0
M  V30 2608 H 258.633 -1.74494 2.48567 0
M  V30 2609 H 256.218 -0.80378 1.25935 0
M  V30 2610 H 258.1 -3.96179 1.43597 0
M  V30 2611 H 256.775 -3.19528 0.518037 0
M  V30 2612 H 255.682 -2.54472 2.74217 0
M  V30 2613 H 257.015 -3.36247 3.59442 0
M  V30 2614 N 258.668 -1.30515 -0.883378 0
M  V30 2615 C 259.898 -1.22182 -1.66599 0
M  V30 2616 C 260.306 0.217507 -1.87946 0
M  V30 2617 O 259.649 1.1554 -1.42815 0
M  V30 2618 C 259.711 -1.88146 -3.06335 0
M  V30 2619 C 259.375 -3.37476 -3.08154 0
M  V30 2620 C 260.372 -4.33443 -2.87094 0
M  V30 2621 C 258.057 -3.7895 -3.29701 0
M  V30 2622 C 260.051 -5.68858 -2.8754 0
M  V30 2623 C 257.738 -5.14482 -3.29776 0
M  V30 2624 C 258.736 -6.09246 -3.0872 0
M  V30 2625 O 258.424 -7.42302 -3.08615 0
M  V30 2626 H 258.156 -0.423898 -0.52658 0
M  V30 2627 H 260.71 -1.72703 -1.11188 0
M  V30 2628 H 258.94 -1.32157 -3.63416 0
M  V30 2629 H 260.629 -1.7391 -3.66756 0
M  V30 2630 H 261.395 -4.02733 -2.70243 0
M  V30 2631 H 257.274 -3.05631 -3.45124 0
M  V30 2632 H 260.818 -6.428 -2.71024 0
M  V30 2633 H 256.715 -5.44832 -3.46163 0
M  V30 2634 H 257.483 -7.5131 -3.24769 0
M  V30 2635 N 260.146 1.09593 -1.13257 0
M  V30 2636 C 261.109 2.14359 -0.811358 0
M  V30 2637 C 262.109 1.59808 0.178377 0
M  V30 2638 O 263.299 1.74132 -0.0484911 0
M  V30 2639 C 260.431 3.40269 -0.207276 0
M  V30 2640 H 261.624 2.44284 -1.73969 0
M  V30 2641 H 259.177 1.25102 -0.936973 0
M  V30 2642 H 259.912 3.15969 0.73036 0
M  V30 2643 H 259.697 3.81154 -0.919992 0
M  V30 2644 H 261.187 4.176 0.000667944 0
M  V30 2645 N 261.624 0.925811 1.2754 0
M  V30 2646 C 263.04 0.625767 1.46821 0
M  V30 2647 C 263.24 -0.825506 1.83814 0
M  V30 2648 O 262.296 -1.60356 1.95044 0
M  V30 2649 C 263.609 1.57402 2.56213 0
M  V30 2650 C 265.157 1.58204 2.70075 0
M  V30 2651 C 265.632 2.51721 3.82623 0
M  V30 2652 N 267.123 2.49917 3.89994 0
M  V30 2653 C 267.858 3.18968 4.76494 0
M  V30 2654 N 267.354 3.97391 5.67496 0
M  V30 2655 N 269.147 3.07996 4.70208 0
M  V30 2656 H 261.298 1.86409 1.01811 0
M  V30 2657 H 263.561 0.800213 0.508295 0
M  V30 2658 H 263.267 2.60925 2.35819 0
M  V30 2659 H 263.141 1.31428 3.53563 0
M  V30 2660 H 265.528 0.554124 2.89851 0
M  V30 2661 H 265.609 1.88226 1.73218 0
M  V30 2662 H 265.253 3.54622 3.63601 0
M  V30 2663 H 265.183 2.18996 4.78903 0
M  V30 2664 H 267.674 1.9296 3.24923 0
M  V30 2665 H 267.987 4.4707 6.30356 0
M  V30 2666 H 266.332 4.01495 5.67298 0
M  V30 2667 H 269.523 2.46223 3.9811 0
M  V30 2668 H 269.696 3.6208 5.37403 0
M  V30 2669 N 263.102 -1.41638 0.69111 0
M  V30 2670 C 264.35 -2.00902 0.219758 0
M  V30 2671 C 264.671 -1.54994 -1.18329 0
M  V30 2672 O 263.941 -0.778628 -1.79762 0
M  V30 2673 H 262.521 -0.74289 0.0782558 0
M  V30 2674 H 265.183 -1.73327 0.891271 0
M  V30 2675 H 264.279 -3.11224 0.233708 0
M  V30 2676 N 264.58 -0.43555 -1.51462 0
M  V30 2677 C 265.828 0.131254 -2.01673 0
M  V30 2678 C 266.149 1.43368 -1.32177 0
M  V30 2679 O 265.419 1.90524 -0.455769 0
M  V30 2680 H 263.999 0.0514954 -0.745223 0
M  V30 2681 H 266.661 -0.577847 -1.86137 0
M  V30 2682 H 265.757 0.308446 -3.10572 0
M  V30 2683 N 266.058 1.56714 -0.166846 0
M  V30 2684 C 267.021 2.16539 0.751232 0
M  V30 2685 C 268.021 1.11228 1.16125 0
M  V30 2686 O 269.211 1.36765 1.07894 0
M  V30 2687 C 266.343 2.74462 2.02196 0
M  V30 2688 H 267.536 2.99013 0.230499 0
M  V30 2689 H 265.089 1.56081 0.0826982 0
M  V30 2690 H 265.824 1.95709 2.58589 0
M  V30 2691 H 265.609 3.51527 1.73698 0
M  V30 2692 H 267.099 3.20489 2.67725 0
M  V30 2693 N 267.536 -0.106894 1.57237 0
M  V30 2694 C 268.466 -1.13148 2.04254 0
M  V30 2695 C 269.447 -1.42476 0.929224 0
M  V30 2696 O 270.632 -1.52709 1.19973 0
M  V30 2697 C 267.762 -2.4545 2.45706 0
M  V30 2698 C 266.716 -2.30558 3.60592 0
M  V30 2699 C 266.042 -3.67931 3.87983 0
M  V30 2700 C 267.342 -1.75597 4.91897 0
M  V30 2701 H 269.036 -0.740374 2.90101 0
M  V30 2702 H 266.582 -0.354696 1.39563 0
M  V30 2703 H 268.535 -3.17389 2.77205 0
M  V30 2704 H 267.259 -2.86475 1.56843 0
M  V30 2705 H 265.918 -1.61067 3.29322 0
M  V30 2706 H 265.566 -4.06462 2.96306 0
M  V30 2707 H 265.266 -3.58817 4.65322 0
M  V30 2708 H 266.79 -4.41356 4.21945 0
M  V30 2709 H 268.204 -2.37364 5.21854 0
M  V30 2710 H 266.601 -1.77272 5.73319 0
M  V30 2711 H 267.671 -0.714451 4.79608 0
M  V30 2712 N 269.014 -1.53014 -0.377408 0
M  V30 2713 C 270.239 -1.72818 -1.14668 0
M  V30 2714 C 270.664 -0.450725 -1.8262 0
M  V30 2715 O 270.022 0.59439 -1.7128 0
M  V30 2716 C 270.07 -2.88627 -2.16164 0
M  V30 2717 O 269.174 -2.56409 -3.22998 0
M  V30 2718 H 268.515 -0.574301 -0.333278 0
M  V30 2719 H 271.045 -1.99853 -0.438152 0
M  V30 2720 H 271.055 -3.14455 -2.59966 0
M  V30 2721 H 269.73 -3.81294 -1.66095 0
M  V30 2722 H 268.307 -2.4136 -2.84253 0
M  V30 2723 N 270.492 0.636531 -1.44174 0
M  V30 2724 C 271.908 0.954104 -1.27941 0
M  V30 2725 C 272.108 2.0039 -0.211248 0
M  V30 2726 O 271.164 2.49236 0.404695 0
M  V30 2727 C 272.477 1.4225 -2.64925 0
M  V30 2728 C 274.025 1.53827 -2.72592 0
M  V30 2729 C 274.5 2.04053 -4.10032 0
M  V30 2730 N 275.991 2.11331 -4.12182 0
M  V30 2731 C 276.726 2.51352 -5.15374 0
M  V30 2732 N 276.222 2.90549 -6.2893 0
M  V30 2733 N 278.015 2.51438 -5.02728 0
M  V30 2734 H 270.166 -0.0578386 -2.12321 0
M  V30 2735 H 272.429 0.0367406 -0.947288 0
M  V30 2736 H 272.135 0.725466 -3.44136 0
M  V30 2737 H 272.009 2.39451 -2.9145 0
M  V30 2738 H 274.396 2.22628 -1.93702 0
M  V30 2739 H 274.477 0.550154 -2.49814 0
M  V30 2740 H 274.121 1.35848 -4.89395 0
M  V30 2741 H 274.051 3.03726 -4.30184 0
M  V30 2742 H 276.542 1.83745 -3.30222 0
M  V30 2743 H 276.855 3.19884 -7.03487 0
M  V30 2744 H 275.2 2.88313 -6.32377 0
M  V30 2745 H 278.391 2.20203 -4.13072 0
M  V30 2746 H 278.564 2.82304 -5.83274 0
M  V30 2747 N 271.97 1.30982 0.876444 0
M  V30 2748 C 273.216 1.20474 1.63138 0
M  V30 2749 C 273.549 -0.238096 1.92735 0
M  V30 2750 O 272.824 -1.1692 1.55435 0
M  V30 2751 C 273.107 2.04244 2.96574 0
M  V30 2752 C 272.96 3.56793 2.73896 0
M  V30 2753 C 274.279 1.88684 3.97601 0
M  V30 2754 H 271.398 0.439001 0.591985 0
M  V30 2755 H 274.04 1.60704 1.01361 0
M  V30 2756 H 272.19 1.70063 3.493 0
M  V30 2757 H 273.862 4.01077 2.27892 0
M  V30 2758 H 272.105 3.80548 2.08245 0
M  V30 2759 H 272.776 4.10706 3.68815 0
M  V30 2760 H 275.252 2.18584 3.54062 0
M  V30 2761 H 274.128 2.4961 4.88862 0
M  V30 2762 H 274.389 0.848343 4.33884 0
M  V30 2763 N 273.449 -1.08991 1.13837 0
M  V30 2764 C 274.379 -2.17771 0.842507 0
M  V30 2765 C 275.36 -1.6892 -0.20001 0
M  V30 2766 O 276.545 -1.94113 -0.0579731 0
M  V30 2767 C 273.675 -3.4589 0.312644 0
M  V30 2768 C 272.629 -4.08099 1.28992 0
M  V30 2769 C 271.955 -5.31098 0.619623 0
M  V30 2770 C 273.255 -4.50077 2.65005 0
M  V30 2771 H 274.949 -2.42777 1.75213 0
M  V30 2772 H 272.495 -1.16682 0.843875 0
M  V30 2773 H 274.448 -4.21297 0.0933043 0
M  V30 2774 H 273.172 -3.20419 -0.632382 0
M  V30 2775 H 271.831 -3.34717 1.49533 0
M  V30 2776 H 271.479 -5.0191 -0.33102 0
M  V30 2777 H 271.179 -5.73674 1.27167 0
M  V30 2778 H 272.703 -6.09224 0.409669 0
M  V30 2779 H 274.117 -5.16688 2.48407 0
M  V30 2780 H 272.514 -5.03553 3.26427 0
M  V30 2781 H 273.584 -3.62257 3.22332 0
M  V30 2782 N 274.927 -0.932562 -1.27047 0
M  V30 2783 C 275.89 -0.440064 -2.24936 0
M  V30 2784 C 276.89 0.444071 -1.54547 0
M  V30 2785 O 278.08 0.244465 -1.72476 0
M  V30 2786 C 275.212 0.36678 -3.38921 0
M  V30 2787 H 276.405 -1.305 -2.70018 0
M  V30 2788 H 273.958 -0.713707 -1.39054 0
M  V30 2789 H 274.693 1.25033 -2.99228 0
M  V30 2790 H 274.478 -0.267204 -3.91188 0
M  V30 2791 H 275.968 0.701567 -4.11665 0
M  V30 2792 N 276.405 1.4127 -0.698611 0
M  V30 2793 C 277.653 2.00782 -0.230409 0
M  V30 2794 C 277.974 1.5562 1.17505 0
M  V30 2795 O 277.244 0.78815 1.79346 0
M  V30 2796 H 275.824 0.742464 -0.0821944 0
M  V30 2797 H 278.486 1.72852 -0.90045 0
M  V30 2798 H 277.582 3.11095 -0.25021 0
M  V30 2799 N 277.883 0.443576 1.51229 0
M  V30 2800 C 279.299 0.0962001 1.5931 0
M  V30 2801 C 279.499 -1.39501 1.45402 0
M  V30 2802 O 278.555 -2.16557 1.29843 0
M  V30 2803 C 279.868 0.621875 2.94199 0
M  V30 2804 C 281.416 0.582865 3.07525 0
M  V30 2805 C 281.891 1.08562 4.44948 0
M  V30 2806 N 283.382 1.04387 4.51284 0
M  V30 2807 C 284.117 1.40368 5.55954 0
M  V30 2808 N 283.613 1.83664 6.68011 0
M  V30 2809 N 285.406 1.32145 5.46346 0
M  V30 2810 H 277.557 1.41376 1.58514 0
M  V30 2811 H 279.82 0.582965 0.747567 0
M  V30 2812 H 279.526 1.66546 3.09767 0
M  V30 2813 H 279.4 0.0502125 3.77167 0
M  V30 2814 H 281.787 -0.451749 2.91622 0
M  V30 2815 H 281.868 1.191 2.26382 0
M  V30 2816 H 281.512 2.11873 4.61598 0
M  V30 2817 H 281.442 0.453956 5.2464 0
M  V30 2818 H 283.933 0.725986 3.70861 0
M  V30 2819 H 284.246 2.0934 7.43906 0
M  V30 2820 H 282.591 1.87596 6.69203 0
M  V30 2821 H 285.782 0.981808 4.57688 0
M  V30 2822 H 285.955 1.60514 6.27805 0
M  V30 2823 N 279.361 -1.56624 0.175154 0
M  V30 2824 C 280.777 -1.58571 -0.180966 0
M  V30 2825 C 280.977 -1.19065 -1.6256 0
M  V30 2826 O 280.033 -0.904044 -2.35761 0
M  V30 2827 C 281.346 -3.00522 0.103326 0
M  V30 2828 C 282.894 -3.12972 0.0418426 0
M  V30 2829 C 283.369 -4.57022 0.299175 0
M  V30 2830 N 284.86 -4.62541 0.247086 0
M  V30 2831 C 285.595 -5.71857 0.420318 0
M  V30 2832 N 285.091 -6.89717 0.652816 0
M  V30 2833 N 286.884 -5.60972 0.355957 0
M  V30 2834 H 279.035 -1.80589 1.11809 0
M  V30 2835 H 281.298 -0.837178 0.444788 0
M  V30 2836 H 281.004 -3.33916 1.10422 0
M  V30 2837 H 280.878 -3.72344 -0.603299 0
M  V30 2838 H 283.265 -2.79403 -0.949636 0
M  V30 2839 H 283.346 -2.43578 0.781238 0
M  V30 2840 H 282.99 -4.913 1.28788 0
M  V30 2841 H 282.92 -5.24579 -0.460876 0
M  V30 2842 H 285.411 -3.77829 0.0731895 0
M  V30 2843 H 285.724 -7.68911 0.774347 0
M  V30 2844 H 284.069 -6.91572 0.689476 0
M  V30 2845 H 287.26 -4.67773 0.174882 0
M  V30 2846 H 287.433 -6.46111 0.494388 0
M  V30 2847 N 280.839 0.0985539 -1.57292 0
M  V30 2848 C 282.085 0.803867 -1.86188 0
M  V30 2849 C 282.418 1.78549 -0.763794 0
M  V30 2850 O 281.693 1.93153 0.22855 0
M  V30 2851 C 281.976 1.53568 -3.25713 0
M  V30 2852 C 281.829 0.572277 -4.46145 0
M  V30 2853 C 283.148 2.48708 -3.63087 0
M  V30 2854 H 280.267 0.290781 -0.677211 0
M  V30 2855 H 282.909 0.0675783 -1.8988 0
M  V30 2856 H 281.059 2.16332 -3.22696 0
M  V30 2857 H 282.731 -0.0480894 -4.61275 0
M  V30 2858 H 280.974 -0.114618 -4.33649 0
M  V30 2859 H 281.645 1.12139 -5.40489 0
M  V30 2860 H 284.121 1.96039 -3.67026 0
M  V30 2861 H 282.997 2.96932 -4.61652 0
M  V30 2862 H 283.258 3.32309 -2.91588 0
M  V30 2863 N 282.317 1.53212 0.369288 0
M  V30 2864 C 283.728 1.60943 0.946276 0
M  V30 2865 C 284.079 0.47452 1.90375 0
M  V30 2866 O 283.204 -0.399597 2.12679 0
M  V30 2867 C 283.799 2.91715 1.72302 0
M  V30 2868 C 282.358 3.01792 2.24941 0
M  V30 2869 C 281.505 2.56211 1.06072 0
M  V30 2870 H 284.456 1.58007 0.148198 0
M  V30 2871 H 284.477 2.79309 2.58393 0
M  V30 2872 H 283.989 3.74295 1.0259 0
M  V30 2873 H 282.09 2.23791 2.97906 0
M  V30 2874 H 282.203 4.06803 2.53077 0
M  V30 2875 H 280.567 2.10998 1.4266 0
M  V30 2876 H 281.35 3.41206 0.378639 0
M  V30 2877 N 283.795 -0.628877 1.44509 0
M  V30 2878 C 285.206 -1.21054 1.42137 0
M  V30 2879 C 285.557 -1.95715 0.137881 0
M  V30 2880 O 284.682 -2.02554 -0.761645 0
M  V30 2881 C 285.277 -2.20189 2.57493 0
M  V30 2882 C 283.836 -2.73777 2.58308 0
M  V30 2883 C 282.983 -1.48813 2.33987 0
M  V30 2884 H 285.934 -0.41942 1.53057 0
M  V30 2885 H 285.955 -3.02833 2.30375 0
M  V30 2886 H 285.467 -1.6582 3.50892 0
M  V30 2887 H 283.568 -3.32142 1.68856 0
M  V30 2888 H 283.681 -3.19662 3.56865 0
M  V30 2889 H 282.045 -1.77024 1.83124 0
M  V30 2890 H 282.828 -0.963442 3.29504 0
M  V30 2891 N 285.273 -1.31445 -0.869486 0
M  V30 2892 C 286.223 -1.15731 -1.96444 0
M  V30 2893 C 287.207 -0.0681855 -1.60755 0
M  V30 2894 O 288.399 -0.293154 -1.74555 0
M  V30 2895 C 285.528 -0.867255 -3.32165 0
M  V30 2896 C 284.614 -1.99738 -3.74119 0
M  V30 2897 N 285.005 -3.24447 -3.88031 0
M  V30 2898 C 283.303 -1.89723 -4.03635 0
M  V30 2899 C 284.004 -3.98374 -4.23879 0
M  V30 2900 N 282.98 -3.26547 -4.3459 0
M  V30 2901 H 286.782 -2.10296 -2.05312 0
M  V30 2902 H 284.296 -1.23009 -1.06031 0
M  V30 2903 H 286.293 -0.735668 -4.10358 0
M  V30 2904 H 284.953 0.0701614 -3.24624 0
M  V30 2905 H 285.964 -3.59557 -3.72746 0
M  V30 2906 H 282.641 -1.03449 -4.04481 0
M  V30 2907 H 284.031 -5.05844 -4.42235 0
M  V30 2908 N 286.751 1.08385 -1.14413 0
M  V30 2909 C 287.997 1.81044 -0.913834 0
M  V30 2910 C 288.33 1.86004 0.558209 0
M  V30 2911 O 287.605 1.33606 1.4135 0
M  V30 2912 C 287.888 3.26648 -1.51569 0
M  V30 2913 C 287.741 3.29895 -3.0576 0
M  V30 2914 C 289.06 4.23629 -1.19273 0
M  V30 2915 H 286.179 0.65727 -0.333414 0
M  V30 2916 H 288.821 1.26896 -1.41412 0
M  V30 2917 H 286.971 3.72889 -1.09023 0
M  V30 2918 H 288.643 2.91977 -3.57137 0
M  V30 2919 H 286.886 2.69163 -3.40197 0
M  V30 2920 H 287.557 4.32516 -3.42977 0
M  V30 2921 H 290.033 3.85727 -1.56057 0
M  V30 2922 H 288.909 5.23822 -1.64017 0
M  V30 2923 H 289.17 4.41968 -0.108068 0
M  V30 2924 N 288.23 0.939286 1.26551 0
M  V30 2925 C 289.16 0.465044 2.28822 0
M  V30 2926 C 290.141 -0.480692 1.63167 0
M  V30 2927 O 291.326 -0.382955 1.90387 0
M  V30 2928 C 288.456 -0.27234 3.46231 0
M  V30 2929 C 287.41 0.58666 4.2396 0
M  V30 2930 C 286.736 -0.280573 5.33963 0
M  V30 2931 C 288.036 1.85704 4.88171 0
M  V30 2932 H 289.73 1.31979 2.68741 0
M  V30 2933 H 287.276 0.636061 1.29191 0
M  V30 2934 H 289.229 -0.615133 4.16886 0
M  V30 2935 H 287.953 -1.16121 3.0526 0
M  V30 2936 H 286.612 0.91232 3.55067 0
M  V30 2937 H 286.26 -1.16874 4.89234 0
M  V30 2938 H 285.96 0.29076 5.8688 0
M  V30 2939 H 287.484 -0.618678 6.07458 0
M  V30 2940 H 288.898 1.58161 5.51052 0
M  V30 2941 H 287.295 2.37279 5.51197 0
M  V30 2942 H 288.365 2.56957 4.11219 0
M  V30 2943 N 289.708 -1.40897 0.706093 0
M  V30 2944 C 290.954 -2.01352 0.241889 0
M  V30 2945 C 291.287 -1.55832 -1.15888 0
M  V30 2946 O 290.562 -0.774145 -1.7843 0
M  V30 2947 C 290.845 -3.58752 0.311311 0
M  V30 2948 C 290.698 -4.1437 1.74978 0
M  V30 2949 C 292.017 -4.38914 -0.322922 0
M  V30 2950 H 289.136 -0.731562 0.0893687 0
M  V30 2951 H 291.778 -1.67504 0.896802 0
M  V30 2952 H 289.928 -3.87718 -0.246302 0
M  V30 2953 H 291.6 -3.96239 2.36205 0
M  V30 2954 H 289.843 -3.69016 2.28057 0
M  V30 2955 H 290.514 -5.23532 1.74981 0
M  V30 2956 H 292.99 -4.15822 0.152089 0
M  V30 2957 H 291.866 -5.48358 -0.243855 0
M  V30 2958 H 292.127 -4.19176 -1.40513 0
M  V30 2959 N 291.186 -0.45159 -1.50991 0
M  V30 2960 C 292.134 0.366864 -2.29689 0
M  V30 2961 C 293.128 1.00809 -1.36139 0
M  V30 2962 O 294.334 0.941427 -1.53418 0
M  V30 2963 H 290.709 0.137133 -0.739391 0
M  V30 2964 H 292.68 -0.317538 -2.96706 0
M  V30 2965 C 291.429 1.44751 -3.16137 0
M  V30 2966 H 290.752 0.963473 -3.88017 0
M  V30 2967 H 292.192 1.99315 -3.74232 0
M  V30 2968 C 290.651 2.43869 -2.32442 0
M  V30 2969 O 291.181 3.4872 -1.99392 0
M  V30 2970 N 289.387 2.15105 -1.95392 0
M  V30 2971 H 288.934 1.29866 -2.22469 0
M  V30 2972 H 288.892 2.81661 -1.39693 0
M  V30 2973 N 292.664 1.56529 -0.183458 0
M  V30 2974 C 293.91 1.98304 0.452466 0
M  V30 2975 C 294.265 1.06799 1.60037 0
M  V30 2976 O 293.558 0.110049 1.91284 0
M  V30 2977 C 293.752 3.43939 0.971637 0
M  V30 2978 C 293.581 4.49528 -0.124425 0
M  V30 2979 C 292.351 5.01981 -0.578168 0
M  V30 2980 C 294.549 5.05836 -0.929207 0
M  V30 2981 N 292.531 5.91219 -1.65327 0
M  V30 2982 C 293.902 5.91632 -1.85396 0
M  V30 2983 C 295.957 4.88302 -0.972929 0
M  V30 2984 C 294.66 6.61768 -2.81878 0
M  V30 2985 C 296.686 5.59168 -1.92574 0
M  V30 2986 C 296.048 6.44701 -2.83795 0
M  V30 2987 H 292.147 0.770551 0.133324 0
M  V30 2988 H 294.731 1.92581 -0.286473 0
M  V30 2989 H 292.902 3.50184 1.68006 0
M  V30 2990 H 294.634 3.72702 1.5772 0
M  V30 2991 H 291.389 4.73282 -0.173639 0
M  V30 2992 H 291.813 6.40543 -2.19167 0
M  V30 2993 H 296.455 4.21861 -0.28168 0
M  V30 2994 H 294.173 7.27415 -3.51984 0
M  V30 2995 H 297.759 5.47582 -1.96583 0
M  V30 2996 H 296.639 6.98573 -3.56322 0
M  V30 2997 N 294.142 -0.090211 1.57342 0
M  V30 2998 C 295.105 -1.09335 2.01441 0
M  V30 2999 C 296.105 -1.32666 0.908641 0
M  V30 3000 O 297.295 -1.28697 1.174 0
M  V30 3001 C 294.427 -2.44136 2.3793 0
M  V30 3002 H 295.62 -0.713662 2.91285 0
M  V30 3003 H 293.173 -0.335404 1.52659 0
M  V30 3004 H 293.908 -2.86972 1.51055 0
M  V30 3005 H 293.693 -2.28548 3.18603 0
M  V30 3006 H 295.183 -3.16277 2.72688 0
M  V30 3007 N 295.62 -1.53406 -0.361157 0
M  V30 3008 C 296.866 -1.70054 -1.10496 0
M  V30 3009 C 297.199 -0.453278 -1.88836 0
M  V30 3010 O 296.474 0.5495 -1.86576 0
M  V30 3011 C 296.757 -2.95317 -2.06058 0
M  V30 3012 C 296.61 -4.3021 -1.31298 0
M  V30 3013 C 297.929 -3.16193 -3.06121 0
M  V30 3014 H 295.048 -0.618799 -0.400321 0
M  V30 3015 H 297.69 -1.86052 -0.385318 0
M  V30 3016 H 295.84 -2.81809 -2.67425 0
M  V30 3017 H 297.512 -4.55538 -0.726807 0
M  V30 3018 H 295.755 -4.29421 -0.614853 0
M  V30 3019 H 296.426 -5.14 -2.01265 0
M  V30 3020 H 298.902 -3.28916 -2.5486 0
M  V30 3021 H 297.778 -4.05266 -3.70204 0
M  V30 3022 H 298.039 -2.31676 -3.76535 0
M  V30 3023 N 297.098 0.621204 -1.44841 0
M  V30 3024 C 298.03 1.74615 -1.48466 0
M  V30 3025 C 299.043 1.58377 -0.37691 0
M  V30 3026 O 300.232 1.66508 -0.643215 0
M  V30 3027 C 297.332 3.12459 -1.31236 0
M  V30 3028 C 296.505 3.55064 -2.55438 0
M  V30 3029 C 295.564 4.71821 -2.32963 0
M  V30 3030 O 294.59 4.79628 -3.06505 0
M  V30 3031 N 295.792 5.64186 -1.36654 0
M  V30 3032 H 298.557 1.71973 -2.45449 0
M  V30 3033 H 296.118 0.806077 -1.40407 0
M  V30 3034 H 298.11 3.88302 -1.14032 0
M  V30 3035 H 296.68 3.09686 -0.4258 0
M  V30 3036 H 295.9 2.69324 -2.87851 0
M  V30 3037 H 297.188 3.80284 -3.38026 0
M  V30 3038 H 296.586 5.6058 -0.759344 0
M  V30 3039 H 295.143 6.39618 -1.25425 0
M  V30 3040 N 298.576 1.31904 0.862503 0
M  V30 3041 C 299.822 1.22197 1.61851 0
M  V30 3042 C 300.155 -0.217641 1.92977 0
M  V30 3043 O 299.43 -1.15264 1.56666 0
M  V30 3044 C 299.713 2.07378 2.94391 0
M  V30 3045 C 299.566 3.59678 2.70096 0
M  V30 3046 C 300.885 1.92891 3.95577 0
M  V30 3047 H 298.004 0.445255 0.587296 0
M  V30 3048 H 300.646 1.6177 0.99651 0
M  V30 3049 H 298.796 1.73758 3.47477 0
M  V30 3050 H 300.468 4.03472 2.23625 0
M  V30 3051 H 298.711 3.82735 2.04197 0
M  V30 3052 H 299.382 4.14595 3.64438 0
M  V30 3053 H 301.858 2.22327 3.51724 0
M  V30 3054 H 300.734 2.54781 4.86187 0
M  V30 3055 H 300.995 0.894315 4.3296 0
M  V30 3056 N 300.054 -1.07777 1.14986 0
M  V30 3057 C 301.017 -2.13041 0.845358 0
M  V30 3058 C 302.017 -1.60071 -0.152931 0
M  V30 3059 O 303.207 -1.74033 0.0761879 0
M  V30 3060 C 300.339 -3.39896 0.261383 0
M  V30 3061 H 301.532 -2.41485 1.77834 0
M  V30 3062 H 299.085 -1.23595 0.956757 0
M  V30 3063 H 299.82 -3.17091 -0.68 0
M  V30 3064 H 299.605 -3.79642 0.980514 0
M  V30 3065 H 301.095 -4.17548 0.0657687 0
M  V30 3066 N 301.532 -0.945985 -1.26051 0
M  V30 3067 C 302.948 -0.649045 -1.45807 0
M  V30 3068 C 303.148 0.796158 -1.85104 0
M  V30 3069 O 302.204 1.57233 -1.97571 0
M  V30 3070 C 303.517 -1.61458 -2.53677 0
M  V30 3071 C 305.065 -1.62481 -2.67524 0
M  V30 3072 C 305.54 -2.57776 -3.7857 0
M  V30 3073 N 307.031 -2.5609 -3.85969 0
M  V30 3074 C 307.766 -3.26508 -4.7136 0
M  V30 3075 N 307.262 -4.0637 -5.61102 0
M  V30 3076 N 309.055 -3.15437 -4.65248 0
M  V30 3077 H 301.206 -1.88005 -0.988328 0
M  V30 3078 H 303.469 -0.808198 -0.4955 0
M  V30 3079 H 303.175 -2.64644 -2.31638 0
M  V30 3080 H 303.049 -1.37036 -3.51427 0
M  V30 3081 H 305.436 -0.600167 -2.88933 0
M  V30 3082 H 305.517 -1.90958 -1.70202 0
M  V30 3083 H 305.161 -3.60361 -3.57913 0
M  V30 3084 H 305.091 -2.26587 -4.75359 0
M  V30 3085 H 307.582 -1.98105 -3.21812 0
M  V30 3086 H 307.895 -4.57042 -6.23164 0
M  V30 3087 H 306.24 -4.10469 -5.60839 0
M  V30 3088 H 309.431 -2.52525 -3.94143 0
M  V30 3089 H 309.604 -3.70584 -5.31575 0
M  V30 3090 N 303.011 1.40521 -0.713556 0
M  V30 3091 C 304.259 2.00527 -0.251692 0
M  V30 3092 C 304.58 1.56857 1.15848 0
M  V30 3093 O 303.85 0.807127 1.785 0
M  V30 3094 H 302.43 0.741551 -0.0900646 0
M  V30 3095 H 305.092 1.71887 -0.918733 0
M  V30 3096 H 304.188 3.10813 -0.283192 0
M  V30 3097 N 304.489 0.459591 1.5075 0
M  V30 3098 C 305.422 -0.386257 2.24907 0
M  V30 3099 C 306.4 -1.006 1.27744 0
M  V30 3100 O 307.584 -1.04416 1.56938 0
M  V30 3101 C 304.711 -1.54021 3.01654 0
M  V30 3102 C 303.757 -1.03898 4.13651 0
M  V30 3103 S 304.59 0.0370501 5.35487 0
M  V30 3104 C 305.746 -1.12105 6.15779 0
M  V30 3105 H 305.979 0.243272 2.96303 0
M  V30 3106 H 303.512 0.244339 1.52454 0
M  V30 3107 H 305.47 -2.20163 3.46466 0
M  V30 3108 H 304.131 -2.14121 2.29806 0
M  V30 3109 H 303.324 -1.90254 4.66711 0
M  V30 3110 H 302.926 -0.45545 3.71216 0
M  V30 3111 H 305.218 -2.03501 6.46215 0
M  V30 3112 H 306.161 -0.62995 7.05292 0
M  V30 3113 H 306.569 -1.36967 5.47631 0
M  V30 3114 N 305.967 -1.56429 0.191757 0
M  V30 3115 C 306.915 -2.20273 -0.747174 0
M  V30 3116 C 307.909 -1.17288 -1.22229 0
M  V30 3117 O 309.115 -1.35441 -1.18557 0
M  V30 3118 H 305.49 -0.705885 -0.259289 0
M  V30 3119 H 307.461 -2.97826 -0.184963 0
M  V30 3120 C 306.21 -2.87356 -1.95759 0
M  V30 3121 H 305.533 -3.66341 -1.60106 0
M  V30 3122 H 306.973 -3.3547 -2.59299 0
M  V30 3123 C 305.432 -1.88213 -2.79423 0
M  V30 3124 O 305.962 -1.38033 -3.7724 0
M  V30 3125 N 304.168 -1.56516 -2.44849 0
M  V30 3126 H 303.715 -1.97516 -1.65364 0
M  V30 3127 H 303.673 -0.904369 -3.01112 0
M  V30 3128 N 307.445 0.0818655 -1.57387 0
M  V30 3129 C 308.675 0.794954 -1.90694 0
M  V30 3130 C 309.083 1.72147 -0.784982 0
M  V30 3131 O 308.426 1.81974 0.251196 0
M  V30 3132 C 308.488 1.65042 -3.19376 0
M  V30 3133 C 308.152 0.894337 -4.48164 0
M  V30 3134 C 309.149 0.21813 -5.19442 0
M  V30 3135 C 306.834 0.864495 -4.94805 0
M  V30 3136 C 308.828 -0.477802 -6.35607 0
M  V30 3137 C 306.515 0.164785 -6.10878 0
M  V30 3138 C 307.513 -0.505173 -6.81129 0
M  V30 3139 O 307.201 -1.19363 -7.94989 0
M  V30 3140 H 306.933 0.231779 -0.635023 0
M  V30 3141 H 309.487 0.059493 -2.05314 0
M  V30 3142 H 307.717 2.42844 -3.00938 0
M  V30 3143 H 309.406 2.24127 -3.38411 0
M  V30 3144 H 310.172 0.232558 -4.84442 0
M  V30 3145 H 306.051 1.37542 -4.40004 0
M  V30 3146 H 309.595 -1.00129 -6.90377 0
M  V30 3147 H 305.492 0.148249 -6.4533 0
M  V30 3148 H 306.26 -1.10188 -8.11049 0
M  V30 3149 N 308.923 1.53595 0.353017 0
M  V30 3150 C 309.853 1.83902 1.43883 0
M  V30 3151 C 310.834 0.693421 1.55324 0
M  V30 3152 O 312.019 0.944452 1.69687 0
M  V30 3153 C 309.149 2.04016 2.8106 0
M  V30 3154 C 308.103 3.19814 2.84434 0
M  V30 3155 C 307.429 3.25244 4.24406 0
M  V30 3156 C 308.729 4.58133 2.50822 0
M  V30 3157 H 310.423 2.74835 1.1877 0
M  V30 3158 H 307.969 1.32242 0.569917 0
M  V30 3159 H 309.922 2.238 3.57059 0
M  V30 3160 H 308.646 1.09804 3.07588 0
M  V30 3161 H 307.305 2.9987 2.10887 0
M  V30 3162 H 306.953 2.28646 4.48029 0
M  V30 3163 H 306.653 4.03054 4.27576 0
M  V30 3164 H 308.177 3.47228 5.0226 0
M  V30 3165 H 309.591 4.77995 3.16534 0
M  V30 3166 H 307.988 5.38276 2.6529 0
M  V30 3167 H 309.058 4.62387 1.46034 0
M  V30 3168 N 310.401 -0.613514 1.45168 0
M  V30 3169 C 311.351 -1.71871 1.49815 0
M  V30 3170 C 312.335 -1.56774 0.362021 0
M  V30 3171 O 313.527 -1.66212 0.608493 0
M  V30 3172 C 310.656 -3.1061 1.46207 0
M  V30 3173 C 309.742 -3.31114 2.64999 0
M  V30 3174 N 310.133 -3.21904 3.90143 0
M  V30 3175 C 308.431 -3.61966 2.6057 0
M  V30 3176 C 309.132 -3.43577 4.69393 0
M  V30 3177 N 308.108 -3.67287 4.00751 0
M  V30 3178 H 311.91 -1.63235 2.444 0
M  V30 3179 H 309.424 -0.816577 1.40377 0
M  V30 3180 H 311.421 -3.8989 1.4762 0
M  V30 3181 H 310.081 -3.20399 0.52673 0
M  V30 3182 H 311.092 -3.00436 4.21852 0
M  V30 3183 H 307.769 -3.78629 1.75916 0
M  V30 3184 H 309.159 -3.41901 5.78406 0
M  V30 3185 N 311.879 -1.3236 -0.855495 0
M  V30 3186 C 312.827 -1.2118 -1.9854 0
M  V30 3187 C 313.821 -0.116788 -1.68997 0
M  V30 3188 O 315.027 -0.279657 -1.77814 0
M  V30 3189 H 311.402 -0.375608 -0.651477 0
M  V30 3190 H 313.373 -2.16743 -2.05098 0
M  V30 3191 C 312.122 -0.950849 -3.34446 0
M  V30 3192 H 311.445 -1.78563 -3.57708 0
M  V30 3193 H 312.885 -0.912863 -4.14057 0
M  V30 3194 C 311.344 0.346404 -3.35114 0
M  V30 3195 O 311.874 1.35855 -3.7803 0
M  V30 3196 N 310.08 0.36808 -2.88259 0
M  V30 3197 H 309.627 -0.456102 -2.5353 0
M  V30 3198 H 309.585 1.23591 -2.89089 0
M  V30 3199 N 313.357 1.07166 -1.15556 0
M  V30 3200 C 314.634 1.76546 -0.842069 0
M  V30 3201 C 315.014 2.00453 0.661939 0
M  V30 3202 O 314.362 1.62452 1.60691 0
M  V30 3203 C 314.572 3.07266 -1.65495 0
M  V30 3204 C 315.92 3.81578 -1.86234 0
M  V30 3205 O 316.944 3.17083 -1.62287 0
M  V30 3206 O 315.803 4.97419 -2.26355 0
M  V30 3207 H 312.897 0.766756 -0.309862 0
M  V30 3208 H 315.443 1.13514 -1.26145 0
M  V30 3209 H 314.215 2.85494 -2.67598 0
M  V30 3210 H 313.838 3.7803 -1.23203 0
M  V30 3211 N 314.835 0.952656 1.25548 0
M  V30 3212 C 315.798 0.475794 2.24207 0
M  V30 3213 C 316.798 -0.419428 1.55234 0
M  V30 3214 O 317.988 -0.216994 1.72843 0
M  V30 3215 C 315.12 -0.312814 3.39462 0
M  V30 3216 H 316.313 1.34779 2.67908 0
M  V30 3217 H 313.866 0.735739 1.37901 0
M  V30 3218 H 314.601 -1.20257 3.01179 0
M  V30 3219 H 314.386 0.329404 3.90714 0
M  V30 3220 H 315.876 -0.635986 4.12729 0
M  V30 3221 N 316.313 -1.40141 0.720998 0
M  V30 3222 C 317.724 -1.83678 0.334553 0
M  V30 3223 C 318.075 -1.6027 -1.13173 0
M  V30 3224 O 317.2 -1.08643 -1.87152 0
M  V30 3225 C 317.795 -3.33437 0.600437 0
M  V30 3226 C 316.354 -3.75447 0.267642 0
M  V30 3227 C 315.501 -2.63296 0.870097 0
M  V30 3228 H 318.452 -1.29331 0.919732 0
M  V30 3229 H 318.473 -3.80269 -0.132517 0
M  V30 3230 H 317.985 -3.50442 1.66768 0
M  V30 3231 H 316.086 -3.64035 -0.794329 0
M  V30 3232 H 316.199 -4.73344 0.74042 0
M  V30 3233 H 314.563 -2.52954 0.297739 0
M  V30 3234 H 315.346 -2.83112 1.94172 0
M  V30 3235 N 317.792 -0.46758 -1.50504 0
M  V30 3236 C 319.038 0.0887532 -2.02606 0
M  V30 3237 C 319.371 1.39686 -1.34913 0
M  V30 3238 O 318.646 1.88644 -0.473694 0
M  V30 3239 C 318.929 0.276206 -3.59039 0
M  V30 3240 C 318.782 -1.05267 -4.37309 0
M  V30 3241 C 320.101 1.03235 -4.27821 0
M  V30 3242 H 317.22 0.0307814 -0.736357 0
M  V30 3243 H 319.862 -0.612485 -1.79857 0
M  V30 3244 H 318.012 0.8735 -3.78553 0
M  V30 3245 H 319.684 -1.68628 -4.29374 0
M  V30 3246 H 317.927 -1.65015 -4.01189 0
M  V30 3247 H 318.598 -0.875197 -5.45018 0
M  V30 3248 H 321.074 0.526111 -4.12761 0
M  V30 3249 H 319.95 1.1323 -5.37094 0
M  V30 3250 H 320.211 2.06806 -3.90748 0
M  V30 3251 N 319.27 1.56325 -0.20005 0
M  V30 3252 C 320.681 1.8408 0.31167 0
M  V30 3253 C 321.032 1.12087 1.61031 0
M  V30 3254 O 320.157 0.38332 2.12978 0
M  V30 3255 C 320.752 3.33932 0.57226 0
M  V30 3256 C 319.311 3.6208 1.02834 0
M  V30 3257 C 318.458 2.77186 0.079634 0
M  V30 3258 H 321.409 1.52939 -0.423729 0
M  V30 3259 H 321.43 3.52971 1.42096 0
M  V30 3260 H 320.942 3.86303 -0.37308 0
M  V30 3261 H 319.043 3.15147 1.98778 0
M  V30 3262 H 319.156 4.7023 0.917624 0
M  V30 3263 H 317.52 2.47951 0.582448 0
M  V30 3264 H 318.303 3.32347 -0.860238 0
M  V30 3265 N 320.748 -0.0735177 1.57428 0
M  V30 3266 C 321.997 -0.771809 1.86349 0
M  V30 3267 C 322.31 -1.78828 0.792452 0
M  V30 3268 O 323.516 -2.53602 0.96945 0
M  V30 3269 C 321.972 -1.42358 3.30548 0
M  V30 3270 C 321.58 -0.445761 4.45777 0
M  V30 3271 C 323.324 -2.10434 3.6867 0
M  V30 3272 C 321.231 -1.10335 5.81016 0
M  V30 3273 H 320.161 -0.291999 0.695164 0
M  V30 3274 H 322.812 -0.0250749 1.83483 0
M  V30 3275 H 321.194 -2.21852 3.28021 0
M  V30 3276 H 322.368 0.319239 4.59693 0
M  V30 3277 H 320.683 0.130457 4.16196 0
M  V30 3278 H 323.28 -2.60405 4.67004 0
M  V30 3279 H 323.623 -2.90298 2.98383 0
M  V30 3280 H 324.156 -1.37773 3.7318 0
M  V30 3281 H 320.895 -0.345061 6.54591 0
M  V30 3282 H 320.415 -1.83925 5.70904 0
M  V30 3283 H 322.094 -1.62367 6.26295 0
M  V30 3284 N 322.226 -1.5378 -0.344866 0
M  V30 3285 C 323.475 -1.7018 -1.08267 0
M  V30 3286 C 323.788 -0.471 -1.89845 0
M  V30 3287 O 324.994 -0.515917 -2.66553 0
M  V30 3288 C 323.45 -3.00923 -1.97417 0
M  V30 3289 C 323.058 -4.31335 -1.21053 0
M  V30 3290 C 324.802 -3.26688 -2.71063 0
M  V30 3291 C 322.709 -5.53153 -2.09225 0
M  V30 3292 H 321.639 -0.634138 -0.407903 0
M  V30 3293 H 324.29 -1.8028 -0.342246 0
M  V30 3294 H 322.672 -2.84676 -2.75274 0
M  V30 3295 H 323.846 -4.58281 -0.481159 0
M  V30 3296 H 322.161 -4.12173 -0.591813 0
M  V30 3297 H 324.758 -4.1489 -3.37299 0
M  V30 3298 H 325.101 -2.43639 -3.37558 0
M  V30 3299 H 325.634 -3.43705 -2.0028 0
M  V30 3300 H 322.373 -6.38741 -1.47274 0
M  V30 3301 H 321.893 -5.30458 -2.79955 0
M  V30 3302 H 323.572 -5.88744 -2.68308 0
M  V30 3303 N 323.704 0.605807 -1.45491 0
M  V30 3304 C 324.654 1.71074 -1.50724 0
M  V30 3305 C 325.638 1.5658 -0.37033 0
M  V30 3306 O 326.83 1.65887 -0.617299 0
M  V30 3307 C 323.959 3.0983 -1.47852 0
M  V30 3308 C 323.045 3.29704 -2.66751 0
M  V30 3309 N 323.436 3.19831 -3.91844 0
M  V30 3310 C 321.734 3.60579 -2.62486 0
M  V30 3311 C 322.435 3.41083 -4.71208 0
M  V30 3312 N 321.411 3.65157 -4.02693 0
M  V30 3313 H 325.213 1.61937 -2.45263 0
M  V30 3314 H 322.727 0.80912 -1.40808 0
M  V30 3315 H 324.724 3.89101 -1.49686 0
M  V30 3316 H 323.384 3.20115 -0.543714 0
M  V30 3317 H 324.395 2.98194 -4.23439 0
M  V30 3318 H 321.072 3.7769 -1.77922 0
M  V30 3319 H 322.462 3.38828 -5.80211 0
M  V30 3320 N 325.182 1.32811 0.848464 0
M  V30 3321 C 326.598 1.11937 1.13764 0
M  V30 3322 C 326.798 -0.0960789 2.01271 0
M  V30 3323 O 325.854 -0.779165 2.40178 0
M  V30 3324 C 327.167 2.402 1.809 0
M  V30 3325 C 328.715 2.46016 1.93508 0
M  V30 3326 C 329.19 3.74215 2.64059 0
M  V30 3327 N 330.681 3.75232 2.71579 0
M  V30 3328 C 331.416 4.71134 3.26833 0
M  V30 3329 N 330.912 5.77406 3.8285 0
M  V30 3330 N 332.705 4.58623 3.24995 0
M  V30 3331 H 324.856 2.1073 0.265855 0
M  V30 3332 H 327.119 0.930671 0.180431 0
M  V30 3333 H 326.825 3.29093 1.24058 0
M  V30 3334 H 326.699 2.51628 2.81004 0
M  V30 3335 H 329.086 1.57577 2.49506 0
M  V30 3336 H 329.167 2.38536 0.923811 0
M  V30 3337 H 328.811 4.63031 2.08722 0
M  V30 3338 H 328.741 3.78968 3.65637 0
M  V30 3339 H 331.232 2.98423 2.31845 0
M  V30 3340 H 331.545 6.46632 4.23187 0
M  V30 3341 H 329.89 5.81152 3.81165 0
M  V30 3342 H 333.081 3.74762 2.80484 0
M  V30 3343 H 333.254 5.33535 3.67756 0
M  V30 3344 N 326.66 -1.06551 1.16123 0
M  V30 3345 C 327.937 -1.76097 0.85142 0
M  V30 3346 C 328.317 -2.00802 -0.6513 0
M  V30 3347 O 327.665 -1.63302 -1.59827 0
M  V30 3348 C 327.875 -3.06384 1.67122 0
M  V30 3349 C 329.223 -3.80585 1.88255 0
M  V30 3350 O 330.247 -3.16218 1.63966 0
M  V30 3351 O 329.106 -4.96212 2.2899 0
M  V30 3352 H 326.2 -0.765102 0.313923 0
M  V30 3353 H 328.746 -1.12844 1.26745 0
M  V30 3354 H 327.518 -2.84071 2.69108 0
M  V30 3355 H 327.141 -3.77371 1.25206 0
M  V30 3356 N 328.138 -0.959301 -1.25041 0
M  V30 3357 C 329.068 -0.501388 -2.28053 0
M  V30 3358 C 330.049 0.454673 -1.63911 0
M  V30 3359 O 331.234 0.352618 -1.90972 0
M  V30 3360 C 328.364 0.217224 -3.4662 0
M  V30 3361 C 327.318 -0.654034 -4.22973 0
M  V30 3362 C 326.644 0.195589 -5.34342 0
M  V30 3363 C 327.944 -1.93447 -4.85155 0
M  V30 3364 H 329.638 -1.36238 -2.66608 0
M  V30 3365 H 327.184 -0.656534 -1.28163 0
M  V30 3366 H 329.137 0.548732 -4.17812 0
M  V30 3367 H 327.861 1.1125 -3.07068 0
M  V30 3368 H 326.52 -0.968693 -3.5357 0
M  V30 3369 H 326.168 1.09076 -4.91031 0
M  V30 3370 H 325.868 -0.384091 -5.86343 0
M  V30 3371 H 327.392 0.521958 -6.08365 0
M  V30 3372 H 328.806 -1.66908 -5.48466 0
M  V30 3373 H 327.203 -2.46018 -5.47353 0
M  V30 3374 H 328.273 -2.63466 -4.07079 0
M  V30 3375 N 329.616 1.39756 -0.72842 0
M  V30 3376 C 330.563 2.30647 -0.0841519 0
M  V30 3377 C 331.533 1.48869 0.7367 0
M  V30 3378 O 332.718 1.77574 0.698015 0
M  V30 3379 C 329.858 3.35165 0.822091 0
M  V30 3380 C 328.971 4.31999 -0.0106663 0
M  V30 3381 C 328.106 5.23585 0.896241 0
M  V30 3382 C 327.145 6.12072 0.0583381 0
M  V30 3383 N 326.282 6.96035 0.920818 0
M  V30 3384 H 331.122 2.85173 -0.864891 0
M  V30 3385 H 328.659 1.40422 -0.438179 0
M  V30 3386 H 330.617 3.94345 1.36189 0
M  V30 3387 H 329.247 2.8211 1.56888 0
M  V30 3388 H 328.299 3.74492 -0.66781 0
M  V30 3389 H 329.611 4.9443 -0.658825 0
M  V30 3390 H 328.765 5.87759 1.50412 0
M  V30 3391 H 327.504 4.61459 1.57819 0
M  V30 3392 H 326.509 5.46916 -0.562389 0
M  V30 3393 H 327.734 6.76261 -0.6203 0
M  V30 3394 H 325.68 6.36485 1.58818 0
M  V30 3395 H 325.597 7.55284 0.32899 0
M  V30 3396 H 326.865 7.64646 1.51447 0
M  V30 3397 N 331.094 0.475555 1.50254 0
M  V30 3398 C 332.319 -0.0777042 2.07254 0
M  V30 3399 C 332.744 -1.3235 1.3366 0
M  V30 3400 O 332.102 -1.77152 0.385597 0
M  V30 3401 C 332.15 -0.340169 3.58992 0
M  V30 3402 O 331.254 -1.41982 3.87188 0
M  V30 3403 H 330.595 0.0149556 0.663832 0
M  V30 3404 H 333.125 0.667878 1.93392 0
M  V30 3405 H 333.135 -0.579332 4.03866 0
M  V30 3406 H 331.81 0.570167 4.11973 0
M  V30 3407 H 330.387 -1.16762 3.54148 0
M  V30 3408 N 332.573 -1.56217 0.208337 0
M  V30 3409 C 333.822 -1.97124 -0.427204 0
M  V30 3410 C 334.135 -1.09859 -1.61835 0
M  V30 3411 O 335.341 -1.40606 -2.32255 0
M  V30 3412 C 333.797 -3.50633 -0.811442 0
M  V30 3413 C 333.405 -4.46582 0.35615 0
M  V30 3414 C 335.149 -4.00282 -1.41332 0
M  V30 3415 C 333.056 -5.91379 -0.0497852 0
M  V30 3416 H 331.986 -0.736086 -0.163381 0
M  V30 3417 H 334.637 -1.8099 0.302456 0
M  V30 3418 H 333.019 -3.62319 -1.59815 0
M  V30 3419 H 334.193 -4.46636 1.1337 0
M  V30 3420 H 332.508 -4.07202 0.870396 0
M  V30 3421 H 335.105 -5.0595 -1.72972 0
M  V30 3422 H 335.448 -3.45359 -2.32449 0
M  V30 3423 H 335.981 -3.91764 -0.690323 0
M  V30 3424 H 332.72 -6.50255 0.827529 0
M  V30 3425 H 332.24 -5.94549 -0.791926 0
M  V30 3426 H 333.919 -6.45209 -0.481042 0
M  V30 3427 N 334.051 0.0651679 -1.57465 0
M  V30 3428 C 334.999 1.09542 -2.05191 0
M  V30 3429 C 335.993 1.39675 -0.958509 0
M  V30 3430 O 337.199 1.39003 -1.14359 0
M  V30 3431 H 333.574 0.370623 -0.654326 0
M  V30 3432 H 335.545 0.666802 -2.90854 0
M  V30 3433 C 334.294 2.39881 -2.51699 0
M  V30 3434 H 333.617 2.17547 -3.3543 0
M  V30 3435 H 335.057 3.104 -2.88839 0
M  V30 3436 C 333.516 3.0631 -1.40271 0
M  V30 3437 O 334.046 3.94664 -0.748523 0
M  V30 3438 N 332.252 2.67041 -1.14618 0
M  V30 3439 H 331.799 1.95281 -1.67997 0
M  V30 3440 H 331.757 3.1181 -0.402688 0
M  V30 3441 N 335.529 1.53961 0.336706 0
M  V30 3442 C 336.778 1.70751 1.07363 0
M  V30 3443 C 337.091 0.481061 1.89592 0
M  V30 3444 O 338.297 0.530046 2.66276 0
M  V30 3445 C 336.753 3.01965 1.95818 0
M  V30 3446 C 336.361 4.31971 1.18764 0
M  V30 3447 C 338.105 3.28121 2.69327 0
M  V30 3448 C 336.012 5.54255 2.06289 0
M  V30 3449 H 334.942 0.636292 0.404535 0
M  V30 3450 H 337.593 1.80459 0.332681 0
M  V30 3451 H 335.975 2.86132 2.7376 0
M  V30 3452 H 337.149 4.5853 0.456849 0
M  V30 3453 H 335.464 4.12481 0.569946 0
M  V30 3454 H 338.061 4.16673 3.35094 0
M  V30 3455 H 338.404 2.45426 3.36261 0
M  V30 3456 H 338.937 3.44762 1.98454 0
M  V30 3457 H 335.676 6.39513 1.43885 0
M  V30 3458 H 335.196 5.31935 2.77138 0
M  V30 3459 H 336.875 5.90159 2.65182 0
M  V30 3460 N 337.007 -0.598083 1.45811 0
M  V30 3461 C 337.937 -1.71873 1.58057 0
M  V30 3462 C 338.918 -1.64533 0.431615 0
M  V30 3463 O 340.103 -1.82787 0.65595 0
M  V30 3464 C 337.233 -3.10495 1.55597 0
M  V30 3465 C 336.187 -3.32654 2.69305 0
M  V30 3466 C 335.513 -4.71646 2.51902 0
M  V30 3467 C 336.813 -3.21981 4.11248 0
M  V30 3468 H 338.507 -1.61881 2.51863 0
M  V30 3469 H 336.053 -0.777372 1.21214 0
M  V30 3470 H 338.006 -3.88699 1.6276 0
M  V30 3471 H 336.73 -3.2135 0.583255 0
M  V30 3472 H 335.389 -2.56843 2.61586 0
M  V30 3473 H 335.037 -4.79246 1.52748 0
M  V30 3474 H 334.737 -4.87426 3.2816 0
M  V30 3475 H 336.261 -5.52038 2.60933 0
M  V30 3476 H 337.675 -3.90049 4.20161 0
M  V30 3477 H 336.072 -3.49289 4.87972 0
M  V30 3478 H 337.142 -2.1928 4.32486 0
M  V30 3479 N 338.485 -1.33259 -0.841409 0
M  V30 3480 C 339.734 -1.23921 -1.59143 0
M  V30 3481 C 340.047 0.1941 -1.94635 0
M  V30 3482 O 341.253 0.409474 -2.68394 0
M  V30 3483 C 339.709 -2.17119 -2.87032 0
M  V30 3484 C 339.317 -3.65606 -2.58914 0
M  V30 3485 C 341.061 -2.16648 -3.65053 0
M  V30 3486 C 338.968 -4.50726 -3.82884 0
M  V30 3487 H 337.898 -0.460264 -0.597221 0
M  V30 3488 H 340.549 -1.58307 -0.927959 0
M  V30 3489 H 338.931 -1.75663 -3.54906 0
M  V30 3490 H 340.105 -4.15487 -1.99267 0
M  V30 3491 H 338.42 -3.68341 -1.942 0
M  V30 3492 H 341.017 -2.77474 -4.57069 0
M  V30 3493 H 341.36 -1.16088 -3.99787 0
M  V30 3494 H 341.893 -2.56453 -3.041 0
M  V30 3495 H 338.632 -5.52151 -3.53283 0
M  V30 3496 H 338.152 -4.0559 -4.41879 0
M  V30 3497 H 339.831 -4.64401 -4.50489 0
M  V30 3498 N 339.963 1.05934 -1.16686 0
M  V30 3499 C 340.893 2.1546 -0.899949 0
M  V30 3500 C 341.874 1.69391 0.155154 0
M  V30 3501 O 343.059 1.94199 0.00648693 0
M  V30 3502 C 340.189 3.44939 -0.404241 0
M  V30 3503 C 339.143 4.04536 -1.39767 0
M  V30 3504 C 338.469 5.29268 -0.760216 0
M  V30 3505 C 339.769 4.42893 -2.76845 0
M  V30 3506 H 341.463 2.38046 -1.81588 0
M  V30 3507 H 339.009 1.14404 -0.874514 0
M  V30 3508 H 340.962 4.20901 -0.204971 0
M  V30 3509 H 339.686 3.21983 0.547206 0
M  V30 3510 H 338.345 3.30635 -1.58355 0
M  V30 3511 H 337.993 5.02611 0.197831 0
M  V30 3512 H 337.693 5.70101 -1.42332 0
M  V30 3513 H 339.217 6.07924 -0.57105 0
M  V30 3514 H 340.631 5.09921 -2.62019 0
M  V30 3515 H 339.028 4.94721 -3.39663 0
M  V30 3516 H 340.098 3.53584 -3.31823 0
M  V30 3517 N 341.441 0.965919 1.2453 0
M  V30 3518 C 342.351 0.502154 2.29163 0
M  V30 3519 C 343.367 -0.436017 1.68448 0
M  V30 3520 O 344.543 -0.309497 1.99008 0
M  V30 3521 C 341.608 -0.201956 3.46111 0
M  V30 3522 C 340.669 0.775821 4.22232 0
M  V30 3523 C 339.902 0.105217 5.33596 0
M  V30 3524 O 340.125 -1.10683 5.59558 0
M  V30 3525 O 339.059 0.796475 5.96607 0
M  V30 3526 H 342.885 1.37194 2.70946 0
M  V30 3527 H 340.47 0.732875 1.30189 0
M  V30 3528 H 342.352 -0.597564 4.17142 0
M  V30 3529 H 341.027 -1.04673 3.06309 0
M  V30 3530 H 339.934 1.22185 3.53584 0
M  V30 3531 H 341.267 1.58896 4.65846 0
M  V30 3532 N 342.919 -1.39368 0.735821 0
M  V30 3533 C 343.882 -2.2896 0.104874 0
M  V30 3534 C 344.882 -1.46347 -0.666274 0
M  V30 3535 O 346.072 -1.67014 -0.49517 0
M  V30 3536 C 343.204 -3.29857 -0.860656 0
M  V30 3537 H 344.397 -2.86259 0.894205 0
M  V30 3538 H 341.95 -1.48029 0.501704 0
M  V30 3539 H 342.685 -2.77615 -1.67631 0
M  V30 3540 H 342.47 -3.9087 -0.310327 0
M  V30 3541 H 343.96 -3.96893 -1.29867 0
M  V30 3542 N 344.397 -0.483516 -1.5 0
M  V30 3543 C 345.646 0.0689102 -2.01582 0
M  V30 3544 C 345.959 1.39655 -1.36952 0
M  V30 3545 O 347.165 2.03465 -1.79762 0
M  V30 3546 C 345.621 0.173302 -3.59483 0
M  V30 3547 C 345.229 -1.14665 -4.33077 0
M  V30 3548 C 346.973 0.677024 -4.19066 0
M  V30 3549 C 344.88 -1.00537 -5.82792 0
M  V30 3550 H 343.81 0.0295277 -0.753422 0
M  V30 3551 H 346.461 -0.620295 -1.72698 0
M  V30 3552 H 344.843 0.926569 -3.85007 0
M  V30 3553 H 346.017 -1.91184 -4.19268 0
M  V30 3554 H 344.332 -1.58244 -3.85159 0
M  V30 3555 H 346.929 0.799952 -5.28682 0
M  V30 3556 H 347.272 1.67151 -3.81269 0
M  V30 3557 H 347.805 -0.0192083 -3.97795 0
M  V30 3558 H 344.544 -1.9736 -6.25083 0
M  V30 3559 H 344.064 -0.280776 -5.99142 0
M  V30 3560 H 345.743 -0.677 -6.43448 0
M  V30 3561 N 345.875 1.56104 -0.216619 0
M  V30 3562 C 346.785 2.23694 0.706982 0
M  V30 3563 C 347.801 1.24295 1.21765 0
M  V30 3564 O 348.977 1.57094 1.2603 0
M  V30 3565 C 346.042 2.8998 1.90033 0
M  V30 3566 C 345.103 4.04708 1.43213 0
M  V30 3567 C 344.336 4.67824 2.56859 0
M  V30 3568 O 344.559 4.29913 3.74874 0
M  V30 3569 O 343.493 5.56905 2.28343 0
M  V30 3570 H 347.319 3.03272 0.161235 0
M  V30 3571 H 344.904 1.49394 0.0136177 0
M  V30 3572 H 346.786 3.31837 2.59735 0
M  V30 3573 H 345.461 2.13365 2.43428 0
M  V30 3574 H 344.368 3.6743 0.70327 0
M  V30 3575 H 345.701 4.83051 0.944615 0
M  V30 3576 N 347.353 -0.0568162 1.57498 0
M  V30 3577 C 348.301 -1.08452 2.05769 0
M  V30 3578 C 349.295 -1.39164 0.965903 0
M  V30 3579 O 350.501 -1.38395 1.15095 0
M  V30 3580 H 346.876 -0.367148 0.656282 0
M  V30 3581 H 348.847 -0.651368 2.91204 0
M  V30 3582 C 347.596 -2.38543 2.52968 0
M  V30 3583 H 346.919 -2.15765 3.36579 0
M  V30 3584 H 348.359 -3.08863 2.90481 0
M  V30 3585 C 346.818 -3.05562 1.41893 0
M  V30 3586 O 347.348 -3.94262 0.769442 0
M  V30 3587 N 345.554 -2.6643 1.16032 0
M  V30 3588 H 345.101 -1.94387 1.6903 0
M  V30 3589 H 345.059 -3.11593 0.419219 0
M  V30 3590 N 348.832 -1.54138 -0.328536 0
M  V30 3591 C 349.782 -1.79557 -1.4051 0
M  V30 3592 C 350.766 -0.651373 -1.47126 0
M  V30 3593 O 351.958 -0.911226 -1.51742 0
M  V30 3594 C 349.087 -2.02196 -2.77438 0
M  V30 3595 C 348.173 -3.22724 -2.75155 0
M  V30 3596 N 348.564 -4.43881 -2.42494 0
M  V30 3597 C 346.862 -3.24196 -3.06289 0
M  V30 3598 C 347.563 -5.25797 -2.48822 0
M  V30 3599 N 346.539 -4.62862 -2.8506 0
M  V30 3600 H 350.341 -2.70814 -1.1418 0
M  V30 3601 H 347.855 -1.53265 -0.536991 0
M  V30 3602 H 349.852 -2.18546 -3.55026 0
M  V30 3603 H 348.512 -1.12191 -3.04702 0
M  V30 3604 H 349.523 -4.70969 -2.15428 0
M  V30 3605 H 346.2 -2.44208 -3.38627 0
M  V30 3606 H 347.59 -6.32535 -2.26603 0
M  V30 3607 N 350.31 0.590341 -1.46126 0
M  V30 3608 C 351.258 1.72105 -1.5647 0
M  V30 3609 C 352.252 1.63756 -0.433612 0
M  V30 3610 O 353.458 1.69342 -0.610194 0
M  V30 3611 H 349.833 0.568889 -0.491802 0
M  V30 3612 H 351.804 1.6051 -2.51553 0
M  V30 3613 C 350.553 3.10493 -1.56491 0
M  V30 3614 H 349.876 3.17583 -2.4286 0
M  V30 3615 H 351.316 3.8939 -1.67785 0
M  V30 3616 C 349.775 3.3563 -0.292231 0
M  V30 3617 O 350.305 3.96875 0.620739 0
M  V30 3618 N 348.511 2.90026 -0.182523 0
M  V30 3619 H 348.058 2.40367 -0.926356 0
M  V30 3620 H 348.016 3.07218 0.668152 0
M  V30 3621 N 351.788 1.33704 0.83433 0
M  V30 3622 C 352.718 1.26967 1.95963 0
M  V30 3623 C 353.699 0.149337 1.69443 0
M  V30 3624 O 354.884 0.339852 1.91203 0
M  V30 3625 C 352.014 1.01275 3.32206 0
M  V30 3626 C 350.968 2.09652 3.73136 0
M  V30 3627 C 350.294 1.69166 5.07235 0
M  V30 3628 C 351.594 3.51372 3.86439 0
M  V30 3629 H 353.288 2.2112 2.01857 0
M  V30 3630 H 350.834 1.06447 0.969793 0
M  V30 3631 H 352.787 0.952106 4.10503 0
M  V30 3632 H 351.511 0.0356203 3.26581 0
M  V30 3633 H 350.17 2.14766 2.97104 0
M  V30 3634 H 349.818 0.701437 4.98085 0
M  V30 3635 H 349.518 2.41694 5.35591 0
M  V30 3636 H 351.042 1.64576 5.88003 0
M  V30 3637 H 352.456 3.48734 4.55036 0
M  V30 3638 H 350.853 4.22425 4.26236 0
M  V30 3639 H 351.923 3.89546 2.88759 0
M  V30 3640 N 353.266 -1.05314 1.17247 0
M  V30 3641 C 354.229 -2.112 0.890357 0
M  V30 3642 C 355.229 -1.60359 -0.118943 0
M  V30 3643 O 356.419 -1.73833 0.113086 0
M  V30 3644 C 353.551 -3.39266 0.333422 0
M  V30 3645 H 354.744 -2.37659 1.82916 0
M  V30 3646 H 352.297 -1.21538 0.982758 0
M  V30 3647 H 353.032 -3.18462 -0.612587 0
M  V30 3648 H 352.817 -3.77477 1.06082 0
M  V30 3649 H 354.307 -4.17315 0.154322 0
M  V30 3650 N 354.744 -0.972509 -1.24016 0
M  V30 3651 C 356.021 -0.553733 -1.87598 0
M  V30 3652 C 356.401 0.969158 -1.87538 0
M  V30 3653 O 355.749 1.84255 -1.35139 0
M  V30 3654 C 355.959 -1.15076 -3.29482 0
M  V30 3655 C 357.307 -1.23862 -4.06132 0
M  V30 3656 O 358.331 -1.10363 -3.38672 0
M  V30 3657 O 357.19 -1.45252 -5.26844 0
M  V30 3658 H 354.284 -0.185331 -0.805966 0
M  V30 3659 H 356.83 -1.06709 -1.31952 0
M  V30 3660 H 355.602 -2.19333 -3.2405 0
M  V30 3661 H 355.225 -0.621746 -3.92709 0
M  V30 3662 N 356.222 1.38976 -0.743202 0
M  V30 3663 C 357.45 2.04636 -0.30525 0
M  V30 3664 C 357.865 1.56044 1.06281 0
M  V30 3665 O 357.222 0.728921 1.67311 0
M  V30 3666 C 357.273 3.60193 -0.307177 0
M  V30 3667 O 356.994 4.06998 -1.62124 0
M  V30 3668 C 358.495 4.4306 0.145928 0
M  V30 3669 H 355.715 0.65788 -0.132041 0
M  V30 3670 H 358.259 1.77866 -1.00915 0
M  V30 3671 H 356.414 3.85835 0.347898 0
M  V30 3672 H 356.828 5.01371 -1.54036 0
M  V30 3673 H 358.302 5.51921 0.0934183 0
M  V30 3674 H 358.779 4.22706 1.19231 0
M  V30 3675 H 359.385 4.22584 -0.479886 0
M  V30 3676 N 357.7 0.491464 1.49741 0
M  V30 3677 C 358.946 -0.0565092 2.02721 0
M  V30 3678 C 359.279 -1.37522 1.37118 0
M  V30 3679 O 358.554 -1.87866 0.503645 0
M  V30 3680 C 358.837 -0.219051 3.59433 0
M  V30 3681 C 358.69 1.12211 4.35579 0
M  V30 3682 C 360.009 -0.964157 4.29409 0
M  V30 3683 H 357.128 -0.0190627 0.736753 0
M  V30 3684 H 359.77 0.641021 1.7886 0
M  V30 3685 H 357.92 -0.813165 3.79895 0
M  V30 3686 H 359.592 1.75437 4.26637 0
M  V30 3687 H 357.835 1.71377 3.98513 0
M  V30 3688 H 358.506 0.961794 5.43556 0
M  V30 3689 H 360.982 -0.460378 4.13545 0
M  V30 3690 H 359.858 -1.04671 5.38828 0
M  V30 3691 H 360.119 -2.00563 3.93988 0
M  V30 3692 N 359.178 -1.55987 0.224894 0
M  V30 3693 C 360.108 -2.23426 -0.678457 0
M  V30 3694 C 361.089 -1.20709 -1.19847 0
M  V30 3695 O 362.274 -1.49304 -1.24186 0
M  V30 3696 C 359.404 -2.91676 -1.88527 0
M  V30 3697 C 358.358 -4.00893 -1.49896 0
M  V30 3698 C 357.684 -4.56455 -2.78483 0
M  V30 3699 C 358.984 -5.17769 -0.686461 0
M  V30 3700 H 360.678 -2.99175 -0.116173 0
M  V30 3701 H 358.224 -1.43897 -0.054436 0
M  V30 3702 H 360.177 -3.37547 -2.5227 0
M  V30 3703 H 358.901 -2.1338 -2.47258 0
M  V30 3704 H 357.56 -3.55758 -0.884985 0
M  V30 3705 H 357.208 -3.74886 -3.35365 0
M  V30 3706 H 356.908 -5.30169 -2.53368 0
M  V30 3707 H 358.432 -5.05047 -3.43162 0
M  V30 3708 H 359.846 -5.60001 -1.22767 0
M  V30 3709 H 358.243 -5.97735 -0.532259 0
M  V30 3710 H 359.313 -4.83932 0.306196 0
M  V30 3711 N 360.656 0.0484629 -1.57525 0
M  V30 3712 C 361.603 1.05504 -2.05275 0
M  V30 3713 C 362.573 1.37084 -0.937927 0
M  V30 3714 O 363.758 1.47754 -1.2072 0
M  V30 3715 C 360.898 2.35676 -2.52093 0
M  V30 3716 C 360.011 2.10423 -3.77288 0
M  V30 3717 C 359.146 3.34327 -4.12794 0
M  V30 3718 C 358.185 3.04542 -5.30962 0
M  V30 3719 N 357.322 4.20841 -5.61994 0
M  V30 3720 H 362.162 0.640885 -2.91027 0
M  V30 3721 H 359.699 0.304854 -1.43906 0
M  V30 3722 H 361.657 3.11709 -2.77297 0
M  V30 3723 H 360.287 2.7485 -1.69285 0
M  V30 3724 H 359.339 1.24976 -3.59284 0
M  V30 3725 H 360.651 1.84438 -4.63448 0
M  V30 3726 H 359.805 4.1874 -4.39024 0
M  V30 3727 H 358.544 3.63408 -3.25247 0
M  V30 3728 H 357.549 2.18528 -5.04505 0
M  V30 3729 H 358.774 2.76758 -6.20146 0
M  V30 3730 H 356.72 4.4991 -4.77406 0
M  V30 3731 H 356.637 3.98212 -6.42622 0
M  V30 3732 H 357.905 5.06184 -5.92789 0
M  V30 3733 N 362.134 1.5431 0.320358 0
M  V30 3734 C 363.383 1.7188 1.05546 0
M  V30 3735 C 363.696 0.501143 1.89071 0
M  V30 3736 O 364.902 0.558258 2.65699 0
M  V30 3737 C 363.358 3.04025 1.92605 0
M  V30 3738 C 362.966 4.33207 1.14176 0
M  V30 3739 C 364.71 3.30959 2.65832 0
M  V30 3740 C 362.617 5.56412 2.00399 0
M  V30 3741 H 361.547 0.640547 0.397763 0
M  V30 3742 H 364.198 1.80802 0.313522 0
M  V30 3743 H 362.58 2.89019 2.7071 0
M  V30 3744 H 363.754 4.58989 0.40819 0
M  V30 3745 H 362.069 4.13062 0.526165 0
M  V30 3746 H 364.666 4.20203 3.30656 0
M  V30 3747 H 365.009 2.48979 3.33639 0
M  V30 3748 H 365.542 3.46847 1.94787 0
M  V30 3749 H 362.281 6.41004 1.37094 0
M  V30 3750 H 361.801 5.34844 2.7148 0
M  V30 3751 H 363.48 5.92938 2.58908 0
M  V30 3752 N 363.613 -0.582584 1.46437 0
M  V30 3753 C 364.841 -1.36682 1.55324 0
M  V30 3754 C 365.256 -1.87796 0.194409 0
M  V30 3755 O 364.613 -1.63623 -0.808318 0
M  V30 3756 C 364.664 -2.55426 2.55812 0
M  V30 3757 O 364.385 -2.0643 3.86417 0
M  V30 3758 C 365.886 -3.47976 2.74641 0
M  V30 3759 H 363.106 -0.417545 0.525259 0
M  V30 3760 H 365.65 -0.708219 1.91845 0
M  V30 3761 H 363.805 -3.17275 2.22295 0
M  V30 3762 H 364.219 -2.83762 4.41111 0
M  V30 3763 H 365.693 -4.27775 3.48874 0
M  V30 3764 H 366.17 -3.99919 1.81553 0
M  V30 3765 H 366.776 -2.91962 3.09255 0
M  V30 3766 N 365.091 -1.34144 -0.827227 0
M  V30 3767 C 366.368 -1.16844 -1.56865 0
M  V30 3768 C 366.748 0.260654 -2.09485 0
M  V30 3769 O 366.096 1.26138 -1.9053 0
M  V30 3770 C 366.306 -2.21939 -2.6934 0
M  V30 3771 C 367.654 -2.56695 -3.3822 0
M  V30 3772 O 368.678 -2.20695 -2.79593 0
M  V30 3773 O 367.537 -3.18518 -4.44082 0
M  V30 3774 H 364.631 -0.452669 -0.692112 0
M  V30 3775 H 367.177 -1.45763 -0.868973 0
M  V30 3776 H 365.949 -3.17882 -2.28182 0
M  V30 3777 H 365.572 -1.94172 -3.46962 0
M  V30 3778 N 366.569 1.04691 -1.17803 0
M  V30 3779 C 367.816 1.77782 -0.969532 0
M  V30 3780 C 368.144 1.87926 0.501401 0
M  V30 3781 O 367.399 1.37918 1.38842 0
M  V30 3782 C 367.698 3.21467 -1.56186 0
M  V30 3783 C 367.364 3.3137 -3.05786 0
M  V30 3784 C 366.026 3.3378 -3.46619 0
M  V30 3785 C 368.378 3.31976 -4.01797 0
M  V30 3786 C 365.706 3.34431 -4.82051 0
M  V30 3787 C 368.058 3.34167 -5.37136 0
M  V30 3788 C 366.722 3.34866 -5.77426 0
M  V30 3789 H 365.992 0.650549 -0.354777 0
M  V30 3790 H 368.639 1.23006 -1.46772 0
M  V30 3791 H 366.944 3.79203 -0.985515 0
M  V30 3792 H 368.641 3.76652 -1.37602 0
M  V30 3793 H 365.231 3.3021 -2.73238 0
M  V30 3794 H 369.415 3.29311 -3.71306 0
M  V30 3795 H 364.671 3.33285 -5.12573 0
M  V30 3796 H 368.845 3.33585 -6.11305 0
M  V30 3797 H 366.472 3.35124 -6.82346 0
M  V30 3798 N 368.047 0.979072 1.23499 0
M  V30 3799 C 369.295 0.645941 1.91499 0
M  V30 3800 C 369.616 -0.822948 1.76784 0
M  V30 3801 O 368.886 -1.58854 1.14639 0
M  V30 3802 H 367.466 0.235919 0.708767 0
M  V30 3803 H 370.128 1.2426 1.50152 0
M  V30 3804 H 369.224 0.896411 2.9895 0
M  V30 3805 N 369.525 -1.3858 0.750561 0
M  V30 3806 C 370.455 -2.33102 0.136237 0
M  V30 3807 C 371.436 -1.54713 -0.706965 0
M  V30 3808 O 372.621 -1.83043 -0.648769 0
M  V30 3809 C 369.751 -3.38882 -0.760017 0
M  V30 3810 C 368.705 -4.27995 -0.0197785 0
M  V30 3811 C 368.031 -5.24605 -1.03408 0
M  V30 3812 C 369.331 -5.09554 1.14684 0
M  V30 3813 H 371.025 -2.84726 0.925822 0
M  V30 3814 H 368.571 -1.36898 0.446654 0
M  V30 3815 H 370.524 -4.0397 -1.19943 0
M  V30 3816 H 369.248 -2.85734 -1.58189 0
M  V30 3817 H 367.907 -3.64409 0.400184 0
M  V30 3818 H 367.555 -4.67746 -1.84994 0
M  V30 3819 H 367.255 -5.85081 -0.543464 0
M  V30 3820 H 368.779 -5.9257 -1.47288 0
M  V30 3821 H 370.193 -5.67899 0.785118 0
M  V30 3822 H 368.59 -5.7925 1.56812 0
M  V30 3823 H 369.66 -4.4347 1.96118 0
M  V30 3824 N 371.003 -0.499398 -1.49478 0
M  V30 3825 C 371.966 0.268838 -2.27618 0
M  V30 3826 C 372.966 0.895383 -1.33565 0
M  V30 3827 O 374.156 0.760164 -1.56739 0
M  V30 3828 C 371.288 1.38559 -3.11471 0
M  V30 3829 H 372.481 -0.416812 -2.96989 0
M  V30 3830 H 370.034 -0.254313 -1.54217 0
M  V30 3831 H 370.769 2.10544 -2.46661 0
M  V30 3832 H 370.554 0.941797 -3.80621 0
M  V30 3833 H 372.044 1.92678 -3.70493 0
M  V30 3834 N 372.481 1.55866 -0.233164 0
M  V30 3835 C 373.897 1.59133 0.121988 0
M  V30 3836 C 374.097 1.25016 1.58029 0
M  V30 3837 O 373.153 0.990922 2.32243 0
M  V30 3838 C 374.466 2.99932 -0.214792 0
M  V30 3839 C 376.014 3.12601 -0.157971 0
M  V30 3840 C 376.489 4.55597 -0.46859 0
M  V30 3841 N 377.98 4.61305 -0.418585 0
M  V30 3842 C 378.715 5.69903 -0.63227 0
M  V30 3843 N 378.211 6.86819 -0.90835 0
M  V30 3844 N 380.004 5.59264 -0.563913 0
M  V30 3845 H 372.155 1.76315 -1.18434 0
M  V30 3846 H 374.418 0.820093 -0.475553 0
M  V30 3847 H 374.124 3.29588 -1.22739 0
M  V30 3848 H 373.998 3.74327 0.464691 0
M  V30 3849 H 376.385 2.82735 0.845283 0
M  V30 3850 H 376.466 2.40511 -0.871102 0
M  V30 3851 H 376.11 4.86182 -1.46934 0
M  V30 3852 H 376.04 5.25928 0.265865 0
M  V30 3853 H 378.531 3.77297 -0.213368 0
M  V30 3854 H 378.844 7.65507 -1.05919 0
M  V30 3855 H 377.189 6.88536 -0.945673 0
M  V30 3856 H 380.38 4.66802 -0.348372 0
M  V30 3857 H 380.553 6.43831 -0.733847 0
M  V30 3858 N 373.959 -0.0401083 1.57549 0
M  V30 3859 C 374.869 -1.06133 2.0922 0
M  V30 3860 C 375.885 -1.40356 1.0284 0
M  V30 3861 O 377.061 -1.49897 1.34509 0
M  V30 3862 C 374.126 -2.34658 2.55218 0
M  V30 3863 C 373.187 -2.07117 3.76033 0
M  V30 3864 C 372.42 -3.29514 4.19829 0
M  V30 3865 O 372.643 -4.39794 3.63232 0
M  V30 3866 O 371.577 -3.15863 5.12362 0
M  V30 3867 H 375.403 -0.652244 2.96613 0
M  V30 3868 H 372.988 -0.256368 1.47184 0
M  V30 3869 H 374.87 -3.10239 2.85184 0
M  V30 3870 H 373.545 -2.74883 1.70941 0
M  V30 3871 H 372.452 -1.29139 3.51104 0
M  V30 3872 H 373.785 -1.71754 4.61261 0
M  V30 3873 N 375.437 -1.54477 -0.31217 0
M  V30 3874 C 376.683 -1.74417 -1.04644 0
M  V30 3875 C 377.038 -0.517641 -1.85306 0
M  V30 3876 O 376.331 0.489973 -1.85229 0
M  V30 3877 C 376.525 -2.967 -1.99258 0
M  V30 3878 C 376.354 -4.31128 -1.27901 0
M  V30 3879 C 375.124 -4.95087 -1.01079 0
M  V30 3880 C 377.322 -5.09662 -0.689119 0
M  V30 3881 N 375.304 -6.13322 -0.266323 0
M  V30 3882 C 376.675 -6.19952 -0.0768523 0
M  V30 3883 C 378.73 -4.94355 -0.593061 0
M  V30 3884 C 377.433 -7.16604 0.622165 0
M  V30 3885 C 379.459 -5.91328 0.0922792 0
M  V30 3886 C 378.821 -7.00978 0.693443 0
M  V30 3887 H 374.92 -0.69094 -0.366231 0
M  V30 3888 H 377.504 -1.91946 -0.326319 0
M  V30 3889 H 375.675 -2.80616 -2.68532 0
M  V30 3890 H 377.407 -3.05216 -2.65755 0
M  V30 3891 H 374.162 -4.55235 -1.30607 0
M  V30 3892 H 374.586 -6.76937 0.0920973 0
M  V30 3893 H 379.228 -4.09719 -1.04355 0
M  V30 3894 H 376.946 -8.0079 1.08445 0
M  V30 3895 H 380.532 -5.81562 0.166396 0
M  V30 3896 H 379.412 -7.74725 1.21533 0
M  V30 3897 N 376.915 0.57481 -1.46744 0
M  V30 3898 C 377.865 1.67838 -1.54319 0
M  V30 3899 C 378.849 1.55759 -0.40346 0
M  V30 3900 O 380.041 1.6454 -0.652347 0
M  V30 3901 C 377.17 3.06624 -1.5439 0
M  V30 3902 C 376.256 3.23971 -2.73685 0
M  V30 3903 N 376.647 3.11447 -3.9854 0
M  V30 3904 C 374.945 3.5493 -2.70075 0
M  V30 3905 C 375.646 3.31011 -4.78337 0
M  V30 3906 N 374.622 3.56533 -4.10348 0
M  V30 3907 H 378.424 1.56698 -2.48642 0
M  V30 3908 H 375.938 0.779071 -1.42493 0
M  V30 3909 H 377.935 3.85839 -1.57905 0
M  V30 3910 H 376.595 3.1889 -0.611493 0
M  V30 3911 H 377.606 2.89145 -4.29669 0
M  V30 3912 H 374.283 3.73832 -1.85893 0
M  V30 3913 H 375.673 3.26445 -5.87268 0
M  V30 3914 N 378.394 1.34581 0.820102 0
M  V30 3915 C 379.341 1.2639 1.93117 0
M  V30 3916 C 380.311 0.138554 1.65521 0
M  V30 3917 O 381.496 0.320004 1.88097 0
M  V30 3918 C 378.636 1.02812 3.29429 0
M  V30 3919 C 377.749 2.24146 3.693 0
M  V30 3920 C 376.884 1.93829 4.94574 0
M  V30 3921 C 375.923 3.1129 5.27034 0
M  V30 3922 N 375.06 2.80838 6.43486 0
M  V30 3923 H 379.9 2.21408 1.99455 0
M  V30 3924 H 377.437 1.10077 0.975784 0
M  V30 3925 H 379.395 0.871788 4.0799 0
M  V30 3926 H 378.025 0.114612 3.22596 0
M  V30 3927 H 377.077 2.50691 2.86109 0
M  V30 3928 H 378.389 3.11899 3.89257 0
M  V30 3929 H 377.543 1.74948 5.80929 0
M  V30 3930 H 376.282 1.03341 4.76626 0
M  V30 3931 H 375.287 3.30764 4.39175 0
M  V30 3932 H 376.512 4.02561 5.4692 0
M  V30 3933 H 374.458 1.92929 6.26988 0
M  V30 3934 H 374.375 3.62123 6.63629 0
M  V30 3935 H 375.643 2.65467 7.32903 0
M  V30 3936 N 379.872 -1.04064 1.18357 0
M  V30 3937 C 381.1 -1.80916 1.00384 0
M  V30 3938 C 381.515 -1.83414 -0.447738 0
M  V30 3939 O 380.872 -1.26962 -1.31099 0
M  V30 3940 C 380.923 -3.26516 1.55144 0
M  V30 3941 O 380.644 -3.2424 2.94618 0
M  V30 3942 C 382.145 -4.20013 1.41789 0
M  V30 3943 H 379.365 -0.569728 0.354474 0
M  V30 3944 H 381.909 -1.31151 1.56906 0
M  V30 3945 H 380.064 -3.73512 1.02798 0
M  V30 3946 H 380.478 -4.15452 3.20156 0
M  V30 3947 H 381.952 -5.20111 1.84901 0
M  V30 3948 H 382.429 -4.37667 0.36661 0
M  V30 3949 H 383.035 -3.78881 1.93207 0
M  V30 3950 N 381.35 -0.985608 -1.22978 0
M  V30 3951 C 382.578 -0.675582 -1.95559 0
M  V30 3952 C 382.993 0.758413 -1.72897 0
M  V30 3953 O 382.35 1.51094 -1.02357 0
M  V30 3954 C 382.401 -0.96293 -3.48439 0
M  V30 3955 O 382.122 -2.34057 -3.70336 0
M  V30 3956 C 383.623 -0.669585 -4.38214 0
M  V30 3957 H 380.843 -0.250523 -0.622478 0
M  V30 3958 H 383.387 -1.3184 -1.56328 0
M  V30 3959 H 381.542 -0.366033 -3.85667 0
M  V30 3960 H 381.956 -2.43424 -4.64591 0
M  V30 3961 H 383.43 -0.920967 -5.44263 0
M  V30 3962 H 383.907 0.396383 -4.37408 0
M  V30 3963 H 384.513 -1.2472 -4.06602 0
M  V30 3964 N 382.828 1.3818 -0.7579 0
M  V30 3965 C 383.775 2.30416 -0.133057 0
M  V30 3966 C 384.745 1.50398 0.704957 0
M  V30 3967 O 385.93 1.79014 0.660192 0
M  V30 3968 C 383.07 3.36834 0.750813 0
M  V30 3969 C 382.183 4.31879 -0.102297 0
M  V30 3970 C 381.318 5.25368 0.784979 0
M  V30 3971 C 380.357 6.12058 -0.0715046 0
M  V30 3972 N 379.494 6.97832 0.772972 0
M  V30 3973 H 384.334 2.83274 -0.925186 0
M  V30 3974 H 381.871 1.39461 -0.467866 0
M  V30 3975 H 383.829 3.97145 1.27794 0
M  V30 3976 H 382.459 2.85374 1.50868 0
M  V30 3977 H 381.511 3.72991 -0.747095 0
M  V30 3978 H 382.823 4.92921 -0.763552 0
M  V30 3979 H 381.977 5.90818 1.37911 0
M  V30 3980 H 380.716 4.64703 1.47996 0
M  V30 3981 H 379.721 5.456 -0.678272 0
M  V30 3982 H 380.946 6.74793 -0.763606 0
M  V30 3983 H 378.892 6.3971 1.45282 0
M  V30 3984 H 378.809 7.55812 0.168709 0
M  V30 3985 H 380.077 7.67687 1.35194 0
M  V30 3986 N 384.306 0.507319 1.49211 0
M  V30 3987 C 385.239 -0.314509 2.26022 0
M  V30 3988 C 386.217 -0.964849 1.30879 0
M  V30 3989 O 387.401 -0.993707 1.6018 0
M  V30 3990 C 384.528 -1.44346 3.06402 0
M  V30 3991 C 383.574 -0.90685 4.16748 0
M  V30 3992 S 384.407 0.207392 5.35098 0
M  V30 3993 C 385.563 -0.924573 6.19033 0
M  V30 3994 H 385.796 0.337416 2.95379 0
M  V30 3995 H 383.329 0.292718 1.516 0
M  V30 3996 H 385.287 -2.09029 3.53295 0
M  V30 3997 H 383.948 -2.06702 2.36502 0
M  V30 3998 H 383.141 -1.75309 4.72528 0
M  V30 3999 H 382.743 -0.33712 3.72478 0
M  V30 4000 H 385.035 -1.82839 6.52362 0
M  V30 4001 H 385.978 -0.405248 7.06939 0
M  V30 4002 H 386.386 -1.19476 5.51712 0
M  V30 4003 N 385.784 -1.5574 0.241426 0
M  V30 4004 C 387.009 -2.0366 -0.392111 0
M  V30 4005 C 387.434 -1.11969 -1.51144 0
M  V30 4006 O 386.792 -0.111594 -1.80956 0
M  V30 4007 C 386.84 -3.49638 -0.882371 0
M  V30 4008 O 385.944 -3.6108 -1.99235 0
M  V30 4009 H 385.285 -0.658379 -0.0862122 0
M  V30 4010 H 387.815 -2.01302 0.365881 0
M  V30 4011 H 387.825 -3.90351 -1.18702 0
M  V30 4012 H 386.5 -4.15852 -0.0632361 0
M  V30 4013 H 385.077 -3.32262 -1.69282 0
M  V30 4014 N 387.262 0.0317525 -1.57568 0
M  V30 4015 C 388.225 1.01783 -2.0536 0
M  V30 4016 C 389.225 1.29203 -0.957253 0
M  V30 4017 O 390.415 1.24251 -1.22095 0
M  V30 4018 C 387.547 2.35137 -2.46827 0
M  V30 4019 H 388.74 0.605062 -2.93733 0
M  V30 4020 H 386.293 0.278514 -1.53799 0
M  V30 4021 H 387.028 2.81168 -1.61602 0
M  V30 4022 H 386.813 2.16566 -3.26866 0
M  V30 4023 H 388.303 3.05938 -2.84239 0
M  V30 4024 N 388.74 1.54641 0.303973 0
M  V30 4025 C 389.703 1.84646 1.35789 0
M  V30 4026 C 390.703 0.7192 1.4382 0
M  V30 4027 O 391.893 0.987491 1.43507 0
M  V30 4028 C 389.025 2.02407 2.74307 0
M  V30 4029 H 390.218 2.78829 1.10429 0
M  V30 4030 H 387.771 1.46658 0.540487 0
M  V30 4031 H 388.506 1.10502 3.04893 0
M  V30 4032 H 388.291 2.84453 2.69868 0
M  V30 4033 H 389.781 2.27002 3.50514 0
M  V30 4034 N 390.218 -0.567019 1.47046 0
M  V30 4035 C 391.466 -1.322 1.52864 0
M  V30 4036 C 391.787 -1.94088 0.188388 0
M  V30 4037 O 391.057 -1.7941 -0.786693 0
M  V30 4038 H 389.637 -0.490894 0.563056 0
M  V30 4039 H 392.299 -0.662879 1.83281 0
M  V30 4040 H 391.395 -2.12062 2.2899 0
M  V30 4041 N 391.696 -1.35014 -0.812953 0
M  V30 4042 C 392.924 -1.31031 -1.6012 0
M  V30 4043 C 393.339 0.113558 -1.88458 0
M  V30 4044 O 392.696 1.06363 -1.48301 0
M  V30 4045 C 392.747 -2.10872 -2.93624 0
M  V30 4046 O 392.468 -3.47706 -2.66518 0
M  V30 4047 C 393.969 -2.14401 -3.88004 0
M  V30 4048 H 391.189 -0.45037 -0.497401 0
M  V30 4049 H 393.733 -1.77775 -1.01076 0
M  V30 4050 H 391.888 -1.67744 -3.492 0
M  V30 4051 H 392.302 -3.89097 -3.51715 0
M  V30 4052 H 393.776 -2.74669 -4.78812 0
M  V30 4053 H 394.253 -1.14105 -4.24119 0
M  V30 4054 H 394.859 -2.57662 -3.38364 0
M  V30 4055 N 393.175 1.03435 -1.18907 0
M  V30 4056 C 394.405 1.8012 -1.01195 0
M  V30 4057 C 394.813 1.8395 0.442613 0
M  V30 4058 O 394.156 1.27836 1.31923 0
M  V30 4059 C 394.218 3.26792 -1.49823 0
M  V30 4060 C 393.882 3.46609 -2.97844 0
M  V30 4061 C 394.879 3.37278 -3.95651 0
M  V30 4062 C 392.564 3.73001 -3.36416 0
M  V30 4063 C 394.558 3.54054 -5.30023 0
M  V30 4064 C 392.245 3.89423 -4.70949 0
M  V30 4065 C 393.243 3.79951 -5.67562 0
M  V30 4066 O 392.931 3.95895 -6.99659 0
M  V30 4067 H 392.663 0.573865 -0.357289 0
M  V30 4068 H 395.217 1.31207 -1.58031 0
M  V30 4069 H 393.447 3.76703 -0.873578 0
M  V30 4070 H 395.136 3.85055 -1.28404 0
M  V30 4071 H 395.902 3.16846 -3.67197 0
M  V30 4072 H 391.781 3.79469 -2.61772 0
M  V30 4073 H 395.325 3.46577 -6.05417 0
M  V30 4074 H 391.222 4.09351 -4.99101 0
M  V30 4075 H 391.99 4.13019 -7.06653 0
M  V30 4076 N 394.653 0.992116 1.22453 0
M  V30 4077 C 395.616 0.546883 2.2258 0
M  V30 4078 C 396.616 -0.369829 1.56489 0
M  V30 4079 O 397.806 -0.161896 1.73446 0
M  V30 4080 C 394.938 -0.204659 3.40285 0
M  V30 4081 H 396.131 1.43234 2.63484 0
M  V30 4082 H 393.684 0.779239 1.3549 0
M  V30 4083 H 394.419 -1.10614 3.04853 0
M  V30 4084 H 394.204 0.45354 3.89468 0
M  V30 4085 H 395.694 -0.504358 4.14543 0
M  V30 4086 N 396.131 -1.37776 0.765217 0
M  V30 4087 C 397.377 -2.00604 0.336066 0
M  V30 4088 C 397.732 -1.59657 -1.07366 0
M  V30 4089 O 397.025 -0.829565 -1.7271 0
M  V30 4090 C 397.219 -3.5504 0.410053 0
M  V30 4091 C 397.048 -4.10985 1.82542 0
M  V30 4092 C 395.818 -4.42229 2.44461 0
M  V30 4093 C 398.016 -4.32438 2.78392 0
M  V30 4094 N 395.998 -4.8385 3.77839 0
M  V30 4095 C 397.369 -4.76596 3.96556 0
M  V30 4096 C 399.424 -4.14559 2.75764 0
M  V30 4097 C 398.127 -5.04748 5.12466 0
M  V30 4098 C 400.153 -4.43843 3.90842 0
M  V30 4099 C 399.515 -4.88235 5.07746 0
M  V30 4100 H 395.614 -0.763325 0.169881 0
M  V30 4101 H 398.198 -1.67197 0.997656 0
M  V30 4102 H 396.369 -3.87769 -0.221325 0
M  V30 4103 H 398.101 -4.0468 -0.0405285 0
M  V30 4104 H 394.856 -4.31079 1.96131 0
M  V30 4105 H 395.28 -5.08979 4.46396 0
M  V30 4106 H 399.922 -3.79415 1.86558 0
M  V30 4107 H 397.64 -5.38783 6.02277 0
M  V30 4108 H 401.226 -4.31603 3.90141 0
M  V30 4109 H 400.106 -5.10461 5.95315 0
M  V30 4110 N 397.609 -0.515225 -1.4894 0
M  V30 4111 C 398.542 0.302518 -2.26186 0
M  V30 4112 C 399.52 0.957895 -1.31389 0
M  V30 4113 O 400.704 0.985198 -1.60705 0
M  V30 4114 C 397.831 1.42719 -3.07163 0
M  V30 4115 C 396.877 0.884736 -4.17223 0
M  V30 4116 S 397.71 -0.235767 -5.34981 0
M  V30 4117 C 398.866 0.891731 -6.19515 0
M  V30 4118 H 399.099 -0.353076 -2.95196 0
M  V30 4119 H 396.632 -0.300753 -1.51443 0
M  V30 4120 H 398.59 2.07152 -3.54398 0
M  V30 4121 H 397.251 2.05445 -2.37595 0
M  V30 4122 H 396.444 1.72801 -4.73451 0
M  V30 4123 H 396.046 0.317362 -3.72651 0
M  V30 4124 H 398.338 1.79377 -6.53322 0
M  V30 4125 H 399.281 0.367751 -7.07144 0
M  V30 4126 H 399.689 1.16548 -5.52338 0
M  V30 4127 N 399.087 1.5561 -0.249682 0
M  V30 4128 C 400.05 2.20217 0.635394 0
M  V30 4129 C 401.05 1.17227 1.10066 0
M  V30 4130 O 402.24 1.42292 1.00492 0
M  V30 4131 C 399.372 2.84794 1.87363 0
M  V30 4132 H 400.565 2.99814 0.0716752 0
M  V30 4133 H 398.118 1.563 -0.000153234 0
M  V30 4134 H 398.853 2.09142 2.47851 0
M  V30 4135 H 398.638 3.60241 1.5482 0
M  V30 4136 H 400.128 3.3423 2.5036 0
M  V30 4137 N 400.565 -0.0233959 1.57583 0
M  V30 4138 C 401.976 -0.56927 1.77809 0
M  V30 4139 C 402.327 -1.75284 0.881472 0
M  V30 4140 O 401.452 -2.1626 0.0777805 0
M  V30 4141 C 402.047 -1.03949 3.22459 0
M  V30 4142 C 400.606 -1.53084 3.43864 0
M  V30 4143 C 399.753 -0.471454 2.73263 0
M  V30 4144 H 402.704 0.202825 1.57399 0
M  V30 4145 H 402.725 -1.90661 3.29285 0
M  V30 4146 H 402.237 -0.177865 3.87692 0
M  V30 4147 H 400.338 -2.41414 2.83814 0
M  V30 4148 H 400.451 -1.57443 4.52491 0
M  V30 4149 H 398.815 -0.927788 2.37201 0
M  V30 4150 H 399.598 0.380808 3.41181 0
M  V30 4151 N 402.043 -1.548 -0.295768 0
M  V30 4152 C 402.953 -1.89177 -1.38742 0
M  V30 4153 C 403.969 -0.786481 -1.55211 0
M  V30 4154 O 405.145 -1.08344 -1.69775 0
M  V30 4155 C 402.21 -2.13663 -2.73036 0
M  V30 4156 C 401.271 -3.37349 -2.65508 0
M  V30 4157 C 400.504 -3.60658 -3.93398 0
M  V30 4158 O 400.727 -2.86882 -4.93006 0
M  V30 4159 O 399.661 -4.54179 -3.94975 0
M  V30 4160 H 403.487 -2.82059 -1.12589 0
M  V30 4161 H 401.072 -1.41056 -0.492295 0
M  V30 4162 H 402.954 -2.3094 -3.52484 0
M  V30 4163 H 401.629 -1.23967 -2.99022 0
M  V30 4164 H 400.536 -3.25431 -1.84514 0
M  V30 4165 H 401.869 -4.27192 -2.44474 0
M  V30 4166 N 403.521 0.559213 -1.47345 0
M  V30 4167 C 404.767 1.31843 -1.54095 0
M  V30 4168 C 405.1 1.93149 -0.201726 0
M  V30 4169 O 404.375 1.77759 0.789428 0
M  V30 4170 C 404.658 2.43006 -2.65744 0
M  V30 4171 C 404.511 1.86581 -4.09277 0
M  V30 4172 C 405.83 3.44943 -2.73318 0
M  V30 4173 H 402.949 0.478012 -0.560957 0
M  V30 4174 H 405.591 0.625977 -1.79392 0
M  V30 4175 H 403.741 3.02072 -2.44305 0
M  V30 4176 H 405.413 1.31792 -4.42073 0
M  V30 4177 H 403.656 1.17268 -4.17649 0
M  V30 4178 H 404.327 2.66933 -4.83168 0
M  V30 4179 H 406.803 2.95793 -2.92653 0
M  V30 4180 H 405.679 4.20153 -3.53218 0
M  V30 4181 H 405.94 4.03665 -1.80296 0
M  V30 4182 N 404.999 1.35443 0.805782 0
M  V30 4183 C 406.248 1.28097 1.55801 0
M  V30 4184 C 406.561 -0.142428 1.95081 0
M  V30 4185 O 407.767 -0.33817 2.69386 0
M  V30 4186 C 406.223 2.24653 2.81174 0
M  V30 4187 C 405.831 3.72342 2.49129 0
M  V30 4188 C 407.575 2.2625 3.59181 0
M  V30 4189 C 405.482 4.60719 3.70799 0
M  V30 4190 H 404.412 0.475937 0.584808 0
M  V30 4191 H 407.063 1.60712 0.885661 0
M  V30 4192 H 405.445 1.85011 3.50124 0
M  V30 4193 H 406.619 4.20624 1.88181 0
M  V30 4194 H 404.934 3.73361 1.84366 0
M  V30 4195 H 407.531 2.89495 4.49552 0
M  V30 4196 H 407.874 1.26647 3.96568 0
M  V30 4197 H 408.407 2.64426 2.97193 0
M  V30 4198 H 405.146 5.61324 3.3852 0
M  V30 4199 H 404.666 4.17163 4.3097 0
M  V30 4200 H 406.345 4.76182 4.38018 0
M  V30 4201 N 406.477 -1.02803 1.19454 0
M  V30 4202 C 407.893 -1.28473 0.946937 0
M  V30 4203 C 408.093 -1.97881 -0.380202 0
M  V30 4204 O 407.149 -2.26719 -1.11151 0
M  V30 4205 C 408.462 -2.13099 2.12154 0
M  V30 4206 C 410.01 -2.26404 2.16126 0
M  V30 4207 C 410.485 -3.14402 3.33039 0
M  V30 4208 N 411.976 -3.21991 3.32981 0
M  V30 4209 C 412.711 -3.90272 4.20089 0
M  V30 4210 N 412.207 -4.60777 5.17355 0
M  V30 4211 N 414 -3.8668 4.07964 0
M  V30 4212 H 406.151 -0.561665 2.04839 0
M  V30 4213 H 408.414 -0.310438 0.89573 0
M  V30 4214 H 408.12 -1.69422 3.08203 0
M  V30 4215 H 407.994 -3.13813 2.09287 0
M  V30 4216 H 410.381 -2.69311 1.20647 0
M  V30 4217 H 410.462 -1.25237 2.23045 0
M  V30 4218 H 410.106 -2.72204 4.28798 0
M  V30 4219 H 410.036 -4.1563 3.23356 0
M  V30 4220 H 412.527 -2.71778 2.62574 0
M  V30 4221 H 412.84 -5.10513 5.80169 0
M  V30 4222 H 411.185 -4.5964 5.21302 0
M  V30 4223 H 414.376 -3.30739 3.31254 0
M  V30 4224 H 414.549 -4.39621 4.76064 0
M  V30 4225 N 407.956 -0.998596 -1.21925 0
M  V30 4226 C 408.886 -0.573688 -2.26343 0
M  V30 4227 C 409.867 0.402296 -1.65274 0
M  V30 4228 O 411.052 0.291683 -1.91997 0
M  V30 4229 C 408.182 0.106839 -3.47136 0
M  V30 4230 C 407.136 -0.788269 -4.20678 0
M  V30 4231 C 406.462 0.0254927 -5.34694 0
M  V30 4232 C 407.762 -2.08784 -4.78755 0
M  V30 4233 H 409.456 -1.44651 -2.62138 0
M  V30 4234 H 407.002 -0.696975 -1.26009 0
M  V30 4235 H 408.955 0.415531 -4.19346 0
M  V30 4236 H 407.679 1.01424 -3.10452 0
M  V30 4237 H 406.338 -1.08069 -3.50309 0
M  V30 4238 H 405.986 0.933989 -4.94253 0
M  V30 4239 H 405.686 -0.570437 -5.84825 0
M  V30 4240 H 407.21 0.328147 -6.09718 0
M  V30 4241 H 408.624 -1.84272 -5.42878 0
M  V30 4242 H 407.021 -2.63307 -5.39249 0
M  V30 4243 H 408.091 -2.76284 -3.98491 0
M  V30 4244 N 409.434 1.37368 -0.772513 0
M  V30 4245 C 410.659 2.0447 -0.347386 0
M  V30 4246 C 411.084 1.57882 1.0225 0
M  V30 4247 O 410.442 0.73941 1.65537 0
M  V30 4248 C 410.49 3.58369 -0.400479 0
M  V30 4249 O 409.594 4.0803 0.598789 0
M  V30 4250 H 408.935 0.646773 -0.15027 0
M  V30 4251 H 411.465 1.75667 -1.04892 0
M  V30 4252 H 411.475 4.07183 -0.258045 0
M  V30 4253 H 410.15 3.91633 -1.39986 0
M  V30 4254 H 408.727 3.70534 0.419411 0
M  V30 4255 N 410.912 0.523116 1.48665 0
M  V30 4256 C 411.842 -0.23231 2.32342 0
M  V30 4257 C 412.823 -0.941637 1.41659 0
M  V30 4258 O 414.008 -0.928751 1.70552 0
M  V30 4259 C 411.138 -1.28387 3.22698 0
M  V30 4260 C 410.092 -0.693098 4.22351 0
M  V30 4261 C 409.418 -1.8468 5.01794 0
M  V30 4262 C 410.718 0.33063 5.21252 0
M  V30 4263 H 412.412 0.466192 2.95748 0
M  V30 4264 H 409.958 0.225643 1.42221 0
M  V30 4265 H 411.911 -1.82024 3.80059 0
M  V30 4266 H 410.635 -2.01186 2.57278 0
M  V30 4267 H 409.294 -0.178299 3.66166 0
M  V30 4268 H 408.942 -2.56301 4.32804 0
M  V30 4269 H 408.642 -1.45747 5.69238 0
M  V30 4270 H 410.166 -2.38709 5.62006 0
M  V30 4271 H 411.58 -0.118407 5.73178 0
M  V30 4272 H 409.977 0.636974 5.9671 0
M  V30 4273 H 411.047 1.23883 4.68808 0
M  V30 4274 N 412.39 -1.55475 0.257931 0
M  V30 4275 C 413.637 -1.99207 -0.363728 0
M  V30 4276 C 413.965 -1.1462 -1.57139 0
M  V30 4277 O 413.22 -0.199653 -1.94679 0
M  V30 4278 C 413.519 -3.48183 -0.806433 0
M  V30 4279 C 413.185 -4.49936 0.294684 0
M  V30 4280 C 411.847 -4.77481 0.597076 0
M  V30 4281 C 414.199 -5.10769 1.03751 0
M  V30 4282 C 411.527 -5.63132 1.64618 0
M  V30 4283 C 413.879 -5.97558 2.07622 0
M  V30 4284 C 412.543 -6.23432 2.38514 0
M  V30 4285 H 411.813 -0.728949 -0.133097 0
M  V30 4286 H 414.46 -1.8793 0.368059 0
M  V30 4287 H 412.765 -3.56848 -1.61761 0
M  V30 4288 H 414.462 -3.79415 -1.29789 0
M  V30 4289 H 411.052 -4.28572 0.0488649 0
M  V30 4290 H 415.236 -4.89527 0.817149 0
M  V30 4291 H 410.492 -5.8143 1.89074 0
M  V30 4292 H 414.666 -6.43735 2.65666 0
M  V30 4293 H 412.293 -6.89594 3.19943 0
M  V30 4294 N 413.868 0.0150385 -1.57593 0
M  V30 4295 C 415.093 0.718067 -1.94573 0
M  V30 4296 C 415.518 1.6734 -0.859005 0
M  V30 4297 O 414.876 1.80362 0.184147 0
M  V30 4298 C 414.924 1.43918 -3.30636 0
M  V30 4299 O 414.028 2.55299 -3.23876 0
M  V30 4300 H 413.369 0.192125 -0.635597 0
M  V30 4301 H 415.899 -0.0336708 -2.04572 0
M  V30 4302 H 415.909 1.80598 -3.65853 0
M  V30 4303 H 414.584 0.738619 -4.09289 0
M  V30 4304 H 413.161 2.21058 -3.00312 0
M  V30 4305 N 415.346 1.54954 0.287554 0
M  V30 4306 C 416.293 1.86834 1.35505 0
M  V30 4307 C 417.263 0.718452 1.49758 0
M  V30 4308 O 418.448 0.968358 1.644 0
M  V30 4309 C 415.588 2.13303 2.71286 0
M  V30 4310 C 414.701 3.40883 2.65373 0
M  V30 4311 C 413.836 3.57125 3.93236 0
M  V30 4312 C 412.875 4.78449 3.81776 0
M  V30 4313 N 412.012 4.91426 5.01443 0
M  V30 4314 H 416.852 2.77889 1.07619 0
M  V30 4315 H 414.389 1.37593 0.520241 0
M  V30 4316 H 416.347 2.26646 3.50267 0
M  V30 4317 H 414.977 1.25499 2.97405 0
M  V30 4318 H 414.029 3.36088 1.78182 0
M  V30 4319 H 415.341 4.29993 2.52799 0
M  V30 4320 H 414.495 3.70207 4.80658 0
M  V30 4321 H 413.234 2.66173 4.0866 0
M  V30 4322 H 412.239 4.65386 2.92738 0
M  V30 4323 H 413.464 5.70822 3.67884 0
M  V30 4324 H 411.41 4.03401 5.17304 0
M  V30 4325 H 411.327 5.74559 4.91343 0
M  V30 4326 H 412.595 5.08879 5.90477 0
M  V30 4327 N 416.824 -0.551391 1.4764 0
M  V30 4328 C 418.049 -1.33837 1.58437 0
M  V30 4329 C 418.474 -1.866 0.237063 0
M  V30 4330 O 417.832 -1.6328 -0.787994 0
M  V30 4331 C 417.88 -2.48014 2.61766 0
M  V30 4332 O 416.984 -3.50419 2.1744 0
M  V30 4333 H 416.325 -0.397299 0.532024 0
M  V30 4334 H 418.855 -0.665759 1.93465 0
M  V30 4335 H 418.865 -2.94503 2.82369 0
M  V30 4336 H 417.54 -2.08969 3.5959 0
M  V30 4337 H 416.117 -3.10196 2.06961 0
M  V30 4338 N 418.302 -1.35869 -0.798587 0
M  V30 4339 C 419.527 -1.32883 -1.59238 0
M  V30 4340 C 419.952 0.0894587 -1.87887 0
M  V30 4341 O 419.31 1.05869 -1.47178 0
M  V30 4342 C 419.358 -2.14892 -2.89575 0
M  V30 4343 O 418.462 -1.53512 -3.82763 0
M  V30 4344 H 417.803 -0.455236 -0.48338 0
M  V30 4345 H 420.333 -1.79024 -0.990539 0
M  V30 4346 H 420.343 -2.27139 -3.38928 0
M  V30 4347 H 419.018 -3.17998 -2.68049 0
M  V30 4348 H 417.595 -1.50153 -3.41334 0
M  V30 4349 N 419.78 1.02168 -1.19998 0
M  V30 4350 C 421.057 1.72816 -0.916191 0
M  V30 4351 C 421.437 2.03081 0.576325 0
M  V30 4352 O 420.785 1.69122 1.53656 0
M  V30 4353 C 420.995 2.9997 -1.78378 0
M  V30 4354 C 422.343 3.73336 -2.02251 0
M  V30 4355 O 423.367 3.09914 -1.75589 0
M  V30 4356 O 422.226 4.87371 -2.47249 0
M  V30 4357 H 419.32 0.752924 -0.342103 0
M  V30 4358 H 421.866 1.08062 -1.30846 0
M  V30 4359 H 420.638 2.73888 -2.79466 0
M  V30 4360 H 420.261 3.72464 -1.39126 0
M  V30 4361 N 421.258 1.00505 1.21394 0
M  V30 4362 C 422.504 0.688793 1.90745 0
M  V30 4363 C 422.837 -0.778486 1.77914 0
M  V30 4364 O 422.112 -1.56433 1.15581 0
M  V30 4365 C 422.395 1.11063 3.42545 0
M  V30 4366 C 422.248 2.63737 3.64367 0
M  V30 4367 C 423.567 0.673059 4.34923 0
M  V30 4368 H 420.686 0.251702 0.692687 0
M  V30 4369 H 423.328 1.25074 1.43026 0
M  V30 4370 H 421.478 0.632508 3.83317 0
M  V30 4371 H 423.15 3.19313 3.32922 0
M  V30 4372 H 421.393 3.05248 3.08231 0
M  V30 4373 H 422.064 2.88305 4.70727 0
M  V30 4374 H 424.54 1.08392 4.01734 0
M  V30 4375 H 423.416 0.996383 5.39781 0
M  V30 4376 H 423.677 -0.425808 4.40045 0
M  V30 4377 N 422.737 -1.36956 0.779787 0
M  V30 4378 C 423.983 -2.00237 0.357324 0
M  V30 4379 C 424.338 -1.60787 -1.05666 0
M  V30 4380 O 423.631 -0.847836 -1.71821 0
M  V30 4381 C 423.825 -3.54585 0.447686 0
M  V30 4382 C 423.654 -4.09025 1.86891 0
M  V30 4383 C 422.424 -4.39612 2.49138 0
M  V30 4384 C 424.622 -4.29461 2.82963 0
M  V30 4385 N 422.604 -4.79816 3.82949 0
M  V30 4386 C 423.975 -4.72363 4.01588 0
M  V30 4387 C 426.03 -4.1161 2.80145 0
M  V30 4388 C 424.733 -4.99284 5.17791 0
M  V30 4389 C 426.759 -4.39672 3.95528 0
M  V30 4390 C 426.121 -4.82822 5.12896 0
M  V30 4391 H 422.22 -0.76148 0.177968 0
M  V30 4392 H 424.804 -1.6613 1.01533 0
M  V30 4393 H 422.975 -3.87982 -0.180184 0
M  V30 4394 H 424.707 -4.047 0.0023955 0
M  V30 4395 H 421.462 -4.28975 2.00693 0
M  V30 4396 H 421.886 -5.04216 4.51769 0
M  V30 4397 H 426.528 -3.77415 1.90572 0
M  V30 4398 H 424.246 -5.32365 6.07958 0
M  V30 4399 H 427.832 -4.27441 3.94697 0
M  V30 4400 H 426.712 -5.04118 6.00695 0
M  V30 4401 N 424.215 -0.530993 -1.48385 0
M  V30 4402 C 425.44 0.000729535 -2.074 0
M  V30 4403 C 425.865 1.27298 -1.3848 0
M  V30 4404 O 425.223 1.75599 -0.451081 0
M  V30 4405 C 425.271 0.206697 -3.60007 0
M  V30 4406 O 424.375 1.27514 -3.92191 0
M  V30 4407 H 423.716 -0.039583 -0.662819 0
M  V30 4408 H 426.246 -0.739194 -1.9078 0
M  V30 4409 H 426.256 0.42904 -4.05738 0
M  V30 4410 H 424.931 -0.722675 -4.09573 0
M  V30 4411 H 423.508 1.03537 -3.58238 0
M  V30 4412 N 425.693 1.55336 -0.266172 0
M  V30 4413 C 426.94 1.99397 0.353158 0
M  V30 4414 C 427.268 1.15451 1.56529 0
M  V30 4415 O 426.523 0.209974 1.9457 0
M  V30 4416 C 426.822 3.48606 0.787957 0
M  V30 4417 C 426.488 4.49773 -0.318541 0
M  V30 4418 C 425.15 4.77158 -0.62239 0
M  V30 4419 C 427.502 5.10212 -1.06459 0
M  V30 4420 C 424.83 5.62251 -1.67602 0
M  V30 4421 C 427.182 5.96449 -2.10788 0
M  V30 4422 C 425.846 6.22158 -2.41817 0
M  V30 4423 H 425.116 0.729644 0.12923 0
M  V30 4424 H 427.763 1.87732 -0.37802 0
M  V30 4425 H 426.068 3.57701 1.59866 0
M  V30 4426 H 427.765 3.80098 1.27775 0
M  V30 4427 H 424.355 4.2854 -0.0715925 0
M  V30 4428 H 428.539 4.89086 -0.843098 0
M  V30 4429 H 423.795 5.80419 -1.92155 0
M  V30 4430 H 427.969 6.42317 -2.69076 0
M  V30 4431 H 425.596 6.87888 -3.23596 0
M  V30 4432 N 427.171 -0.0066808 1.57599 0
M  V30 4433 C 428.419 -0.691552 1.899 0
M  V30 4434 C 428.74 -1.74682 0.866672 0
M  V30 4435 O 428.01 -1.95661 -0.0968189 0
M  V30 4436 H 426.59 -0.258416 0.700878 0
M  V30 4437 H 429.252 0.0326655 1.94873 0
M  V30 4438 H 428.348 -1.16702 2.8946 0
M  V30 4439 N 428.649 -1.55105 -0.279332 0
M  V30 4440 C 429.895 -1.75672 -1.01327 0
M  V30 4441 C 430.228 -0.552739 -1.86168 0
M  V30 4442 O 429.503 0.449827 -1.89227 0
M  V30 4443 C 429.786 -3.05825 -1.90114 0
M  V30 4444 C 429.639 -4.36565 -1.08309 0
M  V30 4445 C 430.958 -3.31975 -2.8893 0
M  V30 4446 H 428.077 -0.639149 -0.366957 0
M  V30 4447 H 430.719 -1.87833 -0.286154 0
M  V30 4448 H 428.869 -2.95588 -2.52111 0
M  V30 4449 H 430.541 -4.58751 -0.484314 0
M  V30 4450 H 428.784 -4.32076 -0.386362 0
M  V30 4451 H 429.455 -5.23946 -1.73737 0
M  V30 4452 H 431.931 -3.41963 -2.37067 0
M  V30 4453 H 430.807 -4.2432 -3.48201 0
M  V30 4454 H 431.068 -2.51309 -3.63725 0
M  V30 4455 N 430.127 0.543554 -1.4793 0
M  V30 4456 C 431.057 1.65888 -1.64327 0
M  V30 4457 C 432.038 1.62818 -0.492383 0
M  V30 4458 O 433.223 1.80226 -0.723338 0
M  V30 4459 C 430.353 3.04506 -1.67013 0
M  V30 4460 C 429.307 3.2243 -2.81466 0
M  V30 4461 C 428.633 4.61972 -2.69233 0
M  V30 4462 C 429.933 3.06496 -4.22915 0
M  V30 4463 H 431.627 1.52421 -2.57698 0
M  V30 4464 H 429.173 0.731849 -1.24016 0
M  V30 4465 H 431.126 3.82391 -1.77074 0
M  V30 4466 H 429.85 3.18964 -0.70212 0
M  V30 4467 H 428.509 2.46957 -2.70938 0
M  V30 4468 H 428.157 4.73247 -1.7043 0
M  V30 4469 H 427.857 4.74911 -3.46025 0
M  V30 4470 H 429.381 5.41974 -2.81242 0
M  V30 4471 H 430.795 3.74186 -4.34348 0
M  V30 4472 H 429.192 3.30938 -5.006 0
M  V30 4473 H 430.262 2.03077 -4.40327 0
M  V30 4474 N 431.605 1.3629 0.791371 0
M  V30 4475 C 432.535 1.33137 1.91825 0
M  V30 4476 C 433.516 0.203168 1.68882 0
M  V30 4477 O 434.701 0.400509 1.90025 0
M  V30 4478 C 431.831 1.11793 3.28816 0
M  V30 4479 C 430.785 2.21417 3.66277 0
M  V30 4480 C 430.111 1.85218 5.01596 0
M  V30 4481 C 431.411 3.63489 3.75064 0
M  V30 4482 H 433.105 2.2743 1.9472 0
M  V30 4483 H 430.651 1.09479 0.935437 0
M  V30 4484 H 432.604 1.08222 4.07266 0
M  V30 4485 H 431.328 0.139501 3.26302 0
M  V30 4486 H 429.987 2.2411 2.90121 0
M  V30 4487 H 429.635 0.859544 4.95602 0
M  V30 4488 H 429.335 2.58611 5.27631 0
M  V30 4489 H 430.859 1.832 5.82469 0
M  V30 4490 H 432.273 3.63034 4.43711 0
M  V30 4491 H 430.67 4.35771 4.12582 0
M  V30 4492 H 431.74 3.98536 2.76219 0
M  V30 4493 N 433.083 -1.0153 1.20538 0
M  V30 4494 C 434.329 -1.75517 1.02787 0
M  V30 4495 C 434.684 -1.87411 -0.435289 0
M  V30 4496 O 433.977 -1.38982 -1.31889 0
M  V30 4497 C 434.171 -3.17213 1.64654 0
M  V30 4498 C 434 -3.19134 3.16834 0
M  V30 4499 C 432.77 -3.26301 3.85818 0
M  V30 4500 C 434.968 -3.05077 4.14044 0
M  V30 4501 N 432.95 -3.17739 5.25276 0
M  V30 4502 C 434.321 -3.04299 5.40187 0
M  V30 4503 C 436.376 -2.89303 4.05226 0
M  V30 4504 C 435.079 -2.89365 6.58529 0
M  V30 4505 C 437.105 -2.75723 5.23193 0
M  V30 4506 C 436.467 -2.75612 6.48242 0
M  V30 4507 H 432.566 -0.652919 0.430373 0
M  V30 4508 H 435.15 -1.20755 1.52729 0
M  V30 4509 H 433.321 -3.70266 1.17294 0
M  V30 4510 H 435.053 -3.79637 1.40208 0
M  V30 4511 H 431.808 -3.33078 3.36684 0
M  V30 4512 H 432.232 -3.16829 5.98288 0
M  V30 4513 H 436.874 -2.88201 3.09354 0
M  V30 4514 H 434.592 -2.89216 7.54573 0
M  V30 4515 H 438.178 -2.64533 5.18183 0
M  V30 4516 H 437.058 -2.65224 7.37988 0
M  V30 4517 N 434.561 -1.01147 -1.20859 0
M  V30 4518 C 435.471 -0.58686 -2.27141 0
M  V30 4519 C 436.487 0.373198 -1.69951 0
M  V30 4520 O 437.663 0.235423 -2.00019 0
M  V30 4521 C 434.728 0.0733602 -3.46622 0
M  V30 4522 C 433.789 -0.931995 -4.19061 0
M  V30 4523 C 433.022 -0.303186 -5.32838 0
M  V30 4524 O 433.245 0.898395 -5.63281 0
M  V30 4525 O 432.179 -1.01735 -5.9324 0
M  V30 4526 H 436.005 -1.47155 -2.65667 0
M  V30 4527 H 433.59 -0.780689 -1.2738 0
M  V30 4528 H 435.472 0.442333 -4.19072 0
M  V30 4529 H 434.147 0.932329 -3.09983 0
M  V30 4530 H 433.054 -1.35224 -3.48805 0
M  V30 4531 H 434.387 -1.76076 -4.59628 0
M  V30 4532 N 436.039 1.36541 -0.78704 0
M  V30 4533 C 436.969 2.32659 -0.197992 0
M  V30 4534 C 437.95 1.56533 0.665697 0
M  V30 4535 O 439.135 1.84698 0.60001 0
M  V30 4536 C 436.265 3.40778 0.669901 0
M  V30 4537 C 435.219 4.27897 -0.0937039 0
M  V30 4538 C 434.545 5.27163 0.894629 0
M  V30 4539 C 435.845 5.06334 -1.28154 0
M  V30 4540 H 437.539 2.82171 -1.00099 0
M  V30 4541 H 435.085 1.35665 -0.482793 0
M  V30 4542 H 437.038 4.07008 1.09191 0
M  V30 4543 H 435.762 2.89827 1.50558 0
M  V30 4544 H 434.421 3.6322 -0.49666 0
M  V30 4545 H 434.069 4.72486 1.72527 0
M  V30 4546 H 433.769 5.86317 0.388149 0
M  V30 4547 H 435.293 5.96266 1.31525 0
M  V30 4548 H 436.707 5.65617 -0.93541 0
M  V30 4549 H 435.104 5.74888 -1.72115 0
M  V30 4550 H 436.174 4.38114 -2.07807 0
M  V30 4551 N 437.518 0.538854 1.48102 0
M  V30 4552 C 438.448 -0.207654 2.32575 0
M  V30 4553 C 439.429 -0.926559 1.4265 0
M  V30 4554 O 440.614 -0.91061 1.71527 0
M  V30 4555 C 437.744 -1.24957 3.24042 0
M  V30 4556 C 436.698 -0.648263 4.23062 0
M  V30 4557 C 436.024 -1.79348 5.03725 0
M  V30 4558 C 437.324 0.385897 5.20872 0
M  V30 4559 H 439.018 0.497534 2.95237 0
M  V30 4560 H 436.564 0.240715 1.41974 0
M  V30 4561 H 438.517 -1.77983 3.81969 0
M  V30 4562 H 437.241 -1.98446 2.59397 0
M  V30 4563 H 435.9 -0.139452 3.66335 0
M  V30 4564 H 435.548 -2.51696 4.35498 0
M  V30 4565 H 435.248 -1.39702 5.70751 0
M  V30 4566 H 436.772 -2.32735 5.64506 0
M  V30 4567 H 438.186 -0.057607 5.73271 0
M  V30 4568 H 436.583 0.700227 5.96001 0
M  V30 4569 H 437.653 1.28848 4.67468 0
M  V30 4570 N 438.996 -1.55193 0.274407 0
M  V30 4571 C 440.224 -2.03987 -0.345943 0
M  V30 4572 C 440.639 -1.15279 -1.4952 0
M  V30 4573 O 439.996 -0.172759 -1.8168 0
M  V30 4574 C 440.047 -3.51898 -0.827631 0
M  V30 4575 O 439.768 -4.37231 0.275855 0
M  V30 4576 C 441.269 -4.16577 -1.51587 0
M  V30 4577 H 438.489 -0.666335 -0.0789892 0
M  V30 4578 H 441.033 -2.00423 0.406294 0
M  V30 4579 H 439.188 -3.55909 -1.52996 0
M  V30 4580 H 439.602 -5.24415 -0.0943638 0
M  V30 4581 H 441.076 -5.21678 -1.80433 0
M  V30 4582 H 441.553 -3.64707 -2.44716 0
M  V30 4583 H 442.159 -4.16568 -0.857409 0
M  V30 4584 N 440.474 -0.00167713 -1.576 0
M  V30 4585 C 441.722 0.681471 -1.90264 0
M  V30 4586 C 442.043 1.7422 -0.875924 0
M  V30 4587 O 441.313 1.95709 0.0864412 0
M  V30 4588 H 439.893 0.254696 -0.702239 0
M  V30 4589 H 442.555 -0.0429996 -1.94853 0
M  V30 4590 H 441.651 1.15166 -2.90075 0
M  V30 4591 N 441.952 1.55251 0.271103 0
M  V30 4592 C 442.862 1.9136 1.35714 0
M  V30 4593 C 443.878 0.811075 1.5394 0
M  V30 4594 O 445.054 1.11031 1.6803 0
M  V30 4595 C 442.119 2.1798 2.69603 0
M  V30 4596 C 441.18 3.4153 2.60107 0
M  V30 4597 C 440.413 3.66871 3.8761 0
M  V30 4598 O 440.636 2.94689 4.8838 0
M  V30 4599 O 439.57 4.60405 3.87699 0
M  V30 4600 H 443.396 2.83815 1.08088 0
M  V30 4601 H 440.981 1.41821 0.469792 0
M  V30 4602 H 442.863 2.36518 3.48765 0
M  V30 4603 H 441.538 1.28708 2.97012 0
M  V30 4604 H 440.445 3.28325 1.79314 0
M  V30 4605 H 441.778 4.31027 2.37647 0
M  V30 4606 N 443.43 -0.535701 1.48216 0
M  V30 4607 C 444.676 -1.29375 1.56173 0
M  V30 4608 C 445.009 -1.92804 0.232429 0
M  V30 4609 O 444.284 -1.78992 -0.761048 0
M  V30 4610 C 444.567 -2.38747 2.69577 0
M  V30 4611 C 444.42 -1.80046 4.12193 0
M  V30 4612 C 445.739 -3.40551 2.78771 0
M  V30 4613 H 442.858 -0.469027 0.568491 0
M  V30 4614 H 445.5 -0.597358 1.80365 0
M  V30 4615 H 443.65 -2.98147 2.4908 0
M  V30 4616 H 445.322 -1.24742 4.44114 0
M  V30 4617 H 443.565 -1.10609 4.19462 0
M  V30 4618 H 444.236 -2.59212 4.87353 0
M  V30 4619 H 446.712 -2.91099 2.97322 0
M  V30 4620 H 445.588 -4.1448 3.59857 0
M  V30 4621 H 445.849 -4.00746 1.86696 0
M  V30 4622 N 444.908 -1.36708 -0.784132 0
M  V30 4623 C 446.319 -1.27947 -1.35965 0
M  V30 4624 C 446.67 0.0784013 -1.96043 0
M  V30 4625 O 445.795 0.979989 -1.92938 0
M  V30 4626 C 446.39 -2.31689 -2.47195 0
M  V30 4627 C 444.949 -2.26601 -3.00548 0
M  V30 4628 C 444.096 -2.16184 -1.73666 0
M  V30 4629 H 447.047 -1.4751 -0.585358 0
M  V30 4630 H 447.068 -1.95638 -3.26352 0
M  V30 4631 H 446.58 -3.30506 -2.03439 0
M  V30 4632 H 444.681 -1.31268 -3.48711 0
M  V30 4633 H 444.794 -3.19508 -3.57004 0
M  V30 4634 H 443.158 -1.62524 -1.96107 0
M  V30 4635 H 443.941 -3.16896 -1.32031 0
M  V30 4636 N 446.386 1.0089 -1.21074 0
M  V30 4637 C 447.616 1.77933 -1.04993 0
M  V30 4638 C 448.024 1.84847 0.403495 0
M  V30 4639 O 447.367 1.30606 1.29181 0
M  V30 4640 C 447.429 3.23541 -1.56722 0
M  V30 4641 C 447.093 3.40214 -3.05129 0
M  V30 4642 C 448.09 3.2881 -4.02716 0
M  V30 4643 C 445.775 3.65781 -3.44252 0
M  V30 4644 C 447.769 3.42732 -5.37414 0
M  V30 4645 C 445.456 3.79346 -4.79103 0
M  V30 4646 C 446.454 3.67827 -5.75493 0
M  V30 4647 O 446.142 3.80965 -7.07899 0
M  V30 4648 H 445.874 0.566157 -0.369381 0
M  V30 4649 H 448.428 1.27826 -1.60779 0
M  V30 4650 H 446.658 3.74766 -0.953285 0
M  V30 4651 H 448.347 3.82245 -1.36543 0
M  V30 4652 H 449.113 3.08986 -3.73835 0
M  V30 4653 H 444.992 3.73831 -2.69762 0
M  V30 4654 H 448.536 3.33658 -6.12632 0
M  V30 4655 H 444.433 3.98672 -5.07672 0
M  V30 4656 H 445.201 3.97937 -7.15254 0
M  V30 4657 N 447.864 1.01787 1.20321 0
M  V30 4658 C 449.28 0.732951 1.41774 0
M  V30 4659 C 449.48 -0.686883 1.89431 0
M  V30 4660 O 448.536 -1.45446 2.06402 0
M  V30 4661 C 449.849 1.75973 2.43832 0
M  V30 4662 C 451.397 1.77802 2.57596 0
M  V30 4663 C 451.872 2.7941 3.62897 0
M  V30 4664 N 453.363 2.78157 3.70382 0
M  V30 4665 C 454.098 3.53434 4.51521 0
M  V30 4666 N 453.594 4.38392 5.36455 0
M  V30 4667 N 455.387 3.42026 4.46066 0
M  V30 4668 H 447.538 1.93447 0.877035 0
M  V30 4669 H 449.801 0.835712 0.447536 0
M  V30 4670 H 449.507 2.77699 2.15815 0
M  V30 4671 H 449.381 1.57292 3.4284 0
M  V30 4672 H 451.768 0.767602 2.84942 0
M  V30 4673 H 451.849 2.00557 1.58779 0
M  V30 4674 H 451.493 3.80616 3.36295 0
M  V30 4675 H 451.423 2.53916 4.61339 0
M  V30 4676 H 453.914 2.16531 3.09714 0
M  V30 4677 H 454.227 4.92596 5.95457 0
M  V30 4678 H 452.572 4.4247 5.35953 0
M  V30 4679 H 455.763 2.75075 3.78749 0
M  V30 4680 H 455.936 4.00946 5.09064 0
M  V30 4681 N 449.342 -1.36122 0.79427 0
M  V30 4682 C 450.252 -2.33769 0.197296 0
M  V30 4683 C 451.268 -1.61276 -0.653153 0
M  V30 4684 O 452.444 -1.9323 -0.5678 0
M  V30 4685 C 449.509 -3.40474 -0.654098 0
M  V30 4686 C 448.57 -4.28759 0.215411 0
M  V30 4687 C 447.803 -5.30368 -0.595443 0
M  V30 4688 O 448.026 -5.40211 -1.83107 0
M  V30 4689 O 446.96 -6.019 0.00721351 0
M  V30 4690 H 450.786 -2.86597 1.00478 0
M  V30 4691 H 448.371 -1.38676 0.555818 0
M  V30 4692 H 450.253 -4.05703 -1.13944 0
M  V30 4693 H 448.928 -2.89937 -1.43938 0
M  V30 4694 H 447.835 -3.66554 0.747615 0
M  V30 4695 H 449.168 -4.82661 0.964332 0
M  V30 4696 N 450.82 -0.546701 -1.47814 0
M  V30 4697 C 452.069 -0.0166497 -2.01693 0
M  V30 4698 C 452.382 1.33721 -1.42752 0
M  V30 4699 O 453.588 1.95658 -1.8823 0
M  V30 4700 C 452.044 0.0206769 -3.59894 0
M  V30 4701 C 451.652 -1.3293 -4.27824 0
M  V30 4702 C 453.396 0.498674 -4.21561 0
M  V30 4703 C 451.303 -1.25165 -5.78003 0
M  V30 4704 H 450.233 -0.0024541 -0.753996 0
M  V30 4705 H 452.884 -0.692984 -1.69912 0
M  V30 4706 H 451.266 0.76244 -3.88591 0
M  V30 4707 H 452.44 -2.08795 -4.10781 0
M  V30 4708 H 450.755 -1.74438 -3.78101 0
M  V30 4709 H 453.352 0.575 -5.31599 0
M  V30 4710 H 453.695 1.5083 -3.88016 0
M  V30 4711 H 454.228 -0.18791 -3.97356 0
M  V30 4712 H 450.967 -2.23695 -6.1615 0
M  V30 4713 H 450.487 -0.53464 -5.97412 0
M  V30 4714 H 452.166 -0.949299 -6.39998 0
M  V30 4715 N 452.299 1.55045 -0.282633 0
M  V30 4716 C 453.576 1.9179 0.384166 0
M  V30 4717 C 453.956 1.20778 1.73136 0
M  V30 4718 O 453.304 0.33719 2.25998 0
M  V30 4719 C 453.514 3.45149 0.517014 0
M  V30 4720 C 454.862 4.17064 0.796427 0
M  V30 4721 O 455.886 3.51084 0.601535 0
M  V30 4722 O 454.745 5.33837 1.16962 0
M  V30 4723 H 451.839 0.799483 0.211558 0
M  V30 4724 H 454.385 1.66474 -0.32934 0
M  V30 4725 H 453.157 3.88922 -0.430772 0
M  V30 4726 H 452.78 3.76443 1.2797 0
M  V30 4727 N 453.777 0.010035 1.57597 0
M  V30 4728 C 454.74 -0.963029 2.07986 0
M  V30 4729 C 455.74 -1.26619 0.991173 0
M  V30 4730 O 456.93 -1.2097 1.25347 0
M  V30 4731 C 454.062 -2.2851 2.52974 0
M  V30 4732 H 455.255 -0.526971 2.95234 0
M  V30 4733 H 452.808 -0.237639 1.54483 0
M  V30 4734 H 453.543 -2.76784 1.69 0
M  V30 4735 H 453.328 -2.07824 3.32493 0
M  V30 4736 H 454.818 -2.98294 2.9225 0
M  V30 4737 N 455.255 -1.55392 -0.262866 0
M  V30 4738 C 456.185 -1.91978 -1.32917 0
M  V30 4739 C 457.166 -0.7828 -1.51017 0
M  V30 4740 O 458.351 -1.04178 -1.63892 0
M  V30 4741 C 455.481 -2.20055 -2.68687 0
M  V30 4742 C 454.435 -3.35854 -2.65304 0
M  V30 4743 C 453.761 -3.49435 -4.04721 0
M  V30 4744 C 455.061 -4.71977 -2.23685 0
M  V30 4745 H 456.755 -2.81292 -1.02544 0
M  V30 4746 H 454.301 -1.3534 -0.491846 0
M  V30 4747 H 456.254 -2.44237 -3.43404 0
M  V30 4748 H 454.978 -1.27551 -3.00663 0
M  V30 4749 H 453.637 -3.11655 -1.93045 0
M  V30 4750 H 453.285 -2.54379 -4.33936 0
M  V30 4751 H 452.985 -4.27297 -4.0335 0
M  V30 4752 H 454.509 -3.7592 -4.81161 0
M  V30 4753 H 455.923 -4.95637 -2.88127 0
M  V30 4754 H 454.32 -5.52828 -2.33456 0
M  V30 4755 H 455.39 -4.70115 -1.18827 0
M  V30 4756 N 456.733 0.527833 -1.48498 0
M  V30 4757 C 457.696 1.61439 -1.62696 0
M  V30 4758 C 458.696 1.52824 -0.500136 0
M  V30 4759 O 459.886 1.56456 -0.765976 0
M  V30 4760 C 457.018 3.01063 -1.59918 0
M  V30 4761 H 458.211 1.50189 -2.59583 0
M  V30 4762 H 455.764 0.750055 -1.37127 0
M  V30 4763 H 456.499 3.17818 -0.645163 0
M  V30 4764 H 456.284 3.08725 -2.41726 0
M  V30 4765 H 457.774 3.80057 -1.73051 0
M  V30 4766 N 458.211 1.37122 0.776871 0
M  V30 4767 C 459.457 1.32243 1.53752 0
M  V30 4768 C 459.79 -0.0944745 1.9397 0
M  V30 4769 O 459.065 -1.05068 1.6368 0
M  V30 4770 C 459.348 2.25681 2.80607 0
M  V30 4771 C 459.201 3.76127 2.46676 0
M  V30 4772 C 460.52 2.17657 3.82509 0
M  V30 4773 H 457.639 0.481704 0.557791 0
M  V30 4774 H 460.281 1.6778 0.891612 0
M  V30 4775 H 458.431 1.95505 3.35723 0
M  V30 4776 H 460.103 4.16877 1.97513 0
M  V30 4777 H 458.346 3.94946 1.79443 0
M  V30 4778 H 459.017 4.36933 3.37333 0
M  V30 4779 H 461.493 2.44245 3.36873 0
M  V30 4780 H 460.369 2.85185 4.69 0
M  V30 4781 H 460.63 1.16785 4.26396 0
M  V30 4782 N 459.689 -1.00246 1.21608 0
M  V30 4783 C 460.652 -2.07233 0.979133 0
M  V30 4784 C 461.652 -1.6072 -0.0508219 0
M  V30 4785 O 462.842 -1.73196 0.186712 0
M  V30 4786 C 459.974 -3.37546 0.477016 0
M  V30 4787 H 461.167 -2.29687 1.92831 0
M  V30 4788 H 458.72 -1.17261 1.03342 0
M  V30 4789 H 459.455 -3.20773 -0.476966 0
M  V30 4790 H 459.24 -3.72638 1.21997 0
M  V30 4791 H 460.73 -4.16285 0.331181 0
M  V30 4792 N 461.167 -1.02423 -1.1978 0
M  V30 4793 C 462.397 -0.736387 -1.93031 0
M  V30 4794 C 462.805 0.708023 -1.75453 0
M  V30 4795 O 462.148 1.4927 -1.07071 0
M  V30 4796 C 462.21 -1.00194 -3.45255 0
M  V30 4797 C 461.874 -2.43698 -3.86601 0
M  V30 4798 C 462.871 -3.41814 -3.91738 0
M  V30 4799 C 460.556 -2.77975 -4.18372 0
M  V30 4800 C 462.55 -4.72265 -4.28071 0
M  V30 4801 C 460.237 -4.08636 -4.54378 0
M  V30 4802 C 461.235 -5.05592 -4.59201 0
M  V30 4803 O 460.923 -6.33914 -4.94376 0
M  V30 4804 H 460.655 -0.269116 -0.620123 0
M  V30 4805 H 463.209 -1.37043 -1.52998 0
M  V30 4806 H 461.439 -0.310747 -3.85449 0
M  V30 4807 H 463.128 -0.704488 -3.9974 0
M  V30 4808 H 463.894 -3.16671 -3.67348 0
M  V30 4809 H 459.773 -2.0319 -4.13805 0
M  V30 4810 H 463.317 -5.4794 -4.3175 0
M  V30 4811 H 459.214 -4.33556 -4.78226 0
M  V30 4812 H 459.982 -6.38317 -5.12341 0
M  V30 4813 N 462.645 1.35699 -0.801477 0
M  V30 4814 C 463.893 1.9852 -0.37871 0
M  V30 4815 C 464.214 1.63907 1.05638 0
M  V30 4816 O 463.484 0.919013 1.73006 0
M  V30 4817 H 462.064 0.734322 -0.137042 0
M  V30 4818 H 464.726 1.65697 -1.02619 0
M  V30 4819 H 463.822 3.08382 -0.480284 0
M  V30 4820 N 464.123 0.554532 1.47522 0
M  V30 4821 C 465.369 0.0295227 2.02779 0
M  V30 4822 C 465.702 -1.31582 1.42828 0
M  V30 4823 O 464.977 -1.85561 0.582872 0
M  V30 4824 C 465.26 -0.0664057 3.60039 0
M  V30 4825 C 465.113 1.30585 4.30427 0
M  V30 4826 C 466.432 -0.781162 4.33112 0
M  V30 4827 H 463.551 0.0122027 0.736899 0
M  V30 4828 H 466.193 0.716305 1.7598 0
M  V30 4829 H 464.343 -0.651307 3.83002 0
M  V30 4830 H 466.015 1.93374 4.18813 0
M  V30 4831 H 464.258 1.88125 3.90886 0
M  V30 4832 H 464.929 1.19147 5.38988 0
M  V30 4833 H 467.405 -0.284565 4.15126 0
M  V30 4834 H 466.281 -0.817237 5.42782 0
M  V30 4835 H 466.542 -1.83672 4.0214 0
M  V30 4836 N 465.601 -1.54893 0.290851 0
M  V30 4837 C 466.564 -2.21824 -0.576784 0
M  V30 4838 C 467.564 -1.20104 -1.06919 0
M  V30 4839 O 468.754 -1.44906 -0.966843 0
M  V30 4840 C 465.886 -2.89662 -1.79747 0
M  V30 4841 H 467.079 -2.99899 0.00784051 0
M  V30 4842 H 464.632 -1.56245 0.0415934 0
M  V30 4843 H 465.367 -2.15639 -2.42219 0
M  V30 4844 H 465.152 -3.64219 -1.45214 0
M  V30 4845 H 466.642 -3.4075 -2.4141 0
M  V30 4846 N 467.08 -0.0183926 -1.57589 0
M  V30 4847 C 468.013 1.00148 -2.0505 0
M  V30 4848 C 468.991 1.32387 -0.944058 0
M  V30 4849 O 470.175 1.44237 -1.21358 0
M  V30 4850 C 467.302 2.32435 -2.46357 0
M  V30 4851 C 466.348 2.15731 -3.67916 0
M  V30 4852 S 467.181 1.46613 -5.15039 0
M  V30 4853 C 468.337 2.80293 -5.59631 0
M  V30 4854 H 468.57 0.597429 -2.91235 0
M  V30 4855 H 466.103 0.193002 -1.53189 0
M  V30 4856 H 468.061 3.0849 -2.70822 0
M  V30 4857 H 466.722 2.69975 -1.60537 0
M  V30 4858 H 465.915 3.13502 -3.9463 0
M  V30 4859 H 465.517 1.4782 -3.43548 0
M  V30 4860 H 467.809 3.76557 -5.63215 0
M  V30 4861 H 468.752 2.58256 -6.59325 0
M  V30 4862 H 469.16 2.85047 -4.87246 0
M  V30 4863 N 468.558 1.5553 0.254621 0
M  V30 4864 C 469.506 1.9048 1.33492 0
M  V30 4865 C 470.5 0.78304 1.50216 0
M  V30 4866 O 471.706 0.967582 1.51782 0
M  V30 4867 H 468.081 0.604846 0.44684 0
M  V30 4868 H 470.052 2.80688 1.01275 0
M  V30 4869 C 468.801 2.20928 2.68489 0
M  V30 4870 H 468.124 3.06742 2.56417 0
M  V30 4871 H 469.564 2.49291 3.42972 0
M  V30 4872 C 468.023 1.023 3.20993 0
M  V30 4873 O 468.553 0.267027 4.00811 0
M  V30 4874 N 466.759 0.815714 2.78917 0
M  V30 4875 H 466.306 1.43217 2.14119 0
M  V30 4876 H 466.264 0.0236532 3.14391 0
M  V30 4877 N 470.036 -0.519951 1.48776 0
M  V30 4878 C 470.983 -1.62352 1.64044 0
M  V30 4879 C 471.953 -1.58945 0.482251 0
M  V30 4880 O 473.138 -1.77219 0.706971 0
M  V30 4881 C 470.278 -3.00579 1.69547 0
M  V30 4882 C 469.391 -3.14145 2.96541 0
M  V30 4883 C 468.526 -4.42991 2.93142 0
M  V30 4884 C 467.565 -4.50122 4.14797 0
M  V30 4885 N 466.702 -5.7037 4.09418 0
M  V30 4886 H 471.542 -1.48643 2.58281 0
M  V30 4887 H 469.079 -0.723516 1.28077 0
M  V30 4888 H 471.037 -3.80671 1.70719 0
M  V30 4889 H 469.667 -3.13036 0.787918 0
M  V30 4890 H 468.719 -2.27239 3.05068 0
M  V30 4891 H 470.031 -3.15275 3.86527 0
M  V30 4892 H 469.185 -5.31385 2.92772 0
M  V30 4893 H 467.924 -4.44398 2.00902 0
M  V30 4894 H 466.929 -3.60133 4.15433 0
M  V30 4895 H 468.154 -4.50445 5.08208 0
M  V30 4896 H 466.1 -5.72655 3.20004 0
M  V30 4897 H 466.017 -5.73036 4.93119 0
M  V30 4898 H 467.285 -6.61023 4.13121 0
M  V30 4899 N 471.514 -1.37532 -0.769588 0
M  V30 4900 C 472.444 -1.36172 -1.89682 0
M  V30 4901 C 473.425 -0.23001 -1.68538 0
M  V30 4902 O 474.61 -0.43069 -1.89364 0
M  V30 4903 C 471.74 -1.1701 -3.26995 0
M  V30 4904 C 470.694 -2.27216 -3.62708 0
M  V30 4905 C 470.02 -1.93174 -4.98586 0
M  V30 4906 C 471.32 -3.6941 -3.69234 0
M  V30 4907 H 473.014 -2.30499 -1.91078 0
M  V30 4908 H 470.56 -1.10953 -0.917902 0
M  V30 4909 H 472.513 -1.14688 -4.05493 0
M  V30 4910 H 471.237 -0.191395 -3.26039 0
M  V30 4911 H 469.896 -2.28697 -2.86519 0
M  V30 4912 H 469.544 -0.938281 -4.94171 0
M  V30 4913 H 469.244 -2.66973 -5.23449 0
M  V30 4914 H 470.768 -1.92443 -5.79481 0
M  V30 4915 H 472.182 -3.70047 -4.37879 0
M  V30 4916 H 470.579 -4.4228 -4.05597 0
M  V30 4917 H 471.649 -4.0288 -2.69844 0
M  V30 4918 N 472.992 0.995999 -1.22138 0
M  V30 4919 C 474.22 1.77066 -1.07029 0
M  V30 4920 C 474.635 1.8495 0.379357 0
M  V30 4921 O 473.992 1.3174 1.26297 0
M  V30 4922 C 474.043 3.20533 -1.67155 0
M  V30 4923 O 473.764 3.13082 -3.06449 0
M  V30 4924 C 475.265 4.14461 -1.5728 0
M  V30 4925 H 472.485 0.556179 -0.375374 0
M  V30 4926 H 475.029 1.25238 -1.61666 0
M  V30 4927 H 473.184 3.6944 -1.16589 0
M  V30 4928 H 473.598 4.03283 -3.35355 0
M  V30 4929 H 475.072 5.1289 -2.04078 0
M  V30 4930 H 475.549 4.36005 -0.528795 0
M  V30 4931 H 476.155 3.71449 -2.07136 0
M  V30 4932 N 474.47 1.03057 1.19235 0
M  V30 4933 C 475.4 0.633497 2.24742 0
M  V30 4934 C 476.381 -0.358335 1.66283 0
M  V30 4935 O 477.566 -0.240676 1.92703 0
M  V30 4936 C 474.696 -0.0147648 3.47297 0
M  V30 4937 C 473.65 0.899527 4.18441 0
M  V30 4938 C 472.976 0.116281 5.34574 0
M  V30 4939 C 474.276 2.21404 4.73051 0
M  V30 4940 H 475.97 1.5155 2.58211 0
M  V30 4941 H 473.516 0.73014 1.24117 0
M  V30 4942 H 475.469 -0.304202 4.20301 0
M  V30 4943 H 474.193 -0.931577 3.13032 0
M  V30 4944 H 472.852 1.17319 3.47321 0
M  V30 4945 H 472.5 -0.802619 4.96555 0
M  V30 4946 H 472.2 0.725293 5.83107 0
M  V30 4947 H 473.724 -0.166376 6.10373 0
M  V30 4948 H 475.138 1.98601 5.37802 0
M  V30 4949 H 473.535 2.77512 5.32078 0
M  V30 4950 H 474.605 2.86752 3.91026 0
M  V30 4951 N 475.948 -1.35272 0.808662 0
M  V30 4952 C 477.359 -1.81179 0.450688 0
M  V30 4953 C 477.71 -1.67143 -1.02751 0
M  V30 4954 O 476.835 -1.20325 -1.79864 0
M  V30 4955 C 477.43 -3.28943 0.811275 0
M  V30 4956 C 475.989 -3.72985 0.505871 0
M  V30 4957 C 475.136 -2.57229 1.03578 0
M  V30 4958 H 478.087 -1.2322 1.00012 0
M  V30 4959 H 478.108 -3.80342 0.109588 0
M  V30 4960 H 477.62 -3.39127 1.88718 0
M  V30 4961 H 475.721 -3.68349 -0.561209 0
M  V30 4962 H 475.834 -4.67677 1.03995 0
M  V30 4963 H 474.198 -2.50548 0.458005 0
M  V30 4964 H 474.981 -2.7019 2.11784 0
M  V30 4965 N 477.426 -0.562348 -1.47226 0
M  V30 4966 C 478.675 -0.038041 -2.01664 0
M  V30 4967 C 478.988 1.32199 -1.44162 0
M  V30 4968 O 480.194 1.9365 -1.90294 0
M  V30 4969 C 478.65 -0.0174958 -3.59896 0
M  V30 4970 C 478.258 -1.3746 -4.2639 0
M  V30 4971 C 480.002 0.453934 -4.22066 0
M  V30 4972 C 477.909 -1.31289 -5.76643 0
M  V30 4973 H 476.839 -0.0104511 -0.753928 0
M  V30 4974 H 479.49 -0.710966 -1.69167 0
M  V30 4975 H 477.872 0.721182 -3.89378 0
M  V30 4976 H 479.046 -2.1314 -4.08544 0
M  V30 4977 H 477.361 -1.78438 -3.7623 0
M  V30 4978 H 479.958 0.518584 -5.32179 0
M  V30 4979 H 480.301 1.46706 -3.89594 0
M  V30 4980 H 480.834 -0.230044 -3.97134 0
M  V30 4981 H 477.573 -2.30217 -6.13743 0
M  V30 4982 H 477.093 -0.597973 -5.96812 0
M  V30 4983 H 478.772 -1.01713 -6.38955 0
M  V30 4984 N 478.904 1.54736 -0.299062 0
M  V30 4985 C 480.315 1.8569 0.193971 0
M  V30 4986 C 480.666 1.22101 1.53577 0
M  V30 4987 O 479.791 0.51799 2.10109 0
M  V30 4988 C 480.386 3.36895 0.358733 0
M  V30 4989 C 478.945 3.67887 0.795986 0
M  V30 4990 C 478.092 2.77131 -0.096807 0
M  V30 4991 H 481.043 1.49934 -0.520134 0
M  V30 4992 H 481.064 3.61294 1.19361 0
M  V30 4993 H 480.576 3.83148 -0.617998 0
M  V30 4994 H 478.677 3.27151 1.78334 0
M  V30 4995 H 478.79 4.75114 0.616718 0
M  V30 4996 H 477.154 2.51153 0.423581 0
M  V30 4997 H 477.937 3.26204 -1.06986 0
M  V30 4998 N 480.382 0.0267497 1.57577 0
M  V30 4999 C 481.607 -0.666227 1.96408 0
M  V30 5000 C 482.032 -1.65004 0.903071 0
M  V30 5001 O 481.39 -1.80787 -0.136263 0
M  V30 5002 C 481.438 -1.35101 3.34335 0
M  V30 5003 O 480.542 -2.46623 3.30531 0
M  V30 5004 H 479.883 -0.175206 0.640468 0
M  V30 5005 H 482.413 0.0878977 2.04411 0
M  V30 5006 H 482.423 -1.70834 3.70513 0
M  V30 5007 H 481.098 -0.629844 4.11103 0
M  V30 5008 H 479.675 -2.13019 3.06068 0
M  V30 5009 N 481.861 -1.55662 -0.24637 0
M  V30 5010 C 483.089 -1.81575 -0.991876 0
M  V30 5011 C 483.504 -0.602545 -1.78927 0
M  V30 5012 O 482.861 0.428795 -1.77391 0
M  V30 5013 C 482.912 -3.05711 -1.92933 0
M  V30 5014 O 482.633 -4.22348 -1.1642 0
M  V30 5015 C 484.134 -3.44428 -2.79078 0
M  V30 5016 H 481.354 -0.604209 -0.291844 0
M  V30 5017 H 483.898 -2.02722 -0.269095 0
M  V30 5018 H 482.053 -2.86612 -2.60638 0
M  V30 5019 H 482.467 -4.92706 -1.79835 0
M  V30 5020 H 483.941 -4.34388 -3.40603 0
M  V30 5021 H 484.418 -2.65037 -3.50217 0
M  V30 5022 H 485.024 -3.65879 -2.16824 0
M  V30 5023 N 483.339 0.512053 -1.4905 0
M  V30 5024 C 484.579 1.27715 -1.59588 0
M  V30 5025 C 484.943 1.90071 -0.271502 0
M  V30 5026 O 486.144 2.67616 -0.251987 0
M  V30 5027 C 484.415 2.32399 -2.71524 0
M  V30 5028 S 485.974 3.18396 -3.01943 0
M  V30 5029 H 482.792 0.43419 -0.563027 0
M  V30 5030 H 485.394 0.581315 -1.86657 0
M  V30 5031 H 484.098 1.85101 -3.66287 0
M  V30 5032 H 483.629 3.06667 -2.46412 0
M  V30 5033 H 485.644 4.32842 -2.42616 0
M  V30 5034 N 484.817 1.37938 0.762283 0
M  V30 5035 C 486.228 1.30094 1.33912 0
M  V30 5036 C 486.579 -0.0472026 1.96143 0
M  V30 5037 O 485.704 -0.94917 1.94473 0
M  V30 5038 C 486.299 2.35592 2.43478 0
M  V30 5039 C 484.858 2.31353 2.96905 0
M  V30 5040 C 484.005 2.18919 1.70205 0
M  V30 5041 H 486.956 1.48423 0.561816 0
M  V30 5042 H 486.977 2.00806 3.23199 0
M  V30 5043 H 486.489 3.33701 1.98155 0
M  V30 5044 H 484.59 1.36799 3.46579 0
M  V30 5045 H 484.703 3.25147 3.51875 0
M  V30 5046 H 483.067 1.65624 1.93496 0
M  V30 5047 H 483.85 3.18956 1.26973 0
M  V30 5048 N 486.295 -0.989507 1.22664 0
M  V30 5049 C 487.205 -2.11449 1.01619 0
M  V30 5050 C 488.221 -1.73962 -0.036545 0
M  V30 5051 O 489.397 -2.00788 0.156924 0
M  V30 5052 C 486.462 -3.41465 0.600204 0
M  V30 5053 C 485.523 -3.93033 1.72695 0
M  V30 5054 C 484.756 -5.16844 1.33071 0
M  V30 5055 O 484.979 -5.7001 0.210975 0
M  V30 5056 O 483.913 -5.6225 2.14845 0
M  V30 5057 H 487.739 -2.32088 1.9588 0
M  V30 5058 H 485.324 -1.09823 1.01289 0
M  V30 5059 H 487.206 -4.19695 0.37873 0
M  V30 5060 H 485.881 -3.22178 -0.313511 0
M  V30 5061 H 484.788 -3.15961 2.00298 0
M  V30 5062 H 486.121 -4.16758 2.61865 0
M  V30 5063 N 487.773 -1.03688 -1.18687 0
M  V30 5064 C 489.184 -0.766488 -1.70241 0
M  V30 5065 C 489.535 0.713052 -1.82784 0
M  V30 5066 O 488.66 1.55529 -1.50465 0
M  V30 5067 C 489.255 -1.38475 -3.09209 0
M  V30 5068 C 487.814 -1.16276 -3.5799 0
M  V30 5069 C 486.961 -1.4778 -2.34641 0
M  V30 5070 H 489.912 -1.20378 -1.03415 0
M  V30 5071 H 489.933 -0.785939 -3.72295 0
M  V30 5072 H 489.445 -2.46157 -3.00048 0
M  V30 5073 H 487.546 -0.104508 -3.72453 0
M  V30 5074 H 487.659 -1.8571 -4.41643 0
M  V30 5075 H 486.023 -0.897366 -2.38368 0
M  V30 5076 H 486.806 -2.56562 -2.28102 0
M  V30 5077 N 489.251 1.34841 -0.815825 0
M  V30 5078 C 490.498 1.98499 -0.400535 0
M  V30 5079 C 490.826 1.64699 1.03463 0
M  V30 5080 O 490.081 0.907006 1.73412 0
M  V30 5081 C 490.38 3.53273 -0.541541 0
M  V30 5082 C 490.046 4.06966 -1.94138 0
M  V30 5083 C 488.708 4.21341 -2.32433 0
M  V30 5084 C 491.06 4.35933 -2.85677 0
M  V30 5085 C 488.388 4.62007 -3.61617 0
M  V30 5086 C 490.74 4.78042 -4.14317 0
M  V30 5087 C 489.404 4.90622 -4.52599 0
M  V30 5088 H 488.674 0.72636 -0.146566 0
M  V30 5089 H 491.321 1.60902 -1.0384 0
M  V30 5090 H 489.626 3.91387 0.179741 0
M  V30 5091 H 491.323 4.00497 -0.20085 0
M  V30 5092 H 487.913 3.96235 -1.63388 0
M  V30 5093 H 492.097 4.24372 -2.57337 0
M  V30 5094 H 487.353 4.69937 -3.91113 0
M  V30 5095 H 491.527 4.99415 -4.85342 0
M  V30 5096 H 489.154 5.2189 -5.52752 0
M  V30 5097 N 490.729 0.570148 1.46925 0
M  V30 5098 C 491.692 -0.159933 2.28641 0
M  V30 5099 C 492.692 -0.830638 1.37685 0
M  V30 5100 O 493.882 -0.684516 1.60187 0
M  V30 5101 C 491.014 -1.2354 3.17727 0
M  V30 5102 H 492.207 0.558035 2.94662 0
M  V30 5103 H 489.76 0.327603 1.52828 0
M  V30 5104 H 490.495 -1.98535 2.56426 0
M  V30 5105 H 490.28 -0.759125 3.84681 0
M  V30 5106 H 491.77 -1.74782 3.79264 0
M  V30 5107 N 492.207 -1.54576 0.307264 0
M  V30 5108 C 493.623 -1.59534 -0.0459251 0
M  V30 5109 C 493.823 -1.32414 -1.51884 0
M  V30 5110 O 492.879 -1.1006 -2.27251 0
M  V30 5111 C 494.192 -2.98566 0.357649 0
M  V30 5112 C 495.74 -3.11491 0.306937 0
M  V30 5113 C 496.215 -4.52842 0.685427 0
M  V30 5114 N 497.706 -4.58782 0.638203 0
M  V30 5115 C 498.441 -5.66238 0.903458 0
M  V30 5116 N 497.937 -6.81703 1.23501 0
M  V30 5117 N 499.73 -5.55937 0.830102 0
M  V30 5118 H 491.881 -1.70464 1.26712 0
M  V30 5119 H 494.144 -0.79647 0.514139 0
M  V30 5120 H 493.85 -3.23356 1.38325 0
M  V30 5121 H 493.724 -3.76117 -0.285565 0
M  V30 5122 H 496.111 -2.86446 -0.709424 0
M  V30 5123 H 496.192 -2.36081 0.984861 0
M  V30 5124 H 495.836 -4.78618 1.69963 0
M  V30 5125 H 495.766 -5.26598 -0.0146346 0
M  V30 5126 H 498.257 -3.75849 0.393138 0
M  V30 5127 H 498.57 -7.59582 1.42322 0
M  V30 5128 H 496.915 -6.8324 1.27311 0
M  V30 5129 H 500.106 -4.64608 0.570693 0
M  V30 5130 H 500.279 -6.39597 1.04019 0
M  V30 5131 N 493.685 -0.035106 -1.57561 0
M  V30 5132 C 494.615 0.942993 -2.13612 0
M  V30 5133 C 495.596 1.33531 -1.05373 0
M  V30 5134 O 496.781 1.41287 -1.33235 0
M  V30 5135 C 493.911 2.22332 -2.66807 0
M  V30 5136 C 492.865 1.97156 -3.79886 0
M  V30 5137 C 492.191 3.31506 -4.19533 0
M  V30 5138 C 493.491 1.30596 -5.05709 0
M  V30 5139 H 495.185 0.476179 -2.95589 0
M  V30 5140 H 492.731 0.227602 -1.4219 0
M  V30 5141 H 494.684 2.91142 -3.04654 0
M  V30 5142 H 493.408 2.7119 -1.81999 0
M  V30 5143 H 492.067 1.30763 -3.42486 0
M  V30 5144 H 491.715 3.78134 -3.31698 0
M  V30 5145 H 491.415 3.15465 -4.95738 0
M  V30 5146 H 492.939 4.01574 -4.59968 0
M  V30 5147 H 494.353 1.89416 -5.41105 0
M  V30 5148 H 492.75 1.24934 -5.86951 0
M  V30 5149 H 493.82 0.279742 -4.84092 0
M  V30 5150 N 495.163 1.55791 0.238111 0
M  V30 5151 C 496.093 1.94068 1.29846 0
M  V30 5152 C 497.074 0.806726 1.49753 0
M  V30 5153 O 498.259 1.06772 1.62214 0
M  V30 5154 C 495.389 2.24302 2.65153 0
M  V30 5155 C 494.343 3.40032 2.59927 0
M  V30 5156 C 493.669 3.55829 3.99111 0
M  V30 5157 C 494.969 4.75476 2.16148 0
M  V30 5158 H 496.663 2.82887 0.980563 0
M  V30 5159 H 494.209 1.36105 0.470253 0
M  V30 5160 H 496.162 2.4967 3.39475 0
M  V30 5161 H 494.886 1.32318 2.98596 0
M  V30 5162 H 493.545 3.14687 1.88063 0
M  V30 5163 H 493.193 2.6125 4.29834 0
M  V30 5164 H 492.893 4.3366 3.96501 0
M  V30 5165 H 494.417 3.83528 4.7512 0
M  V30 5166 H 495.831 5.00158 2.80205 0
M  V30 5167 H 494.228 5.56472 2.24631 0
M  V30 5168 H 495.298 4.71946 1.11333 0
M  V30 5169 N 496.642 -0.504142 1.49319 0
M  V30 5170 C 497.552 -1.63248 1.68486 0
M  V30 5171 C 498.568 -1.64488 0.567432 0
M  V30 5172 O 499.744 -1.82966 0.841749 0
M  V30 5173 C 496.809 -2.99627 1.74426 0
M  V30 5174 C 495.87 -3.09039 2.97982 0
M  V30 5175 C 495.103 -4.38913 3.0363 0
M  V30 5176 O 495.326 -5.27528 2.16958 0
M  V30 5177 O 494.26 -4.53231 3.96062 0
M  V30 5178 H 498.086 -1.50008 2.64067 0
M  V30 5179 H 495.671 -0.680086 1.33023 0
M  V30 5180 H 497.553 -3.80689 1.80705 0
M  V30 5181 H 496.228 -3.13136 0.820233 0
M  V30 5182 H 495.135 -2.27177 2.97223 0
M  V30 5183 H 496.468 -3.00456 3.89855 0
M  V30 5184 N 498.12 -1.38341 -0.754957 0
M  V30 5185 C 499.03 -1.3769 -1.89944 0
M  V30 5186 C 500.046 -0.274194 -1.71826 0
M  V30 5187 O 501.222 -0.512391 -1.94773 0
M  V30 5188 C 498.287 -1.19938 -3.25293 0
M  V30 5189 C 497.348 -2.40001 -3.55946 0
M  V30 5190 C 496.581 -2.23087 -4.84838 0
M  V30 5191 O 496.804 -1.22386 -5.57116 0
M  V30 5192 O 495.738 -3.11646 -5.14937 0
M  V30 5193 H 499.564 -2.3412 -1.93446 0
M  V30 5194 H 497.149 -1.19246 -0.900044 0
M  V30 5195 H 499.031 -1.12093 -4.06218 0
M  V30 5196 H 497.706 -0.265919 -3.22606 0
M  V30 5197 H 496.613 -2.53421 -2.75188 0
M  V30 5198 H 497.946 -3.31973 -3.63394 0
M  V30 5199 N 499.598 0.982988 -1.23187 0
M  V30 5200 C 500.838 1.73903 -1.07412 0
M  V30 5201 C 501.202 1.88146 0.382764 0
M  V30 5202 O 502.403 2.6053 0.661638 0
M  V30 5203 C 500.674 3.10105 -1.77678 0
M  V30 5204 S 502.233 4.01323 -1.77441 0
M  V30 5205 H 499.051 0.598093 -0.384456 0
M  V30 5206 H 501.653 1.17456 -1.56283 0
M  V30 5207 H 500.357 2.97388 -2.82822 0
M  V30 5208 H 499.888 3.71622 -1.29077 0
M  V30 5209 H 501.903 4.89189 -0.831162 0
M  V30 5210 N 501.076 1.04316 1.18135 0
M  V30 5211 C 502.322 0.758899 1.88712 0
M  V30 5212 C 502.677 -0.705863 1.78984 0
M  V30 5213 O 501.97 -1.50874 1.18101 0
M  V30 5214 C 502.164 1.16271 3.37958 0
M  V30 5215 C 501.993 2.66518 3.62213 0
M  V30 5216 C 500.763 3.33702 3.79436 0
M  V30 5217 C 502.961 3.64739 3.62588 0
M  V30 5218 N 500.943 4.72904 3.91452 0
M  V30 5219 C 502.314 4.89627 3.80348 0
M  V30 5220 C 504.369 3.58333 3.4569 0
M  V30 5221 C 503.072 6.08879 3.8296 0
M  V30 5222 C 505.098 4.77016 3.49586 0
M  V30 5223 C 504.46 6.00724 3.67845 0
M  V30 5224 H 500.559 0.329795 0.709055 0
M  V30 5225 H 503.143 1.33334 1.4188 0
M  V30 5226 H 501.314 0.616319 3.83479 0
M  V30 5227 H 503.046 0.829205 3.96114 0
M  V30 5228 H 499.801 2.84105 3.78921 0
M  V30 5229 H 500.225 5.45258 4.01277 0
M  V30 5230 H 504.867 2.63663 3.30517 0
M  V30 5231 H 502.585 7.03903 3.96921 0
M  V30 5232 H 506.171 4.73703 3.37782 0
M  V30 5233 H 505.051 6.91022 3.70753 0
M  V30 5234 N 502.554 -1.34406 0.822964 0
M  V30 5235 C 503.831 -1.92733 0.333641 0
M  V30 5236 C 504.211 -1.75107 -1.17901 0
M  V30 5237 O 503.559 -1.12983 -1.98613 0
M  V30 5238 C 503.769 -3.40557 0.763023 0
M  V30 5239 C 505.117 -4.17709 0.761879 0
M  V30 5240 O 506.141 -3.49141 0.705606 0
M  V30 5241 O 505 -5.40082 0.835109 0
M  V30 5242 H 502.094 -0.821964 0.0911249 0
M  V30 5243 H 504.64 -1.4338 0.907757 0
M  V30 5244 H 503.412 -3.47187 1.8049 0
M  V30 5245 H 503.035 -3.97259 0.164605 0
M  V30 5246 N 504.032 -0.577932 -1.46621 0
M  V30 5247 C 505.443 -0.150071 -1.86096 0
M  V30 5248 C 505.794 1.28563 -1.48209 0
M  V30 5249 O 504.919 1.97036 -0.894754 0
M  V30 5250 C 505.514 -0.265576 -3.37758 0
M  V30 5251 C 504.073 0.10738 -3.76247 0
M  V30 5252 C 503.22 -0.603711 -2.70649 0
M  V30 5253 H 506.171 -0.786438 -1.37844 0
M  V30 5254 H 506.192 0.510352 -3.77062 0
M  V30 5255 H 505.704 -1.3106 -3.65301 0
M  V30 5256 H 503.805 1.15272 -3.54321 0
M  V30 5257 H 503.918 -0.26561 -4.78363 0
M  V30 5258 H 502.282 -0.0444884 -2.54661 0
M  V30 5259 H 503.065 -1.65029 -3.01032 0
M  V30 5260 N 505.51 1.54411 -0.315457 0
M  V30 5261 C 506.787 1.92562 0.343398 0
M  V30 5262 C 507.167 1.24423 1.70535 0
M  V30 5263 O 506.515 0.385051 2.25232 0
M  V30 5264 C 506.725 3.46168 0.443687 0
M  V30 5265 C 508.073 4.18659 0.707783 0
M  V30 5266 O 509.097 3.52281 0.52693 0
M  V30 5267 O 507.956 5.36198 1.05612 0
M  V30 5268 H 505.05 0.80379 0.194552 0
M  V30 5269 H 507.596 1.65738 -0.364577 0
M  V30 5270 H 506.368 3.8792 -0.513172 0
M  V30 5271 H 505.991 3.79073 1.19956 0
M  V30 5272 N 506.988 0.0434614 1.5754 0
M  V30 5273 C 508.399 -0.493343 1.80064 0
M  V30 5274 C 508.75 -1.71388 0.955023 0
M  V30 5275 O 507.875 -2.15736 0.169434 0
M  V30 5276 C 508.47 -0.90179 3.26578 0
M  V30 5277 C 507.029 -1.38362 3.50047 0
M  V30 5278 C 506.176 -0.355129 2.75017 0
M  V30 5279 H 509.127 0.2694 1.56397 0
M  V30 5280 H 509.148 -1.76523 3.37075 0
M  V30 5281 H 508.66 -0.013271 3.88098 0
M  V30 5282 H 506.761 -2.29159 2.93798 0
M  V30 5283 H 506.874 -1.3811 4.58762 0
M  V30 5284 H 505.238 -0.826348 2.40922 0
M  V30 5285 H 506.021 0.525172 3.39259 0
M  V30 5286 N 508.466 -1.55915 -0.229846 0
M  V30 5287 C 509.416 -1.8813 -1.28807 0
M  V30 5288 C 510.4 -0.743621 -1.42685 0
M  V30 5289 O 511.592 -1.00588 -1.4564 0
M  V30 5290 C 508.721 -2.19431 -2.64017 0
M  V30 5291 C 507.807 -3.39569 -2.54074 0
M  V30 5292 N 508.198 -4.58404 -2.13774 0
M  V30 5293 C 506.496 -3.43019 -2.85051 0
M  V30 5294 C 507.197 -5.40557 -2.1488 0
M  V30 5295 N 506.173 -4.80054 -2.55047 0
M  V30 5296 H 509.975 -2.77527 -0.967261 0
M  V30 5297 H 507.489 -1.5637 -0.438433 0
M  V30 5298 H 509.486 -2.40681 -3.40409 0
M  V30 5299 H 508.146 -1.31341 -2.9695 0
M  V30 5300 H 509.157 -4.83716 -1.8504 0
M  V30 5301 H 505.834 -2.65249 -3.22411 0
M  V30 5302 H 507.224 -6.45666 -1.85918 0
M  V30 5303 N 509.944 0.496216 -1.49584 0
M  V30 5304 C 511.192 1.24756 -1.58998 0
M  V30 5305 C 511.513 1.92968 -0.280775 0
M  V30 5306 O 510.783 1.82959 0.700198 0
M  V30 5307 H 509.363 0.463471 -0.585836 0
M  V30 5308 H 512.025 0.574678 -1.86235 0
M  V30 5309 H 511.121 2.00895 -2.38847 0
M  V30 5310 N 511.423 1.38739 0.74761 0
M  V30 5311 C 512.839 1.20067 1.05148 0
M  V30 5312 C 513.039 0.0534835 2.01429 0
M  V30 5313 O 512.095 -0.59886 2.45296 0
M  V30 5314 C 513.408 2.52957 1.62584 0
M  V30 5315 C 514.956 2.59692 1.74726 0
M  V30 5316 C 515.431 3.92772 2.35573 0
M  V30 5317 N 516.922 3.94343 2.42997 0
M  V30 5318 C 517.657 4.9408 2.90985 0
M  V30 5319 N 517.153 6.04214 3.38965 0
M  V30 5320 N 518.946 4.81466 2.9008 0
M  V30 5321 H 511.097 2.12121 0.108808 0
M  V30 5322 H 513.36 0.941491 0.110899 0
M  V30 5323 H 513.066 3.37389 0.993051 0
M  V30 5324 H 512.94 2.71779 2.61565 0
M  V30 5325 H 515.327 1.75651 2.3713 0
M  V30 5326 H 515.408 2.44731 0.744326 0
M  V30 5327 H 515.052 4.77238 1.738 0
M  V30 5328 H 514.982 4.05046 3.36519 0
M  V30 5329 H 517.473 3.14799 2.0907 0
M  V30 5330 H 517.786 6.76241 3.74056 0
M  V30 5331 H 516.131 6.07825 3.37007 0
M  V30 5332 H 519.322 3.94535 2.51912 0
M  V30 5333 H 519.495 5.59344 3.27166 0
M  V30 5334 N 512.901 -0.976442 1.23707 0
M  V30 5335 C 514.312 -1.53284 1.06587 0
M  V30 5336 C 514.663 -1.92765 -0.365526 0
M  V30 5337 O 513.788 -1.7645 -1.25277 0
M  V30 5338 C 514.383 -2.78548 1.92864 0
M  V30 5339 C 512.942 -3.30574 1.79994 0
M  V30 5340 C 512.089 -2.03538 1.88328 0
M  V30 5341 H 515.04 -0.795692 1.37311 0
M  V30 5342 H 515.061 -3.5155 1.45577 0
M  V30 5343 H 514.573 -2.49782 2.97037 0
M  V30 5344 H 512.674 -3.64211 0.786202 0
M  V30 5345 H 512.787 -4.00065 2.636 0
M  V30 5346 H 511.151 -2.17853 1.31954 0
M  V30 5347 H 511.934 -1.77149 2.94063 0
M  V30 5348 N 514.379 -1.04941 -1.1758 0
M  V30 5349 C 515.656 -0.671918 -1.83697 0
M  V30 5350 C 516.036 0.847929 -1.93322 0
M  V30 5351 O 515.384 1.75287 -1.46583 0
M  V30 5352 C 515.594 -1.35797 -3.21497 0
M  V30 5353 C 516.942 -1.4944 -3.97433 0
M  V30 5354 O 517.966 -1.31678 -3.30967 0
M  V30 5355 O 516.825 -1.78463 -5.1654 0
M  V30 5356 H 513.919 -0.236212 -0.792548 0
M  V30 5357 H 516.465 -1.14884 -1.24899 0
M  V30 5358 H 515.237 -2.39498 -3.09446 0
M  V30 5359 H 514.86 -0.870236 -3.8796 0
M  V30 5360 N 515.857 1.33968 -0.830081 0
M  V30 5361 C 517.104 1.98063 -0.421566 0
M  V30 5362 C 517.432 1.65787 1.0171 0
M  V30 5363 O 516.687 0.925348 1.72441 0
M  V30 5364 C 516.986 3.52679 -0.57898 0
M  V30 5365 C 516.652 4.04884 -1.98443 0
M  V30 5366 C 515.314 4.18852 -2.36888 0
M  V30 5367 C 517.666 4.32879 -2.90285 0
M  V30 5368 C 514.994 4.58145 -3.66497 0
M  V30 5369 C 517.346 4.7362 -4.19364 0
M  V30 5370 C 516.01 4.85794 -4.57778 0
M  V30 5371 H 515.28 0.724765 -0.154262 0
M  V30 5372 H 517.927 1.59792 -1.05541 0
M  V30 5373 H 516.232 3.91556 0.138219 0
M  V30 5374 H 517.929 4.00261 -0.243317 0
M  V30 5375 H 514.519 3.9448 -1.67581 0
M  V30 5376 H 518.703 4.21619 -2.61823 0
M  V30 5377 H 513.959 4.65762 -3.96075 0
M  V30 5378 H 518.133 4.9424 -4.90612 0
M  V30 5379 H 515.76 5.15998 -5.58256 0
M  V30 5380 N 517.335 0.585699 1.46312 0
M  V30 5381 C 518.583 0.072278 2.01971 0
M  V30 5382 C 518.904 -1.29345 1.45928 0
M  V30 5383 O 518.174 -1.84973 0.645109 0
M  V30 5384 H 516.754 0.023729 0.746623 0
M  V30 5385 H 519.416 0.762155 1.7938 0
M  V30 5386 H 518.512 0.00552767 3.121 0
M  V30 5387 N 518.813 -1.54241 0.323641 0
M  V30 5388 C 520.038 -2.05452 -0.283605 0
M  V30 5389 C 520.463 -1.19823 -1.44997 0
M  V30 5390 O 519.821 -0.207358 -1.8011 0
M  V30 5391 C 519.869 -3.53823 -0.695795 0
M  V30 5392 O 518.973 -3.71134 -1.79815 0
M  V30 5393 H 518.314 -0.662024 -0.0511917 0
M  V30 5394 H 520.844 -1.99079 0.472073 0
M  V30 5395 H 520.854 -3.96094 -0.978434 0
M  V30 5396 H 519.529 -4.15602 0.157287 0
M  V30 5397 H 518.106 -3.40768 -1.51431 0
M  V30 5398 N 520.291 -0.0518155 -1.57515 0
M  V30 5399 C 521.54 0.621286 -1.91893 0
M  V30 5400 C 521.853 1.71966 -0.932052 0
M  V30 5401 O 523.059 2.45096 -1.16791 0
M  V30 5402 C 521.515 1.15641 -3.40816 0
M  V30 5403 C 521.123 0.0901146 -4.47909 0
M  V30 5404 C 522.867 1.80472 -3.84227 0
M  V30 5405 C 520.774 0.638154 -5.87947 0
M  V30 5406 H 519.704 0.235835 -0.716169 0
M  V30 5407 H 522.355 -0.120809 -1.83102 0
M  V30 5408 H 520.737 1.95084 -3.44613 0
M  V30 5409 H 521.911 -0.683525 -4.55702 0
M  V30 5410 H 520.226 -0.460774 -4.13843 0
M  V30 5411 H 522.823 2.22471 -4.86221 0
M  V30 5412 H 523.166 2.65669 -3.20508 0
M  V30 5413 H 523.699 1.07683 -3.82948 0
M  V30 5414 H 520.438 -0.176202 -6.55263 0
M  V30 5415 H 519.958 1.37976 -5.83714 0
M  V30 5416 H 521.637 1.12085 -6.37217 0
M  V30 5417 N 521.769 1.56035 0.221574 0
M  V30 5418 C 522.699 1.95434 1.2778 0
M  V30 5419 C 523.68 0.822564 1.48889 0
M  V30 5420 O 524.865 1.08486 1.61072 0
M  V30 5421 C 521.995 2.27102 2.62759 0
M  V30 5422 C 520.949 3.4277 2.56306 0
M  V30 5423 C 520.275 3.60043 3.95314 0
M  V30 5424 C 521.575 4.77742 2.11093 0
M  V30 5425 H 523.269 2.83912 0.950504 0
M  V30 5426 H 520.815 1.36596 0.455791 0
M  V30 5427 H 522.768 2.53256 3.36807 0
M  V30 5428 H 521.492 1.35478 2.97176 0
M  V30 5429 H 520.151 3.16664 1.84715 0
M  V30 5430 H 519.799 2.65794 4.27039 0
M  V30 5431 H 519.499 4.37841 3.91879 0
M  V30 5432 H 521.023 3.88545 4.71025 0
M  V30 5433 H 522.437 5.03102 2.74885 0
M  V30 5434 H 520.834 5.58823 2.18716 0
M  V30 5435 H 521.904 4.731 1.06321 0
M  V30 5436 N 523.247 -0.488276 1.49845 0
M  V30 5437 C 524.194 -1.58836 1.67451 0
M  V30 5438 C 525.164 -1.57886 0.515857 0
M  V30 5439 O 526.349 -1.75679 0.744403 0
M  V30 5440 C 523.489 -2.96915 1.75885 0
M  V30 5441 C 522.602 -3.07784 3.03138 0
M  V30 5442 C 521.737 -4.36673 3.02473 0
M  V30 5443 C 520.776 -4.41222 4.24252 0
M  V30 5444 N 519.913 -5.61557 4.21424 0
M  V30 5445 H 524.753 -1.43131 2.61376 0
M  V30 5446 H 522.29 -0.696186 1.29583 0
M  V30 5447 H 524.248 -3.76965 1.78755 0
M  V30 5448 H 522.878 -3.11295 0.85414 0
M  V30 5449 H 521.93 -2.20717 3.09819 0
M  V30 5450 H 523.242 -3.07005 3.93128 0
M  V30 5451 H 522.396 -5.25055 3.03977 0
M  V30 5452 H 521.135 -4.40037 2.10283 0
M  V30 5453 H 520.14 -3.5124 4.22978 0
M  V30 5454 H 521.365 -4.39564 5.17649 0
M  V30 5455 H 519.311 -5.65738 3.32078 0
M  V30 5456 H 519.228 -5.62447 5.05163 0
M  V30 5457 H 520.496 -6.52111 4.2705 0
M  V30 5458 N 524.725 -1.39134 -0.740242 0
M  V30 5459 C 526.141 -1.20623 -1.0451 0
M  V30 5460 C 526.341 -0.0641651 -2.01398 0
M  V30 5461 O 525.397 0.585843 -2.4561 0
M  V30 5462 C 526.71 -2.53815 -1.6124 0
M  V30 5463 C 528.258 -2.60615 -1.73346 0
M  V30 5464 C 528.733 -3.94015 -2.33486 0
M  V30 5465 N 530.224 -3.95627 -2.40902 0
M  V30 5466 C 530.959 -4.95616 -2.88361 0
M  V30 5467 N 530.455 -6.06003 -3.35756 0
M  V30 5468 N 532.248 -4.82998 -2.87523 0
M  V30 5469 H 524.399 -2.12176 -0.0975576 0
M  V30 5470 H 526.662 -0.942066 -0.105904 0
M  V30 5471 H 526.368 -3.37911 -0.975144 0
M  V30 5472 H 526.242 -2.73162 -2.6012 0
M  V30 5473 H 528.629 -1.76906 -2.36195 0
M  V30 5474 H 528.71 -2.45123 -0.731336 0
M  V30 5475 H 528.354 -4.78153 -1.71267 0
M  V30 5476 H 528.284 -4.06825 -3.34366 0
M  V30 5477 H 530.775 -3.15903 -2.07398 0
M  V30 5478 H 531.088 -6.78215 -3.70464 0
M  V30 5479 H 529.433 -6.09604 -3.33778 0
M  V30 5480 H 532.624 -3.95866 -2.49816 0
M  V30 5481 H 532.797 -5.61072 -3.24196 0
M  V30 5482 N 526.204 0.969867 -1.24223 0
M  V30 5483 C 527.134 2.08191 -1.05729 0
M  V30 5484 C 528.115 1.70075 0.0290765 0
M  V30 5485 O 529.3 1.93712 -0.137583 0
M  V30 5486 C 526.43 3.40991 -0.658995 0
M  V30 5487 C 525.384 3.93054 -1.69389 0
M  V30 5488 C 524.71 5.22171 -1.15072 0
M  V30 5489 C 526.01 4.21137 -3.08935 0
M  V30 5490 H 527.704 2.23921 -1.98746 0
M  V30 5491 H 525.25 1.07602 -0.956967 0
M  V30 5492 H 527.203 4.18221 -0.51662 0
M  V30 5493 H 525.927 3.25155 0.30686 0
M  V30 5494 H 524.586 3.17977 -1.82444 0
M  V30 5495 H 524.234 5.02694 -0.175539 0
M  V30 5496 H 523.934 5.57973 -1.84229 0
M  V30 5497 H 525.458 6.02013 -1.02042 0
M  V30 5498 H 526.872 4.8908 -2.99121 0
M  V30 5499 H 525.269 4.68163 -3.75425 0
M  V30 5500 H 526.339 3.27996 -3.57137 0
M  V30 5501 N 527.682 1.05563 1.17022 0
M  V30 5502 C 528.592 0.670758 2.24807 0
M  V30 5503 C 529.608 -0.309865 1.71219 0
M  V30 5504 O 530.784 -0.161025 2.00755 0
M  V30 5505 C 527.849 0.055337 3.46656 0
M  V30 5506 C 526.91 1.08688 4.15314 0
M  V30 5507 C 526.143 0.500736 5.31346 0
M  V30 5508 O 526.366 -0.688718 5.66227 0
M  V30 5509 O 525.3 1.23683 5.89055 0
M  V30 5510 H 529.126 1.56914 2.60023 0
M  V30 5511 H 526.711 0.827428 1.24395 0
M  V30 5512 H 528.593 -0.286492 4.20425 0
M  V30 5513 H 527.268 -0.816638 3.13229 0
M  V30 5514 H 526.175 1.48077 3.43546 0
M  V30 5515 H 527.508 1.93014 4.52777 0
M  V30 5516 N 529.16 -1.33526 0.837174 0
M  V30 5517 C 530.406 -1.9813 0.432704 0
M  V30 5518 C 530.739 -1.66168 -1.00508 0
M  V30 5519 O 530.014 -0.94069 -1.70239 0
M  V30 5520 C 530.297 -3.54151 0.651834 0
M  V30 5521 C 530.15 -3.95806 2.13676 0
M  V30 5522 C 531.469 -4.39993 0.0968937 0
M  V30 5523 H 528.588 -0.719713 0.15869 0
M  V30 5524 H 531.23 -1.58193 1.05237 0
M  V30 5525 H 529.38 -3.88301 0.124369 0
M  V30 5526 H 531.052 -3.71921 2.72896 0
M  V30 5527 H 529.295 -3.45599 2.62191 0
M  V30 5528 H 529.966 -5.0447 2.24084 0
M  V30 5529 H 532.442 -4.12479 0.547733 0
M  V30 5530 H 531.318 -5.48186 0.279917 0
M  V30 5531 H 531.579 -4.3066 -0.9992 0
M  V30 5532 N 530.638 -0.59345 -1.46 0
M  V30 5533 C 531.887 -0.0808084 -2.01538 0
M  V30 5534 C 532.2 1.29112 -1.46934 0
M  V30 5535 O 533.406 1.8957 -1.94359 0
M  V30 5536 C 531.862 -0.0938311 -3.59778 0
M  V30 5537 C 531.47 -1.46474 -4.23379 0
M  V30 5538 C 533.214 0.364306 -4.22934 0
M  V30 5539 C 531.121 -1.4349 -5.73729 0
M  V30 5540 H 530.051 -0.0264407 -0.753536 0
M  V30 5541 H 532.702 -0.746689 -1.67621 0
M  V30 5542 H 531.084 0.638427 -3.9082 0
M  V30 5543 H 532.258 -2.21758 -4.03931 0
M  V30 5544 H 530.573 -1.86379 -3.7236 0
M  V30 5545 H 533.17 0.405584 -5.3316 0
M  V30 5546 H 533.513 1.38409 -3.92618 0
M  V30 5547 H 534.046 -0.31423 -3.96557 0
M  V30 5548 H 530.785 -2.43184 -6.08722 0
M  V30 5549 H 530.305 -0.724431 -5.95409 0
M  V30 5550 H 531.984 -1.15243 -6.36654 0
M  V30 5551 N 532.116 1.54067 -0.331816 0
M  V30 5552 C 533.026 2.28322 0.539104 0
M  V30 5553 C 534.042 1.32985 1.1221 0
M  V30 5554 O 535.218 1.6601 1.1403 0
M  V30 5555 C 532.283 3.03277 1.68 0
M  V30 5556 C 531.344 4.14216 1.12798 0
M  V30 5557 C 530.577 4.85588 2.2145 0
M  V30 5558 O 530.8 4.56536 3.41952 0
M  V30 5559 O 529.734 5.72309 1.86404 0
M  V30 5560 H 533.56 3.03632 -0.0641692 0
M  V30 5561 H 531.145 1.49083 -0.0972365 0
M  V30 5562 H 533.027 3.50189 2.34405 0
M  V30 5563 H 531.702 2.30834 2.2693 0
M  V30 5564 H 530.609 3.71635 0.428782 0
M  V30 5565 H 531.942 4.88727 0.583698 0
M  V30 5566 N 533.594 0.0601682 1.57485 0
M  V30 5567 C 534.526 -0.94047 2.09016 0
M  V30 5568 C 535.539 -1.26897 1.01985 0
M  V30 5569 O 536.728 -1.22819 1.29529 0
M  V30 5570 C 533.828 -2.25955 2.52582 0
M  V30 5571 C 533.001 -2.11163 3.83052 0
M  V30 5572 C 532.06 -3.26273 4.12835 0
M  V30 5573 O 531.086 -3.01779 4.82616 0
M  V30 5574 N 532.288 -4.51022 3.65458 0
M  V30 5575 H 535.053 -0.500578 2.9549 0
M  V30 5576 H 532.614 -0.125852 1.6141 0
M  V30 5577 H 534.606 -3.01846 2.69575 0
M  V30 5578 H 533.176 -2.61481 1.71308 0
M  V30 5579 H 532.396 -1.19808 3.75552 0
M  V30 5580 H 533.684 -1.98517 4.68475 0
M  V30 5581 H 533.082 -4.73811 3.09062 0
M  V30 5582 H 531.639 -5.23978 3.87673 0
M  V30 5583 N 535.072 -1.5615 -0.213296 0
M  V30 5584 C 536.297 -1.83986 -0.957282 0
M  V30 5585 C 536.722 -0.641526 -1.76822 0
M  V30 5586 O 536.08 0.409722 -1.7661 0
M  V30 5587 C 536.128 -3.09889 -1.84393 0
M  V30 5588 O 535.232 -2.89163 -2.94038 0
M  V30 5589 H 534.573 -0.606357 -0.270605 0
M  V30 5590 H 537.103 -2.03369 -0.224111 0
M  V30 5591 H 537.113 -3.40209 -2.25215 0
M  V30 5592 H 535.788 -3.96735 -1.24795 0
M  V30 5593 H 534.365 -2.70097 -2.57103 0
M  V30 5594 N 536.55 0.480323 -1.50102 0
M  V30 5595 C 537.513 1.56181 -1.6775 0
M  V30 5596 C 538.513 1.51156 -0.548503 0
M  V30 5597 O 539.703 1.5394 -0.815363 0
M  V30 5598 C 536.835 2.95823 -1.69415 0
M  V30 5599 H 538.028 1.41855 -2.6423 0
M  V30 5600 H 535.581 0.70605 -1.39444 0
M  V30 5601 H 536.316 3.15604 -0.745948 0
M  V30 5602 H 536.101 3.00878 -2.51425 0
M  V30 5603 H 537.591 3.74359 -1.85054 0
M  V30 5604 N 538.028 1.39524 0.732853 0
M  V30 5605 C 538.958 1.41153 1.86005 0
M  V30 5606 C 539.939 0.274614 1.67869 0
M  V30 5607 O 541.124 0.480745 1.88155 0
M  V30 5608 C 538.254 1.25638 3.23778 0
M  V30 5609 C 537.208 2.36752 3.56556 0
M  V30 5610 C 536.534 2.06326 4.93289 0
M  V30 5611 C 537.834 3.79069 3.5931 0
M  V30 5612 H 539.528 2.35484 1.84899 0
M  V30 5613 H 537.074 1.13348 0.888162 0
M  V30 5614 H 539.027 1.25398 4.0231 0
M  V30 5615 H 537.751 0.277772 3.25417 0
M  V30 5616 H 536.41 2.36213 2.80355 0
M  V30 5617 H 536.058 1.06897 4.9151 0
M  V30 5618 H 535.758 2.80757 5.16187 0
M  V30 5619 H 537.282 2.07739 5.74175 0
M  V30 5620 H 538.696 3.81526 4.27914 0
M  V30 5621 H 537.093 4.52878 3.93728 0
M  V30 5622 H 538.163 4.09893 2.59068 0
M  V30 5623 N 539.506 -0.963266 1.24736 0
M  V30 5624 C 540.753 -1.7068 1.0897 0
M  V30 5625 C 541.081 -1.90934 -0.370751 0
M  V30 5626 O 540.336 -1.47155 -1.29011 0
M  V30 5627 C 540.635 -3.09944 1.7796 0
M  V30 5628 C 540.301 -3.09518 3.27887 0
M  V30 5629 C 538.963 -3.09109 3.68789 0
M  V30 5630 C 541.315 -3.03509 4.23712 0
M  V30 5631 C 538.643 -3.00429 5.03944 0
M  V30 5632 C 540.995 -2.96371 5.5888 0
M  V30 5633 C 539.659 -2.94293 5.99123 0
M  V30 5634 H 538.929 -0.624564 0.398749 0
M  V30 5635 H 541.576 -1.12603 1.54896 0
M  V30 5636 H 539.881 -3.71513 1.2444 0
M  V30 5637 H 541.578 -3.66278 1.63222 0
M  V30 5638 H 538.168 -3.10603 2.95337 0
M  V30 5639 H 542.352 -3.0295 3.93109 0
M  V30 5640 H 537.608 -2.97183 5.34314 0
M  V30 5641 H 541.782 -2.90681 6.32833 0
M  V30 5642 H 539.409 -2.87322 7.03811 0
M  V30 5643 N 540.985 -1.06182 -1.16461 0
M  V30 5644 C 541.917 -0.629584 -2.20383 0
M  V30 5645 C 542.93 0.311834 -1.59786 0
M  V30 5646 O 544.119 0.103 -1.78203 0
M  V30 5647 C 541.219 0.0973695 -3.3876 0
M  V30 5648 C 540.392 -0.857252 -4.28917 0
M  V30 5649 C 539.451 -0.169749 -5.25926 0
M  V30 5650 O 538.477 -0.807044 -5.6345 0
M  V30 5651 N 539.679 1.08911 -5.70192 0
M  V30 5652 H 542.444 -1.52352 -2.58087 0
M  V30 5653 H 540.005 -0.944993 -1.31459 0
M  V30 5654 H 541.997 0.567676 -4.00699 0
M  V30 5655 H 540.567 0.893093 -2.99571 0
M  V30 5656 H 539.787 -1.50696 -3.64259 0
M  V30 5657 H 541.075 -1.50489 -4.86035 0
M  V30 5658 H 540.473 1.62703 -5.41797 0
M  V30 5659 H 539.03 1.50331 -6.34227 0
M  V30 5660 N 542.463 1.3308 -0.844243 0
M  V30 5661 C 543.396 2.27075 -0.226279 0
M  V30 5662 C 544.374 1.49911 0.629716 0
M  V30 5663 O 545.558 1.79068 0.588803 0
M  V30 5664 C 542.685 3.31767 0.681782 0
M  V30 5665 C 541.731 4.26384 -0.0994565 0
M  V30 5666 S 542.564 5.15186 -1.46094 0
M  V30 5667 C 543.72 6.23405 -0.558319 0
M  V30 5668 H 543.953 2.79141 -1.02312 0
M  V30 5669 H 541.486 1.40452 -0.641292 0
M  V30 5670 H 543.444 3.92566 1.20008 0
M  V30 5671 H 542.105 2.78507 1.45234 0
M  V30 5672 H 541.298 5.00514 0.591733 0
M  V30 5673 H 540.9 3.69949 -0.548991 0
M  V30 5674 H 543.192 6.77069 0.241672 0
M  V30 5675 H 544.135 6.96619 -1.26995 0
M  V30 5676 H 544.543 5.64333 -0.13728 0
M  V30 5677 N 543.941 0.601185 1.45683 0
M  V30 5678 C 545.352 0.179659 1.85834 0
M  V30 5679 C 545.703 -1.26189 1.50236 0
M  V30 5680 O 544.828 -1.95587 0.925987 0
M  V30 5681 C 545.423 0.319277 3.37292 0
M  V30 5682 C 543.982 -0.0475092 3.7637 0
M  V30 5683 C 543.129 0.646692 2.69654 0
M  V30 5684 H 546.08 0.808268 1.36575 0
M  V30 5685 H 546.101 -0.4503 3.77826 0
M  V30 5686 H 545.613 1.36855 3.6317 0
M  V30 5687 H 543.714 -1.0962 3.5611 0
M  V30 5688 H 543.827 0.34168 4.7788 0
M  V30 5689 H 542.191 0.0849971 2.54558 0
M  V30 5690 H 542.974 1.69797 2.98369 0
M  V30 5691 N 545.419 -1.53889 0.339982 0
M  V30 5692 C 546.349 -2.27843 -0.510856 0
M  V30 5693 C 547.33 -1.29267 -1.10563 0
M  V30 5694 O 548.515 -1.58104 -1.12768 0
M  V30 5695 C 545.645 -3.04857 -1.66372 0
M  V30 5696 C 544.599 -4.10907 -1.19746 0
M  V30 5697 C 543.925 -4.75855 -2.43857 0
M  V30 5698 C 545.225 -5.21435 -0.300501 0
M  V30 5699 H 546.919 -2.99212 0.106067 0
M  V30 5700 H 544.465 -1.43904 0.0524533 0
M  V30 5701 H 546.418 -3.5533 -2.26537 0
M  V30 5702 H 545.142 -2.31133 -2.30749 0
M  V30 5703 H 543.801 -3.61342 -0.618654 0
M  V30 5704 H 543.449 -3.9873 -3.06633 0
M  V30 5705 H 543.149 -5.47502 -2.13343 0
M  V30 5706 H 544.673 -5.2911 -3.04754 0
M  V30 5707 H 546.087 -5.67565 -0.80889 0
M  V30 5708 H 544.484 -6.00036 -0.0874076 0
M  V30 5709 H 545.554 -4.80328 0.664321 0
M  V30 5710 N 546.897 -0.0685191 -1.57451 0
M  V30 5711 C 547.807 0.914677 -2.16034 0
M  V30 5712 C 548.823 1.32938 -1.12265 0
M  V30 5713 O 549.999 1.40275 -1.44516 0
M  V30 5714 C 547.064 2.16519 -2.70777 0
M  V30 5715 C 546.125 1.80721 -3.89408 0
M  V30 5716 C 545.358 2.9981 -4.41531 0
M  V30 5717 O 545.581 4.13727 -3.92666 0
M  V30 5718 O 544.515 2.79817 -5.32903 0
M  V30 5719 H 548.341 0.446364 -3.00402 0
M  V30 5720 H 545.926 0.154367 -1.486 0
M  V30 5721 H 547.808 2.89856 -3.05878 0
M  V30 5722 H 546.483 2.62454 -1.89471 0
M  V30 5723 H 545.39 1.04646 -3.59166 0
M  V30 5724 H 546.723 1.39571 -4.71997 0
M  V30 5725 N 548.375 1.56261 0.205012 0
M  V30 5726 C 549.6 1.84491 0.947512 0
M  V30 5727 C 550.025 0.650894 1.76479 0
M  V30 5728 O 549.383 -0.40035 1.76824 0
M  V30 5729 C 549.431 3.10863 1.82747 0
M  V30 5730 O 548.535 2.90719 2.925 0
M  V30 5731 H 547.876 0.607783 0.267386 0
M  V30 5732 H 550.406 2.03485 0.213323 0
M  V30 5733 H 550.416 3.41399 2.23407 0
M  V30 5734 H 549.091 3.97392 1.2269 0
M  V30 5735 H 547.668 2.71457 2.55667 0
M  V30 5736 N 549.853 -0.472356 1.50355 0
M  V30 5737 C 551.1 -1.22453 1.61281 0
M  V30 5738 C 551.428 -1.91972 0.31256 0
M  V30 5739 O 550.683 -1.82696 -0.701475 0
M  V30 5740 C 550.982 -2.29257 2.74182 0
M  V30 5741 C 550.648 -1.76999 4.14708 0
M  V30 5742 C 549.31 -1.62467 4.52944 0
M  V30 5743 C 551.662 -1.38215 5.0254 0
M  V30 5744 C 548.99 -1.07574 5.76754 0
M  V30 5745 C 551.342 -0.847638 6.26895 0
M  V30 5746 C 550.006 -0.688946 6.63935 0
M  V30 5747 H 549.276 -0.448087 0.590168 0
M  V30 5748 H 551.923 -0.520744 1.84284 0
M  V30 5749 H 550.228 -3.05538 2.45263 0
M  V30 5750 H 551.925 -2.87212 2.7984 0
M  V30 5751 H 548.515 -1.89276 3.84542 0
M  V30 5752 H 552.699 -1.48276 4.73633 0
M  V30 5753 H 547.955 -0.940237 6.04127 0
M  V30 5754 H 552.129 -0.538455 6.94315 0
M  V30 5755 H 549.756 -0.261435 7.5975 0
M  V30 5756 N 551.331 -1.39911 -0.725443 0
M  V30 5757 C 552.281 -1.35878 -1.83088 0
M  V30 5758 C 553.265 -0.237989 -1.5913 0
M  V30 5759 O 554.457 -0.476302 -1.70471 0
M  V30 5760 C 551.586 -1.21403 -3.21117 0
M  V30 5761 C 550.672 -2.38223 -3.50871 0
M  V30 5762 N 551.063 -3.63703 -3.51502 0
M  V30 5763 C 549.361 -2.31388 -3.81281 0
M  V30 5764 C 550.062 -4.4101 -3.79322 0
M  V30 5765 N 549.038 -3.7072 -3.97577 0
M  V30 5766 H 552.84 -2.3085 -1.81895 0
M  V30 5767 H 550.354 -1.33543 -0.924125 0
M  V30 5768 H 552.351 -1.16597 -4.00263 0
M  V30 5769 H 551.011 -0.273902 -3.23543 0
M  V30 5770 H 552.022 -3.96998 -3.32586 0
M  V30 5771 H 548.699 -1.45689 -3.91256 0
M  V30 5772 H 550.089 -5.49819 -3.86198 0
M  V30 5773 N 552.809 0.956637 -1.25245 0
M  V30 5774 C 554.034 1.74104 -1.12706 0
M  V30 5775 C 554.459 1.85436 0.315429 0
M  V30 5776 O 553.817 1.33334 1.22848 0
M  V30 5777 C 553.865 3.1338 -1.78396 0
M  V30 5778 O 552.969 3.98485 -1.06224 0
M  V30 5779 H 552.31 0.53476 -0.393609 0
M  V30 5780 H 554.84 1.19924 -1.65769 0
M  V30 5781 H 554.85 3.6385 -1.846 0
M  V30 5782 H 553.525 3.04448 -2.83345 0
M  V30 5783 H 552.102 3.56952 -1.07886 0
M  V30 5784 N 554.287 1.06798 1.15896 0
M  V30 5785 C 555.217 0.704677 2.22613 0
M  V30 5786 C 556.198 -0.305252 1.67339 0
M  V30 5787 O 557.383 -0.179247 1.93371 0
M  V30 5788 C 554.513 0.0957325 3.47168 0
M  V30 5789 C 553.467 1.0322 4.15367 0
M  V30 5790 C 552.793 0.286293 5.33933 0
M  V30 5791 C 554.093 2.36341 4.65768 0
M  V30 5792 H 555.787 1.59688 2.53259 0
M  V30 5793 H 553.333 0.769257 1.21731 0
M  V30 5794 H 555.286 -0.170333 4.21056 0
M  V30 5795 H 554.01 -0.831516 3.15838 0
M  V30 5796 H 552.669 1.28309 3.43413 0
M  V30 5797 H 552.317 -0.644237 4.98857 0
M  V30 5798 H 552.017 0.910436 5.80504 0
M  V30 5799 H 553.541 0.0278938 6.10594 0
M  V30 5800 H 554.955 2.1561 5.31211 0
M  V30 5801 H 553.352 2.94299 5.2298 0
M  V30 5802 H 554.422 2.99047 3.81705 0
M  V30 5803 N 555.766 -1.3263 0.851289 0
M  V30 5804 C 556.698 -2.27824 0.250757 0
M  V30 5805 C 557.711 -1.52285 -0.575598 0
M  V30 5806 O 558.9 -1.73946 -0.400638 0
M  V30 5807 C 556 -3.3232 -0.664571 0
M  V30 5808 C 555.173 -4.37221 0.125187 0
M  V30 5809 C 554.232 -5.21314 -0.715385 0
M  V30 5810 O 553.258 -5.69002 -0.150111 0
M  V30 5811 N 554.46 -5.43823 -2.03069 0
M  V30 5812 H 557.225 -2.79997 1.06873 0
M  V30 5813 H 554.786 -1.45455 0.710943 0
M  V30 5814 H 556.778 -3.85486 -1.23216 0
M  V30 5815 H 555.348 -2.80331 -1.38323 0
M  V30 5816 H 554.568 -3.84384 0.874199 0
M  V30 5817 H 555.856 -5.04399 0.667774 0
M  V30 5818 H 555.254 -5.06803 -2.51332 0
M  V30 5819 H 553.811 -5.99998 -2.54648 0
M  V30 5820 N 557.244 -0.608902 -1.45362 0
M  V30 5821 C 558.154 0.110969 -2.34337 0
M  V30 5822 C 559.17 0.859007 -1.51318 0
M  V30 5823 O 560.346 0.816296 -1.84116 0
M  V30 5824 C 557.411 1.09494 -3.28956 0
M  V30 5825 C 556.472 0.348718 -4.27881 0
M  V30 5826 C 555.705 1.28582 -5.17979 0
M  V30 5827 O 555.928 2.52369 -5.11533 0
M  V30 5828 O 554.862 0.782172 -5.96796 0
M  V30 5829 H 558.688 -0.620258 -2.97299 0
M  V30 5830 H 556.273 -0.36916 -1.44767 0
M  V30 5831 H 558.155 1.66163 -3.87257 0
M  V30 5832 H 556.83 1.80717 -2.68557 0
M  V30 5833 H 555.737 -0.260465 -3.73192 0
M  V30 5834 H 557.07 -0.323049 -4.91139 0
M  V30 5835 N 558.722 1.53707 -0.348139 0
M  V30 5836 C 559.999 1.93247 0.302475 0
M  V30 5837 C 560.379 1.28012 1.67857 0
M  V30 5838 O 559.727 0.43274 2.24365 0
M  V30 5839 C 559.937 3.47031 0.370159 0
M  V30 5840 C 561.285 4.20066 0.61882 0
M  V30 5841 O 562.309 3.53319 0.452087 0
M  V30 5842 O 561.168 5.38318 0.94215 0
M  V30 5843 H 558.262 0.807736 0.177458 0
M  V30 5844 H 560.808 1.64927 -0.399651 0
M  V30 5845 H 559.58 3.86745 -0.59534 0
M  V30 5846 H 559.203 3.81532 1.11888 0
M  V30 5847 N 560.2 0.0768682 1.57412 0
M  V30 5848 C 561.446 -0.585926 1.94778 0
M  V30 5849 C 561.801 -1.66912 0.956982 0
M  V30 5850 O 561.094 -1.9159 -0.0199454 0
M  V30 5851 C 561.288 -1.20268 3.36557 0
M  V30 5852 C 561.117 -0.18076 4.49337 0
M  V30 5853 C 559.887 0.236362 5.04747 0
M  V30 5854 C 562.085 0.583978 5.10974 0
M  V30 5855 N 560.067 1.24846 6.01071 0
M  V30 5856 C 561.438 1.44841 6.02844 0
M  V30 5857 C 563.493 0.639492 4.93776 0
M  V30 5858 C 562.196 2.36343 6.79363 0
M  V30 5859 C 564.222 1.54204 5.70942 0
M  V30 5860 C 563.584 2.39414 6.62465 0
M  V30 5861 H 559.683 -0.185281 0.759734 0
M  V30 5862 H 562.267 0.155193 1.9408 0
M  V30 5863 H 560.438 -1.9137 3.37982 0
M  V30 5864 H 562.17 -1.82636 3.61146 0
M  V30 5865 H 558.925 -0.14777 4.73369 0
M  V30 5866 H 559.349 1.75217 6.53933 0
M  V30 5867 H 563.991 -0.00510074 4.228 0
M  V30 5868 H 561.709 3.01836 7.49614 0
M  V30 5869 H 565.295 1.5899 5.59655 0
M  V30 5870 H 564.175 3.0812 7.21132 0
M  V30 5871 N 561.678 -1.56367 -0.196722 0
M  V30 5872 C 562.625 -1.94417 -1.24382 0
M  V30 5873 C 563.595 -0.804543 -1.45315 0
M  V30 5874 O 564.78 -1.06256 -1.58475 0
M  V30 5875 C 561.92 -2.28757 -2.58388 0
M  V30 5876 C 561.033 -3.55775 -2.45047 0
M  V30 5877 C 560.168 -3.79445 -3.71746 0
M  V30 5878 C 559.207 -4.99894 -3.53231 0
M  V30 5879 N 558.344 -5.19826 -4.71938 0
M  V30 5880 H 563.184 -2.83691 -0.912338 0
M  V30 5881 H 560.721 -1.40392 -0.439135 0
M  V30 5882 H 562.679 -2.46682 -3.36457 0
M  V30 5883 H 561.309 -1.42625 -2.89582 0
M  V30 5884 H 560.361 -3.45905 -1.58284 0
M  V30 5885 H 561.673 -4.44 -2.27299 0
M  V30 5886 H 560.827 -3.97601 -4.58256 0
M  V30 5887 H 559.566 -2.89546 -3.92446 0
M  V30 5888 H 558.571 -4.81662 -2.65107 0
M  V30 5889 H 559.796 -5.913 -3.33978 0
M  V30 5890 H 557.742 -4.32875 -4.92905 0
M  V30 5891 H 557.659 -6.02228 -4.57009 0
M  V30 5892 H 558.927 -5.42439 -5.59803 0
M  V30 5893 N 563.156 0.464375 -1.50603 0
M  V30 5894 C 564.086 1.56944 -1.72889 0
M  V30 5895 C 565.067 1.59979 -0.577997 0
M  V30 5896 O 566.252 1.76138 -0.817855 0
M  V30 5897 C 563.382 2.95225 -1.8292 0
M  V30 5898 C 562.336 3.07056 -2.98162 0
M  V30 5899 C 561.662 4.47051 -2.93343 0
M  V30 5900 C 562.962 2.83648 -4.38567 0
M  V30 5901 H 564.656 1.38547 -2.65415 0
M  V30 5902 H 562.202 0.665082 -1.27721 0
M  V30 5903 H 564.155 3.72467 -1.97095 0
M  V30 5904 H 562.879 3.14793 -0.870209 0
M  V30 5905 H 561.538 2.32248 -2.83648 0
M  V30 5906 H 561.186 4.63547 -1.95276 0
M  V30 5907 H 560.886 4.55902 -3.70712 0
M  V30 5908 H 562.41 5.26304 -3.09575 0
M  V30 5909 H 563.824 3.50636 -4.53572 0
M  V30 5910 H 562.221 3.03937 -5.17438 0
M  V30 5911 H 563.291 1.79451 -4.50472 0
M  V30 5912 N 564.634 1.40294 0.718013 0
M  V30 5913 C 565.544 1.42678 1.86226 0
M  V30 5914 C 566.56 0.319655 1.71039 0
M  V30 5915 O 567.736 0.563852 1.93346 0
M  V30 5916 C 564.801 1.2852 3.21999 0
M  V30 5917 C 563.862 2.49354 3.49458 0
M  V30 5918 C 563.095 2.35863 4.78753 0
M  V30 5919 O 563.318 1.37114 5.53675 0
M  V30 5920 O 562.252 3.25189 5.06494 0
M  V30 5921 H 566.078 2.39167 1.87171 0
M  V30 5922 H 563.663 1.2159 0.868112 0
M  V30 5923 H 565.545 1.22824 4.03103 0
M  V30 5924 H 564.22 0.351359 3.21787 0
M  V30 5925 H 563.127 2.60628 2.68373 0
M  V30 5926 H 564.46 3.41491 3.54464 0
M  V30 5927 N 566.112 -0.949982 1.2575 0
M  V30 5928 C 567.361 -1.68956 1.10168 0
M  V30 5929 C 567.674 -1.92327 -0.356309 0
M  V30 5930 O 568.88 -2.64026 -0.632657 0
M  V30 5931 C 567.336 -3.04196 1.92336 0
M  V30 5932 C 566.944 -2.88603 3.42655 0
M  V30 5933 C 568.688 -3.81904 1.85336 0
M  V30 5934 C 566.595 -4.19262 4.17101 0
M  V30 5935 H 565.525 -0.633645 0.408668 0
M  V30 5936 H 568.176 -1.05719 1.49986 0
M  V30 5937 H 566.558 -3.68363 1.45344 0
M  V30 5938 H 567.732 -2.3334 3.97353 0
M  V30 5939 H 566.047 -2.24345 3.50796 0
M  V30 5940 H 568.644 -4.78688 2.38248 0
M  V30 5941 H 568.987 -4.08099 0.822226 0
M  V30 5942 H 569.52 -3.24495 2.30104 0
M  V30 5943 H 566.259 -3.98254 5.20648 0
M  V30 5944 H 565.779 -4.74273 3.67186 0
M  V30 5945 H 567.458 -4.87775 4.25071 0
M  V30 5946 N 567.59 -1.07411 -1.15328 0
M  V30 5947 C 568.522 -0.652924 -2.19703 0
M  V30 5948 C 569.535 0.294869 -1.60107 0
M  V30 5949 O 570.724 0.0840932 -1.78302 0
M  V30 5950 C 567.824 0.061434 -3.38844 0
M  V30 5951 C 566.997 -0.902696 -4.27984 0
M  V30 5952 C 566.056 -0.225521 -5.25717 0
M  V30 5953 O 565.082 -0.86676 -5.62562 0
M  V30 5954 N 566.284 1.02858 -5.71315 0
M  V30 5955 H 569.049 -1.55081 -2.56457 0
M  V30 5956 H 566.61 -0.958883 -1.30449 0
M  V30 5957 H 568.602 0.525145 -4.01278 0
M  V30 5958 H 567.172 0.861269 -3.00501 0
M  V30 5959 H 566.392 -1.54551 -3.6264 0
M  V30 5960 H 567.68 -1.55636 -4.84412 0
M  V30 5961 H 567.078 1.56948 -5.43492 0
M  V30 5962 H 565.635 1.43596 -6.35786 0
M  V30 5963 N 569.068 1.32177 -0.85831 0
M  V30 5964 C 570.018 2.26307 -0.277307 0
M  V30 5965 C 571.002 1.50123 0.578946 0
M  V30 5966 O 572.194 1.71754 0.427731 0
M  V30 5967 C 569.323 3.39181 0.530232 0
M  V30 5968 C 568.409 4.22746 -0.338613 0
M  V30 5969 N 568.8 4.85265 -1.4266 0
M  V30 5970 C 567.098 4.45813 -0.129 0
M  V30 5971 C 567.799 5.47634 -1.96142 0
M  V30 5972 N 566.775 5.28794 -1.26007 0
M  V30 5973 H 570.577 2.72173 -1.10902 0
M  V30 5974 H 568.091 1.46308 -0.704816 0
M  V30 5975 H 570.088 4.05628 0.962904 0
M  V30 5976 H 568.748 2.9486 1.35969 0
M  V30 5977 H 569.759 4.85259 -1.80953 0
M  V30 5978 H 566.436 4.12163 0.665451 0
M  V30 5979 H 567.826 6.0735 -2.8736 0
M  V30 5980 N 570.547 0.616602 1.45037 0
M  V30 5981 C 571.48 -0.145984 2.27733 0
M  V30 5982 C 572.458 -0.865108 1.37676 0
M  V30 5983 O 573.642 -0.872152 1.6711 0
M  V30 5984 C 570.769 -1.2122 3.16265 0
M  V30 5985 C 569.815 -0.595218 4.22326 0
M  V30 5986 S 570.648 0.603744 5.32086 0
M  V30 5987 C 571.804 -0.462842 6.24186 0
M  V30 5988 H 572.037 0.555591 2.92062 0
M  V30 5989 H 569.57 0.404364 1.49011 0
M  V30 5990 H 571.528 -1.82247 3.67827 0
M  V30 5991 H 570.189 -1.88589 2.51183 0
M  V30 5992 H 569.382 -1.39775 4.8423 0
M  V30 5993 H 568.984 -0.0598965 3.73952 0
M  V30 5994 H 571.276 -1.33945 6.64127 0
M  V30 5995 H 572.219 0.120259 7.07998 0
M  V30 5996 H 572.627 -0.782219 5.59054 0
M  V30 5997 N 572.025 -1.5352 0.356285 0
M  V30 5998 C 573.272 -2.01117 -0.236303 0
M  V30 5999 C 573.6 -1.24381 -1.49531 0
M  V30 6000 O 572.855 -0.323057 -1.93015 0
M  V30 6001 C 573.154 -3.52607 -0.583369 0
M  V30 6002 C 572.82 -4.47151 0.58023 0
M  V30 6003 C 571.482 -4.72718 0.899528 0
M  V30 6004 C 573.834 -5.03137 1.36024 0
M  V30 6005 C 571.162 -5.51523 2.00098 0
M  V30 6006 C 573.514 -5.83145 2.45204 0
M  V30 6007 C 572.178 -6.07001 2.77679 0
M  V30 6008 H 571.448 -0.735938 -0.0864695 0
M  V30 6009 H 574.095 -1.85209 0.48683 0
M  V30 6010 H 572.4 -3.66413 -1.38739 0
M  V30 6011 H 574.097 -3.86901 -1.05397 0
M  V30 6012 H 570.687 -4.27394 0.321322 0
M  V30 6013 H 574.871 -4.83339 1.12682 0
M  V30 6014 H 570.127 -5.68229 2.25668 0
M  V30 6015 H 574.301 -6.25537 3.06067 0
M  V30 6016 H 571.928 -6.67851 3.63151 0
M  V30 6017 N 573.503 -0.0852151 -1.57369 0
M  V30 6018 C 574.78 0.622534 -1.85429 0
M  V30 6019 C 575.16 1.86962 -0.980229 0
M  V30 6020 O 574.508 2.28445 -0.0500219 0
M  V30 6021 C 574.718 0.947374 -3.35896 0
M  V30 6022 C 576.066 1.31509 -4.03721 0
M  V30 6023 O 577.09 1.03869 -3.40719 0
M  V30 6024 O 575.949 1.83231 -5.14868 0
M  V30 6025 H 573.043 0.310513 -0.766492 0
M  V30 6026 H 575.589 -0.117164 -1.69295 0
M  V30 6027 H 574.361 0.0622264 -3.91251 0
M  V30 6028 H 573.984 1.74338 -3.5734 0
M  V30 6029 N 574.981 1.5647 0.188427 0
M  V30 6030 C 576.258 1.71857 0.934058 0
M  V30 6031 C 576.638 0.641867 2.01105 0
M  V30 6032 O 575.986 -0.346098 2.25864 0
M  V30 6033 C 576.196 3.14431 1.5144 0
M  V30 6034 C 577.544 3.74869 1.99396 0
M  V30 6035 O 578.568 3.17601 1.61269 0
M  V30 6036 O 577.427 4.75387 2.69573 0
M  V30 6037 H 574.521 0.701186 0.438483 0
M  V30 6038 H 577.067 1.68768 0.177599 0
M  V30 6039 H 575.839 3.8427 0.738416 0
M  V30 6040 H 575.462 3.21775 2.33552 0
M  V30 6041 N 576.459 -0.456382 1.50847 0
M  V30 6042 C 577.389 -1.56025 1.73719 0
M  V30 6043 C 578.37 -1.5967 0.586473 0
M  V30 6044 O 579.555 -1.75702 0.827185 0
M  V30 6045 C 576.685 -2.94251 1.84483 0
M  V30 6046 C 575.639 -3.05471 2.99786 0
M  V30 6047 C 574.965 -4.45489 2.95709 0
M  V30 6048 C 576.265 -2.81318 4.40065 0
M  V30 6049 H 577.959 -1.37138 2.66146 0
M  V30 6050 H 575.505 -0.658299 1.28072 0
M  V30 6051 H 577.458 -3.71417 1.99067 0
M  V30 6052 H 576.182 -3.14328 0.886891 0
M  V30 6053 H 574.841 -2.30741 2.84876 0
M  V30 6054 H 574.489 -4.62505 1.97732 0
M  V30 6055 H 574.189 -4.53929 3.73125 0
M  V30 6056 H 575.713 -5.24655 3.12362 0
M  V30 6057 H 577.127 -3.48226 4.55425 0
M  V30 6058 H 575.524 -3.01188 5.19043 0
M  V30 6059 H 576.594 -1.7706 4.51418 0
M  V30 6060 N 577.937 -1.40673 -0.710563 0
M  V30 6061 C 579.353 -1.22813 -1.01928 0
M  V30 6062 C 579.553 -0.10687 -2.01216 0
M  V30 6063 O 578.609 0.533614 -2.46797 0
M  V30 6064 C 579.922 -2.57178 -1.5582 0
M  V30 6065 C 581.47 -2.64233 -1.67779 0
M  V30 6066 C 581.945 -3.98879 -2.25076 0
M  V30 6067 N 583.436 -4.00647 -2.32456 0
M  V30 6068 C 584.171 -5.01621 -2.77784 0
M  V30 6069 N 583.667 -6.12989 -3.22826 0
M  V30 6070 N 585.46 -4.88988 -2.77213 0
M  V30 6071 H 577.611 -2.12335 -0.05253 0
M  V30 6072 H 579.874 -0.9441 -0.085898 0
M  V30 6073 H 579.58 -3.39903 -0.903249 0
M  V30 6074 H 579.454 -2.78618 -2.54267 0
M  V30 6075 H 581.841 -1.81876 -2.3239 0
M  V30 6076 H 581.922 -2.46619 -0.679178 0
M  V30 6077 H 581.566 -4.81678 -1.61086 0
M  V30 6078 H 581.496 -4.13826 -3.25661 0
M  V30 6079 H 583.987 -3.20231 -2.0065 0
M  V30 6080 H 584.3 -6.85921 -3.55995 0
M  V30 6081 H 582.645 -6.16547 -3.20773 0
M  V30 6082 H 585.836 -4.01075 -2.41363 0
M  V30 6083 H 586.009 -5.67822 -3.12221 0
M  V30 6084 N 579.415 0.9433 -1.26252 0
M  V30 6085 C 580.643 1.72367 -1.14443 0
M  V30 6086 C 581.058 1.86392 0.300572 0
M  V30 6087 O 580.415 1.36978 1.20596 0
M  V30 6088 C 580.466 3.13155 -1.806 0
M  V30 6089 O 580.187 2.99803 -3.19452 0
M  V30 6090 C 581.688 4.07417 -1.74717 0
M  V30 6091 H 578.908 0.539758 -0.398626 0
M  V30 6092 H 581.452 1.18268 -1.66832 0
M  V30 6093 H 579.607 3.64162 -1.32154 0
M  V30 6094 H 580.021 3.88697 -3.52158 0
M  V30 6095 H 581.495 5.03773 -2.25647 0
M  V30 6096 H 581.972 4.3337 -0.713244 0
M  V30 6097 H 582.578 3.6233 -2.22704 0
M  V30 6098 N 580.893 1.08022 1.14757 0
M  V30 6099 C 581.84 0.706657 2.19716 0
M  V30 6100 C 582.81 -0.30525 1.63271 0
M  V30 6101 O 583.995 -0.19015 1.8985 0
M  V30 6102 C 581.135 0.117914 3.44898 0
M  V30 6103 C 580.248 1.18212 4.15512 0
M  V30 6104 C 579.383 0.557659 5.28265 0
M  V30 6105 C 578.422 1.60418 5.90705 0
M  V30 6106 N 577.559 1.0018 6.94916 0
M  V30 6107 H 582.399 1.60603 2.51019 0
M  V30 6108 H 579.936 0.802664 1.23271 0
M  V30 6109 H 581.894 -0.241112 4.16503 0
M  V30 6110 H 580.524 -0.744788 3.1409 0
M  V30 6111 H 579.576 1.65863 3.42335 0
M  V30 6112 H 580.888 1.97533 4.5802 0
M  V30 6113 H 580.042 0.146654 6.06523 0
M  V30 6114 H 578.781 -0.267249 4.86967 0
M  V30 6115 H 577.786 2.02489 5.11154 0
M  V30 6116 H 579.011 2.43149 6.34078 0
M  V30 6117 H 576.957 0.197917 6.55701 0
M  V30 6118 H 576.874 1.73216 7.35889 0
M  V30 6119 H 578.142 0.616523 7.77058 0
M  V30 6120 N 582.371 -1.3172 0.865308 0
M  V30 6121 C 583.281 -2.32394 0.320935 0
M  V30 6122 C 584.297 -1.64511 -0.566746 0
M  V30 6123 O 585.473 -1.95969 -0.464575 0
M  V30 6124 C 582.538 -3.43462 -0.472701 0
M  V30 6125 C 581.599 -4.27015 0.442385 0
M  V30 6126 C 580.832 -5.32779 -0.313469 0
M  V30 6127 O 581.055 -5.49158 -1.54214 0
M  V30 6128 O 579.989 -6.01015 0.326257 0
M  V30 6129 H 583.815 -2.80868 1.15528 0
M  V30 6130 H 581.4 -1.35535 0.628545 0
M  V30 6131 H 583.282 -4.11172 -0.922781 0
M  V30 6132 H 581.957 -2.97159 -1.28367 0
M  V30 6133 H 580.864 -3.62075 0.940866 0
M  V30 6134 H 582.197 -4.76871 1.21882 0
M  V30 6135 N 583.85 -0.624285 -1.44708 0
M  V30 6136 C 584.797 0.0847135 -2.30644 0
M  V30 6137 C 585.767 0.843575 -1.43084 0
M  V30 6138 O 586.952 0.825982 -1.71995 0
M  V30 6139 C 584.091 1.06495 -3.28257 0
M  V30 6140 C 583.205 0.305224 -4.3092 0
M  V30 6141 C 582.34 1.27667 -5.1563 0
M  V30 6142 C 581.379 0.505706 -6.10007 0
M  V30 6143 N 580.516 1.42727 -6.8744 0
M  V30 6144 H 585.356 -0.654068 -2.90733 0
M  V30 6145 H 582.893 -0.334334 -1.4325 0
M  V30 6146 H 584.851 1.64658 -3.83332 0
M  V30 6147 H 583.481 1.77094 -2.69884 0
M  V30 6148 H 582.533 -0.392207 -3.78373 0
M  V30 6149 H 583.845 -0.295553 -4.97924 0
M  V30 6150 H 582.999 1.92984 -5.75189 0
M  V30 6151 H 581.738 1.91137 -4.48685 0
M  V30 6152 H 580.743 -0.160999 -5.49564 0
M  V30 6153 H 581.968 -0.124183 -6.78986 0
M  V30 6154 H 579.913 2.04931 -6.23169 0
M  V30 6155 H 579.831 0.880345 -7.50857 0
M  V30 6156 H 581.099 2.0695 -7.51526 0
M  V30 6157 N 585.328 1.53329 -0.364422 0
M  V30 6158 C 586.238 2.29414 0.490552 0
M  V30 6159 C 587.254 1.35335 1.09363 0
M  V30 6160 O 588.43 1.68391 1.10483 0
M  V30 6161 C 585.495 3.06772 1.61529 0
M  V30 6162 C 584.556 4.16516 1.03986 0
M  V30 6163 C 583.789 4.90176 2.111 0
M  V30 6164 O 584.012 4.63687 3.32191 0
M  V30 6165 O 582.946 5.76134 1.74222 0
M  V30 6166 H 586.772 3.03428 -0.12856 0
M  V30 6167 H 584.357 1.48843 -0.128837 0
M  V30 6168 H 586.239 3.55082 2.26924 0
M  V30 6169 H 584.914 2.35596 2.21983 0
M  V30 6170 H 583.821 3.7246 0.349856 0
M  V30 6171 H 585.154 4.89855 0.4799 0
M  V30 6172 N 586.806 0.0935595 1.57322 0
M  V30 6173 C 587.736 -0.863062 2.16964 0
M  V30 6174 C 588.717 -1.29528 1.10256 0
M  V30 6175 O 589.902 -1.36245 1.38387 0
M  V30 6176 C 587.032 -2.12276 2.74875 0
M  V30 6177 C 585.986 -1.82921 3.86942 0
M  V30 6178 C 585.312 -3.15707 4.31548 0
M  V30 6179 C 586.612 -1.11737 5.10208 0
M  V30 6180 H 588.306 -0.366145 2.97153 0
M  V30 6181 H 585.852 -0.174673 1.42937 0
M  V30 6182 H 587.805 -2.79634 3.1525 0
M  V30 6183 H 586.529 -2.64248 1.91938 0
M  V30 6184 H 585.188 -1.17961 3.47103 0
M  V30 6185 H 584.836 -3.65563 3.45504 0
M  V30 6186 H 584.536 -2.96849 5.07104 0
M  V30 6187 H 586.06 -3.84226 4.74555 0
M  V30 6188 H 587.474 -1.69203 5.47762 0
M  V30 6189 H 585.871 -1.03064 5.91183 0
M  V30 6190 H 586.941 -0.0998818 4.84797 0
M  V30 6191 N 588.284 -1.56567 -0.180126 0
M  V30 6192 C 589.7 -1.50488 -0.531559 0
M  V30 6193 C 589.9 -0.796267 -1.851 0
M  V30 6194 O 588.956 -0.352978 -2.50021 0
M  V30 6195 C 590.269 -2.95201 -0.572456 0
M  V30 6196 C 591.817 -3.05957 -0.660264 0
M  V30 6197 C 592.292 -4.5211 -0.732135 0
M  V30 6198 N 593.783 -4.56322 -0.795262 0
M  V30 6199 C 594.518 -5.66742 -0.871296 0
M  V30 6200 N 594.014 -6.86815 -0.908708 0
M  V30 6201 N 595.807 -5.54691 -0.909639 0
M  V30 6202 H 587.958 -2.01045 0.685165 0
M  V30 6203 H 590.221 -0.915536 0.245962 0
M  V30 6204 H 589.927 -3.50165 0.328208 0
M  V30 6205 H 589.801 -3.49369 -1.422 0
M  V30 6206 H 592.188 -2.51032 -1.55136 0
M  V30 6207 H 592.269 -2.54888 0.215783 0
M  V30 6208 H 591.913 -5.07664 0.154664 0
M  V30 6209 H 591.843 -5.00926 -1.6242 0
M  V30 6210 H 594.334 -3.69868 -0.77499 0
M  V30 6211 H 594.647 -7.66718 -0.967654 0
M  V30 6212 H 592.992 -6.89443 -0.877132 0
M  V30 6213 H 596.183 -4.59804 -0.877353 0
M  V30 6214 H 596.356 -6.40768 -0.965434 0
M  V30 6215 N 589.762 0.448376 -1.51087 0
M  V30 6216 C 590.987 1.22605 -1.6728 0
M  V30 6217 C 591.412 1.84524 -0.365045 0
M  V30 6218 O 590.77 1.6832 0.673642 0
M  V30 6219 C 590.818 2.29393 -2.78229 0
M  V30 6220 O 589.922 3.34608 -2.41063 0
M  V30 6221 H 589.263 0.359705 -0.558129 0
M  V30 6222 H 591.793 0.530903 -1.97592 0
M  V30 6223 H 591.803 2.74352 -3.01986 0
M  V30 6224 H 590.478 1.83701 -3.73131 0
M  V30 6225 H 589.055 2.95202 -2.27838 0
M  V30 6226 N 591.24 1.41047 0.703093 0
M  V30 6227 C 592.656 1.23351 1.01275 0
M  V30 6228 C 592.856 0.11754 2.01157 0
M  V30 6229 O 591.912 -0.520518 2.47077 0
M  V30 6230 C 593.225 2.58001 1.54454 0
M  V30 6231 C 594.773 2.65119 1.66376 0
M  V30 6232 C 595.248 4.00067 2.22958 0
M  V30 6233 N 596.739 4.01875 2.30328 0
M  V30 6234 C 597.474 5.03087 2.75119 0
M  V30 6235 N 596.97 6.14692 3.19571 0
M  V30 6236 N 598.763 4.90451 2.74616 0
M  V30 6237 H 590.914 2.1236 0.0412686 0
M  V30 6238 H 593.177 0.944543 0.08089 0
M  V30 6239 H 592.883 3.40378 0.88521 0
M  V30 6240 H 592.757 2.79962 2.52786 0
M  V30 6241 H 595.144 1.83106 2.31422 0
M  V30 6242 H 595.225 2.46975 0.666089 0
M  V30 6243 H 594.869 4.82526 1.58529 0
M  V30 6244 H 594.799 4.15547 3.23462 0
M  V30 6245 H 597.29 3.21291 1.98949 0
M  V30 6246 H 597.603 6.87799 3.52352 0
M  V30 6247 H 595.948 6.18239 3.17498 0
M  V30 6248 H 599.139 4.0235 2.39233 0
M  V30 6249 H 599.312 5.6947 3.09206 0
M  V30 6250 N 592.718 -0.936591 1.26751 0
M  V30 6251 C 593.628 -2.06949 1.10496 0
M  V30 6252 C 594.644 -1.7396 0.037271 0
M  V30 6253 O 595.82 -1.99941 0.241944 0
M  V30 6254 C 592.885 -3.38612 0.744491 0
M  V30 6255 C 591.946 -3.85355 1.89209 0
M  V30 6256 C 591.179 -5.10735 1.54873 0
M  V30 6257 O 591.402 -5.68602 0.452546 0
M  V30 6258 O 590.336 -5.52632 2.38499 0
M  V30 6259 H 594.162 -2.23571 2.05547 0
M  V30 6260 H 591.747 -1.05428 1.05855 0
M  V30 6261 H 593.629 -4.17711 0.556396 0
M  V30 6262 H 592.304 -3.23218 -0.176582 0
M  V30 6263 H 591.211 -3.07182 2.13518 0
M  V30 6264 H 592.544 -4.05277 2.79305 0
M  V30 6265 N 594.196 -1.08629 -1.14182 0
M  V30 6266 C 595.106 -0.730126 -2.22949 0
M  V30 6267 C 596.122 0.26436 -1.7198 0
M  V30 6268 O 597.298 0.107742 -2.01112 0
M  V30 6269 C 594.363 -0.147227 -3.46387 0
M  V30 6270 C 593.424 -1.19662 -4.12286 0
M  V30 6271 C 592.657 -0.641437 -5.29831 0
M  V30 6272 O 592.88 0.538351 -5.67854 0
M  V30 6273 O 591.814 -1.39257 -5.85569 0
M  V30 6274 H 595.64 -1.63753 -2.55771 0
M  V30 6275 H 593.225 -0.860118 -1.22157 0
M  V30 6276 H 595.107 0.174923 -4.21037 0
M  V30 6277 H 593.782 0.733304 -3.15285 0
M  V30 6278 H 592.689 -1.57133 -3.395 0
M  V30 6279 H 594.022 -2.0495 -4.475 0
M  V30 6280 N 595.674 1.31259 -0.872281 0
M  V30 6281 C 596.584 2.32221 -0.333255 0
M  V30 6282 C 597.6 1.6481 0.558013 0
M  V30 6283 O 598.776 1.96212 0.454175 0
M  V30 6284 C 595.841 3.43708 0.454479 0
M  V30 6285 C 594.902 4.26774 -0.465024 0
M  V30 6286 C 594.135 5.32937 0.28521 0
M  V30 6287 O 594.358 5.49968 1.513 0
M  V30 6288 O 593.292 6.00834 -0.358126 0
M  V30 6289 H 597.118 2.80252 -1.17016 0
M  V30 6290 H 594.703 1.352 -0.635724 0
M  V30 6291 H 596.585 4.11656 0.900963 0
M  V30 6292 H 595.26 2.97836 1.26789 0
M  V30 6293 H 594.167 3.61571 -0.960055 0
M  V30 6294 H 595.5 4.76217 -1.2441 0
M  V30 6295 N 597.152 0.631951 1.44375 0
M  V30 6296 C 598.082 -0.0593243 2.33425 0
M  V30 6297 C 599.063 -0.833964 1.48253 0
M  V30 6298 O 600.248 -0.799682 1.76971 0
M  V30 6299 C 597.378 -1.04096 3.31333 0
M  V30 6300 C 596.332 -0.377899 4.26328 0
M  V30 6301 C 595.658 -1.4695 5.14111 0
M  V30 6302 C 596.958 0.716371 5.17364 0
M  V30 6303 H 598.652 0.684287 2.91475 0
M  V30 6304 H 596.198 0.330518 1.40156 0
M  V30 6305 H 598.151 -1.53331 3.92514 0
M  V30 6306 H 596.875 -1.81547 2.71493 0
M  V30 6307 H 595.534 0.0938054 3.6648 0
M  V30 6308 H 595.182 -2.2349 4.50623 0
M  V30 6309 H 594.882 -1.03121 5.78481 0
M  V30 6310 H 596.406 -1.96363 5.78164 0
M  V30 6311 H 597.82 0.307089 5.72477 0
M  V30 6312 H 596.217 1.07784 5.90341 0
M  V30 6313 H 597.287 1.58316 4.58327 0
M  V30 6314 N 598.631 -1.53133 0.372548 0
M  V30 6315 C 599.561 -2.28876 -0.462412 0
M  V30 6316 C 600.542 -1.31583 -1.07796 0
M  V30 6317 O 601.727 -1.60461 -1.09389 0
M  V30 6318 C 598.857 -3.08317 -1.59868 0
M  V30 6319 C 597.811 -4.13355 -1.11003 0
M  V30 6320 C 597.137 -4.8092 -2.33708 0
M  V30 6321 C 598.437 -5.21955 -0.18983 0
M  V30 6322 H 600.131 -2.9892 0.169511 0
M  V30 6323 H 597.677 -1.43761 0.0829658 0
M  V30 6324 H 599.63 -3.60055 -2.18949 0
M  V30 6325 H 598.354 -2.35976 -2.25794 0
M  V30 6326 H 597.013 -3.62573 -0.541869 0
M  V30 6327 H 596.661 -4.05144 -2.98106 0
M  V30 6328 H 596.361 -5.51904 -2.01682 0
M  V30 6329 H 597.885 -5.35455 -2.93462 0
M  V30 6330 H 599.299 -5.69153 -0.688319 0
M  V30 6331 H 597.696 -6.00087 0.0398887 0
M  V30 6332 H 598.766 -4.78811 0.766057 0
M  V30 6333 N 600.109 -0.101901 -1.5727 0
M  V30 6334 C 601.525 0.254739 -1.57554 0
M  V30 6335 C 601.725 1.67937 -1.11352 0
M  V30 6336 O 600.781 2.39722 -0.793081 0
M  V30 6337 C 602.094 0.036975 -3.00677 0
M  V30 6338 C 603.642 0.104199 -3.12827 0
M  V30 6339 C 604.117 -0.0856565 -4.5792 0
M  V30 6340 N 605.608 -0.0310498 -4.6319 0
M  V30 6341 C 606.343 -0.153099 -5.73196 0
M  V30 6342 N 605.839 -0.330364 -6.92012 0
M  V30 6343 N 607.632 -0.0938854 -5.62022 0
M  V30 6344 H 599.783 -1.03263 -1.85609 0
M  V30 6345 H 602.046 -0.405251 -0.857016 0
M  V30 6346 H 601.752 -0.947254 -3.38703 0
M  V30 6347 H 601.626 0.776335 -3.69124 0
M  V30 6348 H 604.013 1.07894 -2.74669 0
M  V30 6349 H 604.094 -0.666762 -2.46957 0
M  V30 6350 H 603.738 -1.05729 -4.96773 0
M  V30 6351 H 603.668 0.705082 -5.21858 0
M  V30 6352 H 606.159 0.103141 -3.77759 0
M  V30 6353 H 606.472 -0.41482 -7.71686 0
M  V30 6354 H 604.817 -0.366119 -6.94035 0
M  V30 6355 H 608.008 0.0435168 -4.6808 0
M  V30 6356 H 608.181 -0.19245 -6.47714 0
M  V30 6357 N 601.587 1.56661 0.17182 0
M  V30 6358 C 602.55 1.9549 1.19651 0
M  V30 6359 C 603.55 0.838501 1.37207 0
M  V30 6360 O 604.74 1.10556 1.34622 0
M  V30 6361 C 601.872 2.24927 2.56166 0
M  V30 6362 H 603.065 2.87184 0.864007 0
M  V30 6363 H 600.618 1.50711 0.41425 0
M  V30 6364 H 601.353 1.35944 2.94431 0
M  V30 6365 H 601.138 3.06301 2.4479 0
M  V30 6366 H 602.628 2.55891 3.30014 0
M  V30 6367 N 603.065 -0.440357 1.51323 0
M  V30 6368 C 604.028 -1.51679 1.71832 0
M  V30 6369 C 605.028 -1.49648 0.588386 0
M  V30 6370 O 606.218 -1.51724 0.855891 0
M  V30 6371 C 603.35 -2.91228 1.77199 0
M  V30 6372 H 604.543 -1.34799 2.67898 0
M  V30 6373 H 602.096 -0.66883 1.41267 0
M  V30 6374 H 602.831 -3.13516 0.829363 0
M  V30 6375 H 602.616 -2.94107 2.59314 0
M  V30 6376 H 604.106 -3.69321 1.94915 0
M  V30 6377 N 604.543 -1.41418 -0.695603 0
M  V30 6378 C 605.475 -1.39195 -1.82092 0
M  V30 6379 C 606.488 -0.294132 -1.60121 0
M  V30 6380 O 607.677 -0.555854 -1.69625 0
M  V30 6381 C 604.777 -1.14828 -3.18854 0
M  V30 6382 C 603.95 -2.36649 -3.67853 0
M  V30 6383 C 603.009 -2.08139 -4.83285 0
M  V30 6384 O 602.035 -2.81177 -4.94902 0
M  V30 6385 N 603.237 -1.07162 -5.70523 0
M  V30 6386 H 606.002 -2.36185 -1.84491 0
M  V30 6387 H 603.563 -1.3603 -0.877923 0
M  V30 6388 H 605.555 -0.937075 -3.93702 0
M  V30 6389 H 604.125 -0.264358 -3.1148 0
M  V30 6390 H 603.345 -2.73472 -2.83913 0
M  V30 6391 H 604.633 -3.17816 -3.97329 0
M  V30 6392 H 604.031 -0.467124 -5.63768 0
M  V30 6393 H 602.588 -0.920311 -6.4527 0
M  V30 6394 N 606.021 0.929856 -1.27246 0
M  V30 6395 C 606.931 2.0636 -1.11592 0
M  V30 6396 C 607.947 1.73938 -0.046496 0
M  V30 6397 O 609.123 1.9981 -0.252544 0
M  V30 6398 C 606.188 3.38213 -0.762437 0
M  V30 6399 C 605.249 3.84346 -1.9125 0
M  V30 6400 C 604.482 5.09906 -1.57579 0
M  V30 6401 O 604.705 5.68354 -0.482694 0
M  V30 6402 O 603.639 5.51359 -2.41426 0
M  V30 6403 H 607.465 2.22478 -2.0673 0
M  V30 6404 H 605.05 1.04865 -1.06413 0
M  V30 6405 H 606.932 4.1741 -0.57854 0
M  V30 6406 H 605.607 3.23307 0.159439 0
M  V30 6407 H 604.514 3.06045 -2.15144 0
M  V30 6408 H 605.847 4.0379 -2.81451 0
M  V30 6409 N 607.499 1.09233 1.13605 0
M  V30 6410 C 608.431 0.687794 2.18637 0
M  V30 6411 C 609.444 -0.26936 1.60556 0
M  V30 6412 O 610.633 -0.0557162 1.78413 0
M  V30 6413 C 607.733 -0.00751901 3.38899 0
M  V30 6414 C 606.906 0.97067 4.26494 0
M  V30 6415 C 605.965 0.309129 5.25291 0
M  V30 6416 O 604.991 0.956149 5.61112 0
M  V30 6417 N 606.193 -0.937555 5.72879 0
M  V30 6418 H 608.958 1.59141 2.53957 0
M  V30 6419 H 606.519 0.979515 1.28907 0
M  V30 6420 H 608.511 -0.461238 4.02063 0
M  V30 6421 H 607.081 -0.813353 3.01833 0
M  V30 6422 H 606.301 1.603 3.60135 0
M  V30 6423 H 607.589 1.63323 4.81875 0
M  V30 6424 H 606.987 -1.48281 5.4592 0
M  V30 6425 H 605.544 -1.33463 6.3799 0
M  V30 6426 N 608.977 -1.30795 0.87923 0
M  V30 6427 C 610.393 -1.48981 0.57243 0
M  V30 6428 C 610.593 -1.80719 -0.891236 0
M  V30 6429 O 609.649 -1.89136 -1.67283 0
M  V30 6430 C 610.962 -2.61721 1.48063 0
M  V30 6431 C 612.51 -2.75603 1.48365 0
M  V30 6432 C 612.985 -3.91449 2.37763 0
M  V30 6433 N 614.476 -3.98751 2.35695 0
M  V30 6434 C 615.211 -4.87684 3.01583 0
M  V30 6435 N 614.707 -5.81454 3.76674 0
M  V30 6436 N 616.5 -4.81005 2.90844 0
M  V30 6437 H 608.651 -1.08465 1.82617 0
M  V30 6438 H 610.914 -0.536813 0.781368 0
M  V30 6439 H 610.62 -2.45073 2.52254 0
M  V30 6440 H 610.494 -3.58071 1.18596 0
M  V30 6441 H 612.881 -2.9166 0.44927 0
M  V30 6442 H 612.962 -1.79891 1.81859 0
M  V30 6443 H 612.606 -3.76149 3.41283 0
M  V30 6444 H 612.536 -4.86487 2.01589 0
M  V30 6445 H 615.027 -3.31668 1.81121 0
M  V30 6446 H 615.34 -6.46063 4.24054 0
M  V30 6447 H 613.685 -5.81403 3.80782 0
M  V30 6448 H 616.876 -4.06728 2.31711 0
M  V30 6449 H 617.049 -5.50107 3.42471 0
M  V30 6450 N 610.455 -0.639598 -1.44038 0
M  V30 6451 C 611.702 -0.14748 -2.01962 0
M  V30 6452 C 612.03 1.23372 -1.50365 0
M  V30 6453 O 611.285 1.8345 -0.681501 0
M  V30 6454 C 611.584 -0.0925348 -3.5728 0
M  V30 6455 C 611.25 -1.41365 -4.28167 0
M  V30 6456 C 609.912 -1.77545 -4.47248 0
M  V30 6457 C 612.264 -2.2853 -4.68427 0
M  V30 6458 C 609.592 -3.00583 -5.03852 0
M  V30 6459 C 611.944 -3.50846 -5.26393 0
M  V30 6460 C 610.608 -3.8724 -5.43692 0
M  V30 6461 H 609.878 -0.0539666 -0.739032 0
M  V30 6462 H 612.525 -0.827599 -1.72694 0
M  V30 6463 H 610.83 0.670987 -3.86012 0
M  V30 6464 H 612.527 0.304891 -3.99839 0
M  V30 6465 H 609.117 -1.1221 -4.13651 0
M  V30 6466 H 613.301 -2.0187 -4.5339 0
M  V30 6467 H 608.557 -3.28846 -5.15432 0
M  V30 6468 H 612.731 -4.18616 -5.56537 0
M  V30 6469 H 610.358 -4.8266 -5.87319 0
M  V30 6470 N 611.933 1.52934 -0.380664 0
M  V30 6471 C 612.865 2.23822 0.493581 0
M  V30 6472 C 613.878 1.25761 1.03383 0
M  V30 6473 O 615.067 1.5189 0.937633 0
M  V30 6474 C 612.167 2.9342 1.69582 0
M  V30 6475 C 611.34 4.18115 1.28445 0
M  V30 6476 C 610.399 4.70788 2.35042 0
M  V30 6477 O 609.425 5.34093 1.96807 0
M  V30 6478 N 610.627 4.49899 3.66839 0
M  V30 6479 H 613.392 2.99484 -0.11371 0
M  V30 6480 H 610.953 1.60577 -0.206587 0
M  V30 6481 H 612.945 3.2556 2.40401 0
M  V30 6482 H 611.515 2.21119 2.20965 0
M  V30 6483 H 610.735 3.92109 0.405503 0
M  V30 6484 H 612.023 4.99152 0.986132 0
M  V30 6485 H 611.421 3.99349 4.0067 0
M  V30 6486 H 609.978 4.86551 4.33718 0
M  V30 6487 N 613.412 0.11024 1.57214 0
M  V30 6488 C 614.322 -0.857077 2.18383 0
M  V30 6489 C 615.338 -1.29915 1.1575 0
M  V30 6490 O 616.514 -1.36394 1.48184 0
M  V30 6491 C 613.579 -2.09264 2.76423 0
M  V30 6492 C 612.64 -1.70333 3.94063 0
M  V30 6493 C 611.873 -2.87999 4.49324 0
M  V30 6494 O 612.096 -4.0317 4.03497 0
M  V30 6495 O 611.03 -2.6559 5.40135 0
M  V30 6496 H 614.856 -0.366561 3.0148 0
M  V30 6497 H 612.441 -0.114914 1.48957 0
M  V30 6498 H 614.323 -2.81644 3.13456 0
M  V30 6499 H 612.998 -2.57339 1.96363 0
M  V30 6500 H 611.905 -0.950864 3.61814 0
M  V30 6501 H 613.238 -1.27007 4.75531 0
M  V30 6502 N 614.89 -1.56749 -0.16351 0
M  V30 6503 C 615.8 -2.00255 -1.2221 0
M  V30 6504 C 616.816 -0.915194 -1.47987 0
M  V30 6505 O 617.992 -1.22342 -1.59982 0
M  V30 6506 C 615.057 -2.36035 -2.53946 0
M  V30 6507 C 614.118 -3.58637 -2.35962 0
M  V30 6508 C 613.351 -3.92701 -3.61416 0
M  V30 6509 O 613.574 -3.27632 -4.66919 0
M  V30 6510 O 612.508 -4.86019 -3.55062 0
M  V30 6511 H 616.334 -2.90586 -0.882794 0
M  V30 6512 H 613.919 -1.44721 -0.370978 0
M  V30 6513 H 615.801 -2.59982 -3.31643 0
M  V30 6514 H 614.476 -1.48863 -2.8744 0
M  V30 6515 H 613.383 -3.39898 -1.5627 0
M  V30 6516 H 614.716 -4.46374 -2.0739 0
M  V30 6517 N 616.368 0.432326 -1.51554 0
M  V30 6518 C 617.3 1.54357 -1.6943 0
M  V30 6519 C 618.313 1.52311 -0.574897 0
M  V30 6520 O 619.502 1.56997 -0.849369 0
M  V30 6521 C 616.602 2.93273 -1.69836 0
M  V30 6522 C 615.775 3.19768 -2.98442 0
M  V30 6523 C 614.834 4.38433 -2.90969 0
M  V30 6524 O 613.86 4.36842 -3.64908 0
M  V30 6525 N 615.062 5.42276 -2.07163 0
M  V30 6526 H 617.827 1.39426 -2.65293 0
M  V30 6527 H 615.388 0.621331 -1.49503 0
M  V30 6528 H 617.38 3.70687 -1.62399 0
M  V30 6529 H 615.95 3.01777 -0.815456 0
M  V30 6530 H 615.17 2.30607 -3.19709 0
M  V30 6531 H 616.458 3.343 -3.83563 0
M  V30 6532 H 615.856 5.46407 -1.46477 0
M  V30 6533 H 614.413 6.18524 -2.05601 0
M  V30 6534 N 617.846 1.41785 0.688094 0
M  V30 6535 C 618.776 1.47 1.8142 0
M  V30 6536 C 619.757 0.327881 1.6691 0
M  V30 6537 O 620.942 0.540362 1.86531 0
M  V30 6538 C 618.072 1.35876 3.19617 0
M  V30 6539 C 617.026 2.47976 3.48844 0
M  V30 6540 C 616.352 2.21915 4.86475 0
M  V30 6541 C 617.652 3.90309 3.47068 0
M  V30 6542 H 619.346 2.41247 1.77314 0
M  V30 6543 H 616.892 1.16116 0.851651 0
M  V30 6544 H 618.845 1.38134 3.98117 0
M  V30 6545 H 617.569 0.38116 3.24368 0
M  V30 6546 H 616.228 2.45013 2.72698 0
M  V30 6547 H 615.876 1.2248 4.8786 0
M  V30 6548 H 615.576 2.97037 5.06994 0
M  V30 6549 H 617.1 2.25901 5.67275 0
M  V30 6550 H 618.514 3.94947 4.1556 0
M  V30 6551 H 616.911 4.65175 3.7912 0
M  V30 6552 H 617.981 4.17927 2.45896 0
M  V30 6553 N 619.324 -0.923095 1.27737 0
M  V30 6554 C 620.74 -1.19985 1.05241 0
M  V30 6555 C 620.94 -2.00391 -0.21113 0
M  V30 6556 O 619.996 -2.35324 -0.915366 0
M  V30 6557 C 621.309 -1.94352 2.29451 0
M  V30 6558 C 622.857 -2.07273 2.34536 0
M  V30 6559 C 623.332 -2.85046 3.58487 0
M  V30 6560 N 624.823 -2.92612 3.59072 0
M  V30 6561 C 625.558 -3.53266 4.51654 0
M  V30 6562 N 625.054 -4.15274 5.54545 0
M  V30 6563 N 626.847 -3.50714 4.39268 0
M  V30 6564 H 618.998 -0.386042 2.08862 0
M  V30 6565 H 621.261 -0.233407 0.918817 0
M  V30 6566 H 620.967 -1.42692 3.21453 0
M  V30 6567 H 620.841 -2.94947 2.3513 0
M  V30 6568 H 623.228 -2.58117 1.43037 0
M  V30 6569 H 623.309 -1.05884 2.32857 0
M  V30 6570 H 622.953 -2.34884 4.50324 0
M  V30 6571 H 622.883 -3.8673 3.57418 0
M  V30 6572 H 625.374 -2.48547 2.84663 0
M  V30 6573 H 625.687 -4.59507 6.21348 0
M  V30 6574 H 624.032 -4.13806 5.58382 0
M  V30 6575 H 627.223 -3.01475 3.58093 0
M  V30 6576 H 627.396 -3.97693 5.1161 0
M  V30 6577 N 620.802 -1.09834 -1.13024 0
M  V30 6578 C 622.218 -0.828875 -1.36388 0
M  V30 6579 C 622.418 0.554756 -1.93713 0
M  V30 6580 O 621.474 1.30882 -2.15931 0
M  V30 6581 C 622.787 -1.92352 -2.3113 0
M  V30 6582 C 624.335 -1.95124 -2.44735 0
M  V30 6583 C 624.81 -3.03745 -3.42787 0
M  V30 6584 N 626.301 -3.03012 -3.5034 0
M  V30 6585 C 627.036 -3.83699 -4.26101 0
M  V30 6586 N 626.532 -4.74306 -5.04981 0
M  V30 6587 N 628.325 -3.71942 -4.21445 0
M  V30 6588 H 620.476 -1.99029 -0.74169 0
M  V30 6589 H 622.739 -0.864557 -0.388903 0
M  V30 6590 H 622.445 -2.91906 -1.96172 0
M  V30 6591 H 622.319 -1.80536 -3.3119 0
M  V30 6592 H 624.706 -0.962069 -2.78977 0
M  V30 6593 H 624.787 -2.11018 -1.44586 0
M  V30 6594 H 624.431 -4.02878 -3.09276 0
M  V30 6595 H 624.361 -2.85094 -4.42752 0
M  V30 6596 H 626.852 -2.37352 -2.94062 0
M  V30 6597 H 627.165 -5.32446 -5.60108 0
M  V30 6598 H 625.51 -4.78339 -5.04199 0
M  V30 6599 H 628.701 -3.00513 -3.589 0
M  V30 6600 H 628.874 -4.35062 -4.80235 0
M  V30 6601 N 622.28 1.30327 -0.886154 0
M  V30 6602 C 623.696 1.48676 -0.580323 0
M  V30 6603 C 623.896 1.81189 0.881639 0
M  V30 6604 O 622.952 1.90021 1.66278 0
M  V30 6605 C 624.265 2.60932 -1.49449 0
M  V30 6606 C 625.813 2.74812 -1.49824 0
M  V30 6607 C 626.288 3.90183 -2.39836 0
M  V30 6608 N 627.779 3.97495 -2.37806 0
M  V30 6609 C 628.514 4.86078 -3.04165 0
M  V30 6610 N 628.01 5.79448 -3.79753 0
M  V30 6611 N 629.803 4.79456 -2.93391 0
M  V30 6612 H 621.954 1.07495 -1.8319 0
M  V30 6613 H 624.217 0.532661 -0.784204 0
M  V30 6614 H 623.923 2.43731 -2.5355 0
M  V30 6615 H 623.797 3.57437 -1.20494 0
M  V30 6616 H 626.184 2.91418 -0.464731 0
M  V30 6617 H 626.265 1.78924 -1.82811 0
M  V30 6618 H 625.909 3.74334 -3.43273 0
M  V30 6619 H 625.839 4.85411 -2.04166 0
M  V30 6620 H 628.33 3.30703 -1.82877 0
M  V30 6621 H 628.643 6.43805 -4.27475 0
M  V30 6622 H 626.988 5.79376 -3.8386 0
M  V30 6623 H 630.179 4.05494 -2.33864 0
M  V30 6624 H 630.352 5.48283 -3.45383 0
M  V30 6625 N 623.758 0.647228 1.43697 0
M  V30 6626 C 624.668 -0.0487997 2.34549 0
M  V30 6627 C 625.684 -0.818586 1.53542 0
M  V30 6628 O 626.86 -0.767195 1.86215 0
M  V30 6629 C 623.925 -1.00734 3.31743 0
M  V30 6630 C 622.986 -0.23515 4.28655 0
M  V30 6631 C 622.219 -1.14803 5.21206 0
M  V30 6632 O 622.442 -2.38717 5.18045 0
M  V30 6633 O 621.376 -0.623667 5.9866 0
M  V30 6634 H 625.202 0.698863 2.9555 0
M  V30 6635 H 622.787 0.407412 1.43738 0
M  V30 6636 H 624.669 -1.55837 3.91526 0
M  V30 6637 H 623.344 -1.73534 2.73254 0
M  V30 6638 H 622.251 0.359319 3.7237 0
M  V30 6639 H 623.584 0.453152 4.9011 0
M  V30 6640 N 625.236 -1.5273 0.388769 0
M  V30 6641 C 626.168 -2.24081 -0.481704 0
M  V30 6642 C 627.181 -1.26307 -1.02715 0
M  V30 6643 O 628.37 -1.52386 -0.929565 0
M  V30 6644 C 625.47 -2.94315 -1.68024 0
M  V30 6645 C 624.643 -4.18791 -1.26226 0
M  V30 6646 C 623.702 -4.72028 -2.32542 0
M  V30 6647 O 622.728 -5.35129 -1.93972 0
M  V30 6648 N 623.93 -4.51838 -3.64448 0
M  V30 6649 H 626.695 -2.9942 0.129591 0
M  V30 6650 H 624.256 -1.60465 0.2151 0
M  V30 6651 H 626.248 -3.26831 -2.38671 0
M  V30 6652 H 624.818 -2.22287 -2.19789 0
M  V30 6653 H 624.038 -3.92318 -0.384703 0
M  V30 6654 H 625.326 -4.99668 -0.959647 0
M  V30 6655 H 624.724 -4.01468 -3.98547 0
M  V30 6656 H 623.281 -4.88845 -4.31131 0
M  V30 6657 N 626.714 -0.118576 -1.57153 0
M  V30 6658 C 627.624 0.845484 -2.18835 0
M  V30 6659 C 628.64 1.29299 -1.16438 0
M  V30 6660 O 629.816 1.35607 -1.48905 0
M  V30 6661 C 626.881 2.07795 -2.77529 0
M  V30 6662 C 625.942 1.6824 -3.9496 0
M  V30 6663 C 625.175 2.85612 -4.50845 0
M  V30 6664 O 625.398 4.01025 -4.05629 0
M  V30 6665 O 624.332 2.62721 -5.41536 0
M  V30 6666 H 628.158 0.350568 -3.0167 0
M  V30 6667 H 625.743 0.107013 -1.49016 0
M  V30 6668 H 627.625 2.79978 -3.14945 0
M  V30 6669 H 626.3 2.56294 -1.97725 0
M  V30 6670 H 625.207 0.931663 -3.62313 0
M  V30 6671 H 626.54 1.24484 -4.76198 0
M  V30 6672 N 628.193 1.56834 0.155195 0
M  V30 6673 C 629.123 2.00678 1.19376 0
M  V30 6674 C 630.104 0.884973 1.45266 0
M  V30 6675 O 631.289 1.1522 1.56326 0
M  V30 6676 C 628.419 2.38042 2.5289 0
M  V30 6677 C 627.373 3.53332 2.41538 0
M  V30 6678 C 626.699 3.76485 3.79688 0
M  V30 6679 C 627.999 4.86265 1.9064 0
M  V30 6680 H 629.693 2.87688 0.829232 0
M  V30 6681 H 627.239 1.38407 0.397445 0
M  V30 6682 H 629.192 2.67314 3.25763 0
M  V30 6683 H 627.916 1.4796 2.91162 0
M  V30 6684 H 626.575 3.24213 1.71117 0
M  V30 6685 H 626.223 2.83667 4.15382 0
M  V30 6686 H 625.923 4.54068 3.72956 0
M  V30 6687 H 627.447 4.08174 4.54122 0
M  V30 6688 H 628.861 5.14308 2.53299 0
M  V30 6689 H 627.258 5.67597 1.94818 0
M  V30 6690 H 628.328 4.77184 0.861596 0
M  V30 6691 N 629.671 -0.424282 1.51781 0
M  V30 6692 C 630.634 -1.49848 1.73431 0
M  V30 6693 C 631.634 -1.49016 0.604225 0
M  V30 6694 O 632.824 -1.50808 0.871935 0
M  V30 6695 C 629.956 -2.89332 1.80277 0
M  V30 6696 H 631.149 -1.3195 2.69312 0
M  V30 6697 H 628.702 -0.653809 1.41968 0
M  V30 6698 H 629.437 -3.12618 0.862568 0
M  V30 6699 H 629.222 -2.9134 2.62419 0
M  V30 6700 H 630.712 -3.67233 1.98821 0
M  V30 6701 N 631.149 -1.42148 -0.680565 0
M  V30 6702 C 632.059 -1.47565 -1.82378 0
M  V30 6703 C 633.075 -0.36489 -1.70131 0
M  V30 6704 O 634.251 -0.614916 -1.91783 0
M  V30 6705 C 631.316 -1.37013 -3.18478 0
M  V30 6706 C 630.377 -2.58532 -3.42724 0
M  V30 6707 C 629.61 -2.48473 -4.72331 0
M  V30 6708 O 629.833 -1.51745 -5.49845 0
M  V30 6709 O 628.767 -3.38503 -4.97694 0
M  V30 6710 H 632.593 -2.44045 -1.80764 0
M  V30 6711 H 630.178 -1.23849 -0.835569 0
M  V30 6712 H 632.06 -1.33468 -3.99705 0
M  V30 6713 H 630.735 -0.436552 -3.20743 0
M  V30 6714 H 629.642 -2.67652 -2.61368 0
M  V30 6715 H 630.975 -3.50769 -3.45286 0
M  V30 6716 N 632.627 0.916307 -1.28225 0
M  V30 6717 C 634.043 1.19425 -1.05876 0
M  V30 6718 C 634.243 2.005 0.2005 0
M  V30 6719 O 633.299 2.35806 0.902873 0
M  V30 6720 C 634.612 1.93133 -2.30478 0
M  V30 6721 C 636.16 2.06026 -2.35632 0
M  V30 6722 C 636.635 2.83141 -3.59994 0
M  V30 6723 N 638.126 2.90704 -3.60618 0
M  V30 6724 C 638.861 3.50865 -4.53521 0
M  V30 6725 N 638.357 4.12327 -5.56739 0
M  V30 6726 N 640.15 3.48379 -4.41122 0
M  V30 6727 H 632.301 0.37496 -2.09064 0
M  V30 6728 H 634.564 0.228531 -0.920042 0
M  V30 6729 H 634.27 1.40985 -3.22205 0
M  V30 6730 H 634.144 2.93696 -2.36691 0
M  V30 6731 H 636.531 2.57355 -1.44404 0
M  V30 6732 H 636.612 1.04647 -2.33415 0
M  V30 6733 H 636.256 2.32492 -4.51564 0
M  V30 6734 H 636.186 3.84829 -3.59464 0
M  V30 6735 H 638.677 2.47034 -2.85977 0
M  V30 6736 H 638.99 4.56205 -6.23776 0
M  V30 6737 H 637.335 4.10839 -5.60568 0
M  V30 6738 H 640.526 2.99572 -3.59686 0
M  V30 6739 H 640.699 3.94974 -5.13712 0
M  V30 6740 N 634.105 1.10431 1.1244 0
M  V30 6741 C 635.015 0.765502 2.21759 0
M  V30 6742 C 636.031 -0.236966 1.72379 0
M  V30 6743 O 637.207 -0.0757329 2.01258 0
M  V30 6744 C 634.272 0.202316 3.46109 0
M  V30 6745 C 633.333 1.26205 4.1033 0
M  V30 6746 C 632.566 0.725648 5.28744 0
M  V30 6747 O 632.789 -0.447942 5.68638 0
M  V30 6748 O 631.723 1.48555 5.83279 0
M  V30 6749 H 635.549 1.67801 2.53133 0
M  V30 6750 H 633.134 0.879443 1.20773 0
M  V30 6751 H 635.016 -0.107918 4.21262 0
M  V30 6752 H 633.691 -0.683052 3.16411 0
M  V30 6753 H 632.598 1.62514 3.36957 0
M  V30 6754 H 633.931 2.12044 4.44183 0
M  V30 6755 N 635.583 -1.29855 0.893053 0
M  V30 6756 C 636.516 -2.26079 0.3104 0
M  V30 6757 C 637.494 -1.52145 -0.573644 0
M  V30 6758 O 638.678 -1.8113 -0.521937 0
M  V30 6759 C 635.805 -3.34069 -0.558179 0
M  V30 6760 C 634.851 -4.25721 0.257638 0
M  V30 6761 S 635.684 -5.09409 1.65114 0
M  V30 6762 C 636.84 -6.20903 0.789307 0
M  V30 6763 H 637.073 -2.75151 1.12602 0
M  V30 6764 H 634.606 -1.37975 0.692978 0
M  V30 6765 H 636.564 -3.9675 -1.05355 0
M  V30 6766 H 635.225 -2.83705 -1.34797 0
M  V30 6767 H 634.418 -5.02366 -0.405562 0
M  V30 6768 H 634.02 -3.67656 0.685917 0
M  V30 6769 H 636.312 -6.77499 0.00978451 0
M  V30 6770 H 637.255 -6.91426 1.52762 0
M  V30 6771 H 637.663 -5.63435 0.346634 0
M  V30 6772 N 637.061 -0.65484 -1.43351 0
M  V30 6773 C 638.338 -0.0987371 -1.95351 0
M  V30 6774 C 638.718 1.38161 -1.59608 0
M  V30 6775 O 638.066 2.10791 -0.882021 0
M  V30 6776 C 638.276 -0.346684 -3.47274 0
M  V30 6777 C 639.624 -0.25249 -4.23849 0
M  V30 6778 O 640.648 -0.279332 -3.55103 0
M  V30 6779 O 639.507 -0.177584 -5.46211 0
M  V30 6780 H 636.601 0.0086829 -0.826954 0
M  V30 6781 H 639.147 -0.728189 -1.53282 0
M  V30 6782 H 637.919 -1.37296 -3.66423 0
M  V30 6783 H 637.542 0.315757 -3.96344 0
M  V30 6784 N 638.539 1.52521 -0.396863 0
M  V30 6785 C 639.788 2.00857 0.184184 0
M  V30 6786 C 640.101 1.28733 1.47265 0
M  V30 6787 O 641.307 1.67821 2.13421 0
M  V30 6788 C 639.763 3.57901 0.378787 0
M  V30 6789 C 639.371 4.38931 -0.896873 0
M  V30 6790 C 641.115 4.14504 0.915789 0
M  V30 6791 C 639.022 5.87591 -0.670133 0
M  V30 6792 H 637.952 0.750496 0.0726055 0
M  V30 6793 H 640.603 1.75965 -0.520425 0
M  V30 6794 H 638.985 3.79072 1.14543 0
M  V30 6795 H 640.159 4.29524 -1.66872 0
M  V30 6796 H 638.474 3.93586 -1.35938 0
M  V30 6797 H 641.071 5.23236 1.10126 0
M  V30 6798 H 641.414 3.71076 1.88701 0
M  V30 6799 H 641.947 3.97253 0.208523 0
M  V30 6800 H 638.686 6.35355 -1.61257 0
M  V30 6801 H 638.206 5.99767 0.0626368 0
M  V30 6802 H 639.885 6.46268 -0.307577 0
M  V30 6803 N 640.017 0.126909 1.57088 0
M  V30 6804 C 641.263 -0.529952 1.95753 0
M  V30 6805 C 641.596 -1.65823 1.01077 0
M  V30 6806 O 640.871 -1.94437 0.0494162 0
M  V30 6807 C 641.154 -1.05517 3.44294 0
M  V30 6808 C 641.007 0.0702253 4.49745 0
M  V30 6809 C 642.326 -1.9435 3.94862 0
M  V30 6810 H 639.445 -0.191168 0.711775 0
M  V30 6811 H 642.087 0.204071 1.88901 0
M  V30 6812 H 640.237 -1.68069 3.50264 0
M  V30 6813 H 641.909 0.705834 4.55868 0
M  V30 6814 H 640.152 0.732259 4.27575 0
M  V30 6815 H 640.823 -0.338642 5.5096 0
M  V30 6816 H 643.299 -1.41658 3.91244 0
M  V30 6817 H 642.175 -2.28015 4.993 0
M  V30 6818 H 642.436 -2.87299 3.36024 0
M  V30 6819 N 641.495 -1.56914 -0.146875 0
M  V30 6820 C 642.405 -2.0154 -1.20079 0
M  V30 6821 C 643.421 -0.930838 -1.47008 0
M  V30 6822 O 644.597 -1.24032 -1.58676 0
M  V30 6823 C 641.662 -2.38715 -2.51428 0
M  V30 6824 C 640.723 -3.6112 -2.32145 0
M  V30 6825 C 639.956 -3.96512 -3.57231 0
M  V30 6826 O 640.179 -3.32566 -4.63418 0
M  V30 6827 O 639.113 -4.89758 -3.49887 0
M  V30 6828 H 642.939 -2.91506 -0.851924 0
M  V30 6829 H 640.524 -1.45106 -0.355607 0
M  V30 6830 H 642.406 -2.63485 -3.28867 0
M  V30 6831 H 641.081 -1.51903 -2.85845 0
M  V30 6832 H 639.988 -3.41536 -1.52656 0
M  V30 6833 H 641.321 -4.48549 -2.02644 0
M  V30 6834 N 642.974 0.416227 -1.52004 0
M  V30 6835 C 644.39 0.754319 -1.40649 0
M  V30 6836 C 644.59 1.95059 -0.505392 0
M  V30 6837 O 643.646 2.5248 0.0315057 0
M  V30 6838 C 644.959 1.0149 -2.83055 0
M  V30 6839 C 646.507 1.11805 -2.9235 0
M  V30 6840 C 646.982 1.41144 -4.35709 0
M  V30 6841 N 648.473 1.48024 -4.38911 0
M  V30 6842 C 649.208 1.72338 -5.46889 0
M  V30 6843 N 648.704 1.94303 -6.64995 0
M  V30 6844 N 650.497 1.74294 -5.34395 0
M  V30 6845 H 642.648 -0.371324 -2.09129 0
M  V30 6846 H 644.911 -0.103811 -0.942299 0
M  V30 6847 H 644.617 0.208345 -3.51082 0
M  V30 6848 H 644.491 1.93697 -3.23668 0
M  V30 6849 H 646.878 1.91521 -2.24508 0
M  V30 6850 H 646.959 0.17451 -2.55204 0
M  V30 6851 H 646.603 0.619484 -5.04108 0
M  V30 6852 H 646.533 2.36739 -4.70385 0
M  V30 6853 H 649.024 1.32868 -3.53772 0
M  V30 6854 H 649.337 2.12286 -7.43071 0
M  V30 6855 H 647.682 1.91582 -6.68073 0
M  V30 6856 H 650.873 1.56667 -4.41104 0
M  V30 6857 H 651.046 1.92904 -6.18621 0
M  V30 6858 N 644.452 1.42507 0.673017 0
M  V30 6859 C 645.362 1.4853 1.81593 0
M  V30 6860 C 646.378 0.373907 1.69935 0
M  V30 6861 O 647.554 0.625078 1.91454 0
M  V30 6862 C 644.619 1.387 3.17747 0
M  V30 6863 C 643.68 2.60346 3.41348 0
M  V30 6864 C 642.913 2.50975 4.71007 0
M  V30 6865 O 643.136 1.54659 5.49033 0
M  V30 6866 O 642.07 3.41138 4.95892 0
M  V30 6867 H 645.896 2.45001 1.79467 0
M  V30 6868 H 643.481 1.2429 0.82899 0
M  V30 6869 H 645.363 1.35586 3.98992 0
M  V30 6870 H 644.038 0.453555 3.20507 0
M  V30 6871 H 642.945 2.69034 2.59945 0
M  V30 6872 H 644.278 3.52595 3.43421 0
M  V30 6873 N 645.93 -0.909495 1.28709 0
M  V30 6874 C 646.86 -2.0291 1.15542 0
M  V30 6875 C 647.841 -1.7002 0.0521017 0
M  V30 6876 O 649.026 -1.92835 0.229849 0
M  V30 6877 C 646.156 -3.37458 0.820935 0
M  V30 6878 C 645.11 -3.84524 1.87949 0
M  V30 6879 C 644.436 -5.16086 1.39854 0
M  V30 6880 C 645.736 -4.05918 3.28676 0
M  V30 6881 H 647.43 -2.14183 2.09203 0
M  V30 6882 H 644.976 -1.02913 1.00722 0
M  V30 6883 H 646.929 -4.1528 0.715571 0
M  V30 6884 H 645.653 -3.26249 -0.151374 0
M  V30 6885 H 644.312 -3.08911 1.97408 0
M  V30 6886 H 643.96 -5.01284 0.41518 0
M  V30 6887 H 643.66 -5.48547 2.1064 0
M  V30 6888 H 645.184 -5.96459 1.30649 0
M  V30 6889 H 646.598 -4.74252 3.22115 0
M  V30 6890 H 644.995 -4.49717 3.97334 0
M  V30 6891 H 646.065 -3.10583 3.72379 0
M  V30 6892 N 647.408 -1.11026 -1.11852 0
M  V30 6893 C 648.358 -0.733836 -2.15868 0
M  V30 6894 C 649.342 0.26001 -1.58785 0
M  V30 6895 O 650.534 0.0677901 -1.7687 0
M  V30 6896 C 647.663 -0.173948 -3.42859 0
M  V30 6897 C 646.749 -1.1952 -4.0691 0
M  V30 6898 N 647.14 -2.38797 -4.45881 0
M  V30 6899 C 645.438 -1.03714 -4.33773 0
M  V30 6900 C 646.139 -3.03894 -4.96007 0
M  V30 6901 N 645.115 -2.31389 -4.91894 0
M  V30 6902 H 648.917 -1.64171 -2.43773 0
M  V30 6903 H 646.431 -0.988877 -1.28822 0
M  V30 6904 H 648.428 0.113836 -4.16745 0
M  V30 6905 H 647.088 0.728568 -3.16421 0
M  V30 6906 H 648.099 -2.76281 -4.38051 0
M  V30 6907 H 644.776 -0.190694 -4.17064 0
M  V30 6908 H 646.166 -4.05389 -5.35826 0
M  V30 6909 N 648.886 1.2938 -0.899927 0
M  V30 6910 C 649.816 2.30144 -0.39446 0
M  V30 6911 C 650.797 1.61611 0.530639 0
M  V30 6912 O 651.982 1.89119 0.441319 0
M  V30 6913 C 649.112 3.45229 0.37868 0
M  V30 6914 C 648.066 4.25564 -0.456012 0
M  V30 6915 C 647.392 5.32848 0.444637 0
M  V30 6916 C 648.692 4.93651 -1.70605 0
M  V30 6917 H 650.386 2.72673 -1.23653 0
M  V30 6918 H 647.932 1.31086 -0.596034 0
M  V30 6919 H 649.885 4.14797 0.743037 0
M  V30 6920 H 648.609 3.01545 1.25453 0
M  V30 6921 H 647.268 3.57704 -0.802704 0
M  V30 6922 H 646.916 4.85408 1.31863 0
M  V30 6923 H 646.616 5.87497 -0.110154 0
M  V30 6924 H 648.14 6.05268 0.805182 0
M  V30 6925 H 649.554 5.55655 -1.41141 0
M  V30 6926 H 647.951 5.58233 -2.20217 0
M  V30 6927 H 649.021 4.18926 -2.4419 0
M  V30 6928 N 650.364 0.662433 1.43002 0
M  V30 6929 C 651.294 -0.00979809 2.33498 0
M  V30 6930 C 652.275 -0.802329 1.49989 0
M  V30 6931 O 653.46 -0.761964 1.78627 0
M  V30 6932 C 650.59 -0.970446 3.33466 0
M  V30 6933 C 649.544 -0.287383 4.27034 0
M  V30 6934 C 648.87 -1.36012 5.17112 0
M  V30 6935 C 650.17 0.82595 5.15728 0
M  V30 6936 H 651.864 0.745959 2.89958 0
M  V30 6937 H 649.41 0.360172 1.39423 0
M  V30 6938 H 651.363 -1.44971 3.95679 0
M  V30 6939 H 650.087 -1.75748 2.75282 0
M  V30 6940 H 648.746 0.17152 3.66199 0
M  V30 6941 H 648.394 -2.13882 4.55262 0
M  V30 6942 H 648.094 -0.908276 5.80538 0
M  V30 6943 H 649.618 -1.84056 5.82199 0
M  V30 6944 H 651.032 0.42845 5.71697 0
M  V30 6945 H 649.429 1.20282 5.87922 0
M  V30 6946 H 650.499 1.68003 4.54866 0
M  V30 6947 N 651.842 -1.52309 0.404946 0
M  V30 6948 C 652.775 -2.23369 -0.467087 0
M  V30 6949 C 653.753 -1.24034 -1.0514 0
M  V30 6950 O 654.937 -1.53071 -1.10006 0
M  V30 6951 C 652.064 -2.95906 -1.64795 0
M  V30 6952 C 651.11 -4.09637 -1.18743 0
M  V30 6953 S 651.943 -5.35273 -0.156022 0
M  V30 6954 C 653.099 -6.11337 -1.34231 0
M  V30 6955 H 653.332 -2.96987 0.136294 0
M  V30 6956 H 650.865 -1.53236 0.189219 0
M  V30 6957 H 652.823 -3.38304 -2.3251 0
M  V30 6958 H 651.484 -2.21937 -2.22267 0
M  V30 6959 H 650.677 -4.59549 -2.06955 0
M  V30 6960 H 650.279 -3.69333 -0.588981 0
M  V30 6961 H 652.571 -6.38458 -2.26665 0
M  V30 6962 H 653.514 -7.02563 -0.883804 0
M  V30 6963 H 653.922 -5.42338 -1.56621 0
M  V30 6964 N 653.32 -0.135238 -1.57019 0
M  V30 6965 C 654.56 0.521686 -1.9763 0
M  V30 6966 C 654.924 1.62804 -1.01778 0
M  V30 6967 O 656.125 2.345 -1.31389 0
M  V30 6968 C 654.396 1.0257 -3.42365 0
M  V30 6969 S 655.955 1.68888 -4.04997 0
M  V30 6970 H 652.773 0.169064 -0.690607 0
M  V30 6971 H 655.375 -0.224168 -1.94211 0
M  V30 6972 H 654.079 0.209556 -4.09865 0
M  V30 6973 H 653.61 1.80645 -3.49472 0
M  V30 6974 H 655.625 2.97554 -3.97084 0
M  V30 6975 N 654.798 1.5699 0.138552 0
M  V30 6976 C 655.73 1.95515 1.1961 0
M  V30 6977 C 656.743 0.852002 1.38726 0
M  V30 6978 O 657.932 1.13038 1.38147 0
M  V30 6979 C 655.032 2.2213 2.55952 0
M  V30 6980 C 654.205 3.53424 2.57702 0
M  V30 6981 C 653.264 3.6848 3.75645 0
M  V30 6982 O 652.29 4.4079 3.60129 0
M  V30 6983 N 653.492 3.05777 4.93438 0
M  V30 6984 H 656.257 2.86838 0.868557 0
M  V30 6985 H 653.818 1.58542 0.328033 0
M  V30 6986 H 655.81 2.29435 3.33379 0
M  V30 6987 H 654.38 1.3703 2.80965 0
M  V30 6988 H 653.6 3.57484 1.6613 0
M  V30 6989 H 654.888 4.39759 2.55909 0
M  V30 6990 H 654.286 2.46961 5.08947 0
M  V30 6991 H 652.843 3.18631 5.6861 0
M  V30 6992 N 656.276 -0.40816 1.52223 0
M  V30 6993 C 657.206 -1.5042 1.78595 0
M  V30 6994 C 658.187 -1.57723 0.636974 0
M  V30 6995 O 659.372 -1.72982 0.882664 0
M  V30 6996 C 656.502 -2.88232 1.93751 0
M  V30 6997 C 655.456 -2.95779 3.09352 0
M  V30 6998 C 654.782 -4.35855 3.09732 0
M  V30 6999 C 656.082 -2.67175 4.48793 0
M  V30 7000 H 657.776 -1.28601 2.70374 0
M  V30 7001 H 655.322 -0.617221 1.30101 0
M  V30 7002 H 657.275 -3.64895 2.10783 0
M  V30 7003 H 655.999 -3.11347 0.986443 0
M  V30 7004 H 654.658 -2.21561 2.92072 0
M  V30 7005 H 654.306 -4.55981 2.12346 0
M  V30 7006 H 654.006 -4.41829 3.87377 0
M  V30 7007 H 655.53 -5.14451 3.28895 0
M  V30 7008 H 656.944 -3.3356 4.66273 0
M  V30 7009 H 655.341 -2.84523 5.28362 0
M  V30 7010 H 656.411 -1.62609 4.56822 0
M  V30 7011 N 657.755 -1.42862 -0.66545 0
M  V30 7012 C 658.98 -1.47456 -1.45848 0
M  V30 7013 C 659.405 -0.0900312 -1.87884 0
M  V30 7014 O 658.763 0.913587 -1.56599 0
M  V30 7015 C 658.811 -2.41514 -2.67774 0
M  V30 7016 O 657.915 -1.89296 -3.66389 0
M  V30 7017 H 657.256 -0.499236 -0.437789 0
M  V30 7018 H 659.786 -1.8765 -0.815394 0
M  V30 7019 H 659.796 -2.58409 -3.15735 0
M  V30 7020 H 658.471 -3.42099 -2.36519 0
M  V30 7021 H 657.048 -1.82003 -3.25468 0
M  V30 7022 N 659.233 0.902656 -1.29189 0
M  V30 7023 C 660.165 2.01149 -1.09872 0
M  V30 7024 C 661.178 1.62732 -0.0471046 0
M  V30 7025 O 662.367 1.76107 -0.29132 0
M  V30 7026 C 659.467 3.32612 -0.649818 0
M  V30 7027 C 658.64 3.99574 -1.7793 0
M  V30 7028 C 657.699 5.09325 -1.32191 0
M  V30 7029 O 656.725 5.31919 -2.02611 0
M  V30 7030 N 657.927 5.80185 -0.191171 0
M  V30 7031 H 660.692 2.18276 -2.05368 0
M  V30 7032 H 658.253 1.07466 -1.2109 0
M  V30 7033 H 660.245 4.03375 -0.327199 0
M  V30 7034 H 658.815 3.11876 0.212597 0
M  V30 7035 H 658.035 3.22213 -2.27095 0
M  V30 7036 H 659.323 4.41056 -2.53668 0
M  V30 7037 H 658.721 5.64312 0.396016 0
M  V30 7038 H 657.278 6.5176 0.0721001 0
M  V30 7039 N 660.711 1.11618 1.11262 0
M  V30 7040 C 661.621 0.78898 2.20935 0
M  V30 7041 C 662.637 -0.21867 1.7262 0
M  V30 7042 O 663.813 -0.0543826 2.01327 0
M  V30 7043 C 660.878 0.239014 3.45875 0
M  V30 7044 C 659.939 1.3055 4.08968 0
M  V30 7045 C 659.172 0.781687 5.27944 0
M  V30 7046 O 659.395 -0.387605 5.69082 0
M  V30 7047 O 658.329 1.54734 5.81671 0
M  V30 7048 H 662.155 1.70477 2.51339 0
M  V30 7049 H 659.74 0.892203 1.19834 0
M  V30 7050 H 661.622 -0.0632312 4.21353 0
M  V30 7051 H 660.297 -0.649454 3.17118 0
M  V30 7052 H 659.204 1.66079 3.35214 0
M  V30 7053 H 660.537 2.16743 4.41909 0
M  V30 7054 N 662.189 -1.289 0.906776 0
M  V30 7055 C 663.136 -2.2751 0.388313 0
M  V30 7056 C 664.106 -1.57301 -0.533439 0
M  V30 7057 O 665.291 -1.85243 -0.457148 0
M  V30 7058 C 662.431 -3.43091 -0.37181 0
M  V30 7059 C 661.544 -4.28066 0.581647 0
M  V30 7060 C 660.679 -5.30837 -0.19623 0
M  V30 7061 C 659.718 -6.07472 0.751294 0
M  V30 7062 N 658.855 -7.021 0.00737727 0
M  V30 7063 H 663.695 -2.71237 1.23428 0
M  V30 7064 H 661.232 -1.33397 0.619962 0
M  V30 7065 H 663.19 -4.08888 -0.828641 0
M  V30 7066 H 661.82 -3.00374 -1.18218 0
M  V30 7067 H 660.872 -3.62378 1.157 0
M  V30 7068 H 662.184 -4.81382 1.30665 0
M  V30 7069 H 661.338 -6.02485 -0.71394 0
M  V30 7070 H 660.077 -4.78272 -0.954324 0
M  V30 7071 H 659.082 -5.34682 1.28044 0
M  V30 7072 H 660.307 -6.62126 1.50883 0
M  V30 7073 H 658.253 -6.51894 -0.732854 0
M  V30 7074 H 658.17 -7.53004 0.672334 0
M  V30 7075 H 659.438 -7.77956 -0.490365 0
M  V30 7076 N 663.667 -0.670007 -1.42649 0
M  V30 7077 C 665.078 -0.268118 -1.84765 0
M  V30 7078 C 665.429 1.18877 -1.56086 0
M  V30 7079 O 664.554 1.90947 -1.01825 0
M  V30 7080 C 665.149 -0.47984 -3.35385 0
M  V30 7081 C 663.708 -0.132116 -3.76168 0
M  V30 7082 C 662.855 -0.774611 -2.66261 0
M  V30 7083 H 665.806 -0.872509 -1.32563 0
M  V30 7084 H 665.827 0.269522 -3.79544 0
M  V30 7085 H 665.339 -1.54026 -3.56227 0
M  V30 7086 H 663.44 0.92505 -3.60934 0
M  V30 7087 H 663.553 -0.569294 -4.75706 0
M  V30 7088 H 661.917 -0.206353 -2.53863 0
M  V30 7089 H 662.7 -1.83839 -2.89928 0
M  V30 7090 N 665.145 1.52092 -0.413018 0
M  V30 7091 C 666.561 1.59471 -0.0640836 0
M  V30 7092 C 666.761 1.42562 1.42402 0
M  V30 7093 O 665.817 1.25453 2.19129 0
M  V30 7094 C 667.13 2.95392 -0.562474 0
M  V30 7095 C 668.678 3.08637 -0.520788 0
M  V30 7096 C 669.153 4.47044 -0.995752 0
M  V30 7097 N 670.644 4.53296 -0.952732 0
M  V30 7098 C 671.379 5.58669 -1.29138 0
M  V30 7099 N 670.875 6.71576 -1.70168 0
M  V30 7100 N 672.668 5.48898 -1.2111 0
M  V30 7101 H 664.819 1.6133 -1.38153 0
M  V30 7102 H 667.082 0.75916 -0.567785 0
M  V30 7103 H 666.788 3.13059 -1.60271 0
M  V30 7104 H 666.662 3.77191 0.0257875 0
M  V30 7105 H 669.049 2.90652 0.510412 0
M  V30 7106 H 669.13 2.28735 -1.14515 0
M  V30 7107 H 668.774 4.65773 -2.0253 0
M  V30 7108 H 668.704 5.25448 -0.348162 0
M  V30 7109 H 671.195 3.72248 -0.651119 0
M  V30 7110 H 671.508 7.47973 -1.9431 0
M  V30 7111 H 669.853 6.72847 -1.74075 0
M  V30 7112 H 673.044 4.59573 -0.889396 0
M  V30 7113 H 673.217 6.30912 -1.47833 0
M  V30 7114 N 666.623 0.143563 1.56945 0
M  V30 7115 C 667.869 -0.50916 1.96304 0
M  V30 7116 C 668.202 -1.64741 1.0283 0
M  V30 7117 O 667.477 -1.94374 0.0700361 0
M  V30 7118 C 667.76 -1.0186 3.45393 0
M  V30 7119 C 667.613 0.117923 4.49645 0
M  V30 7120 C 668.932 -1.90151 3.96901 0
M  V30 7121 H 666.051 -0.183608 0.713763 0
M  V30 7122 H 668.693 0.224095 1.88674 0
M  V30 7123 H 666.843 -1.64345 3.52027 0
M  V30 7124 H 668.515 0.754145 4.55094 0
M  V30 7125 H 666.758 0.777568 4.26774 0
M  V30 7126 H 667.429 -0.280187 5.51288 0
M  V30 7127 H 669.905 -1.375 3.92725 0
M  V30 7128 H 668.781 -2.22707 5.0169 0
M  V30 7129 H 669.042 -2.83718 3.39052 0
M  V30 7130 N 668.101 -1.57061 -0.130224 0
M  V30 7131 C 669.517 -1.52103 -0.483413 0
M  V30 7132 C 669.717 -0.854752 -1.82473 0
M  V30 7133 O 668.773 -0.432342 -2.48771 0
M  V30 7134 C 670.086 -2.96872 -0.47825 0
M  V30 7135 C 671.634 -3.07902 -0.562592 0
M  V30 7136 C 672.109 -4.54211 -0.587929 0
M  V30 7137 N 673.6 -4.58621 -0.649684 0
M  V30 7138 C 674.335 -5.69227 -0.690551 0
M  V30 7139 N 673.831 -6.89358 -0.689743 0
M  V30 7140 N 675.624 -5.57304 -0.732708 0
M  V30 7141 H 667.775 -1.98764 0.748779 0
M  V30 7142 H 670.038 -0.907248 0.274965 0
M  V30 7143 H 669.744 -3.48944 0.439444 0
M  V30 7144 H 669.618 -3.53716 -1.31013 0
M  V30 7145 H 672.005 -2.5584 -1.47071 0
M  V30 7146 H 672.086 -2.54073 0.296764 0
M  V30 7147 H 671.73 -5.06915 0.316096 0
M  V30 7148 H 671.66 -5.0584 -1.46401 0
M  V30 7149 H 674.151 -3.72146 -0.656927 0
M  V30 7150 H 674.464 -7.69408 -0.723239 0
M  V30 7151 H 672.809 -6.91884 -0.657347 0
M  V30 7152 H 676 -4.62363 -0.730625 0
M  V30 7153 H 676.173 -6.43515 -0.76109 0
M  V30 7154 N 669.579 0.400081 -1.52437 0
M  V30 7155 C 670.526 1.48803 -1.76426 0
M  V30 7156 C 671.496 1.5461 -0.607032 0
M  V30 7157 O 672.681 1.71041 -0.845563 0
M  V30 7158 C 669.821 2.86156 -1.92896 0
M  V30 7159 C 668.934 2.89587 -3.20567 0
M  V30 7160 C 668.069 4.18296 -3.27417 0
M  V30 7161 C 667.108 4.15736 -4.49255 0
M  V30 7162 N 666.245 5.36032 -4.53447 0
M  V30 7163 H 671.085 1.27649 -2.69276 0
M  V30 7164 H 668.622 0.619451 -1.33421 0
M  V30 7165 H 670.58 3.65901 -2.00429 0
M  V30 7166 H 669.21 3.05785 -1.03418 0
M  V30 7167 H 668.262 2.02278 -3.22161 0
M  V30 7168 H 669.574 2.83562 -4.10358 0
M  V30 7169 H 668.728 5.06439 -3.34072 0
M  V30 7170 H 667.467 4.27028 -2.35581 0
M  V30 7171 H 666.472 3.25982 -4.42737 0
M  V30 7172 H 667.697 4.08636 -5.42396 0
M  V30 7173 H 665.643 5.45415 -3.64498 0
M  V30 7174 H 665.56 5.32038 -5.37096 0
M  V30 7175 H 666.828 6.26104 -4.64343 0
M  V30 7176 N 671.057 1.43213 0.657864 0
M  V30 7177 C 672.473 1.26511 0.972992 0
M  V30 7178 C 672.673 0.181477 2.00681 0
M  V30 7179 O 671.729 -0.441649 2.48608 0
M  V30 7180 C 673.042 2.62784 1.46168 0
M  V30 7181 C 674.59 2.70278 1.57857 0
M  V30 7182 C 675.065 4.06958 2.10117 0
M  V30 7183 N 676.556 4.08999 2.17426 0
M  V30 7184 C 677.291 5.11585 2.58975 0
M  V30 7185 N 676.787 6.24548 2.99853 0
M  V30 7186 N 678.58 4.9894 2.58873 0
M  V30 7187 H 670.731 2.12384 -0.0263129 0
M  V30 7188 H 672.994 0.946638 0.0507992 0
M  V30 7189 H 672.7 3.43022 0.776474 0
M  V30 7190 H 672.574 2.87863 2.43751 0
M  V30 7191 H 674.961 1.90376 2.25479 0
M  V30 7192 H 675.042 2.4897 0.587179 0
M  V30 7193 H 674.686 4.87325 1.43098 0
M  V30 7194 H 674.616 4.25628 3.10078 0
M  V30 7195 H 677.107 3.27457 1.88627 0
M  V30 7196 H 677.42 6.98661 3.30292 0
M  V30 7197 H 675.765 6.28027 2.97669 0
M  V30 7198 H 678.956 4.09757 2.26311 0
M  V30 7199 H 679.129 5.79019 2.90932 0
M  V30 7200 N 672.536 -0.895792 1.29666 0
M  V30 7201 C 673.483 -2.00035 1.15129 0
M  V30 7202 C 674.453 -1.66043 0.0435819 0
M  V30 7203 O 675.638 -1.89621 0.211811 0
M  V30 7204 C 672.778 -3.34774 0.83787 0
M  V30 7205 C 671.891 -3.81525 2.0264 0
M  V30 7206 C 671.026 -5.04858 1.65201 0
M  V30 7207 C 670.065 -5.43988 2.80612 0
M  V30 7208 N 669.202 -6.58507 2.43544 0
M  V30 7209 H 674.042 -2.11802 2.09628 0
M  V30 7210 H 671.579 -1.03719 1.04311 0
M  V30 7211 H 673.537 -4.12311 0.636824 0
M  V30 7212 H 672.167 -3.22724 -0.0702314 0
M  V30 7213 H 671.219 -2.9999 2.33903 0
M  V30 7214 H 672.531 -4.06472 2.89106 0
M  V30 7215 H 671.685 -5.8999 1.41408 0
M  V30 7216 H 670.424 -4.81759 0.758893 0
M  V30 7217 H 669.429 -4.57388 3.05083 0
M  V30 7218 H 670.654 -5.69066 3.70595 0
M  V30 7219 H 668.6 -6.37004 1.56724 0
M  V30 7220 H 668.517 -6.83269 3.23542 0
M  V30 7221 H 669.785 -7.46897 2.2308 0
M  V30 7222 N 674.014 -1.12206 -1.10668 0
M  V30 7223 C 675.262 -0.874144 -1.82217 0
M  V30 7224 C 675.583 0.601736 -1.85484 0
M  V30 7225 O 674.853 1.43725 -1.33116 0
M  V30 7226 H 673.433 -0.320404 -0.674797 0
M  V30 7227 H 676.095 -1.41606 -1.33917 0
M  V30 7228 H 675.191 -1.25349 -2.85822 0
M  V30 7229 N 675.492 1.28418 -0.913599 0
M  V30 7230 C 676.44 2.29272 -0.392037 0
M  V30 7231 C 677.434 1.61344 0.516198 0
M  V30 7232 O 678.64 1.75557 0.39746 0
M  V30 7233 H 675.015 0.744178 -0.108178 0
M  V30 7234 H 676.986 2.70691 -1.25574 0
M  V30 7235 C 675.735 3.45905 0.352815 0
M  V30 7236 H 675.058 3.98378 -0.336848 0
M  V30 7237 H 676.498 4.18473 0.682398 0
M  V30 7238 C 674.957 2.98572 1.56065 0
M  V30 7239 O 675.487 3.01033 2.65974 0
M  V30 7240 N 673.693 2.54235 1.40759 0
M  V30 7241 H 673.24 2.52432 0.513403 0
M  V30 7242 H 673.198 2.22925 2.21702 0
M  V30 7243 N 676.97 0.677563 1.42291 0
M  V30 7244 C 678.217 0.200975 2.015 0
M  V30 7245 C 678.545 -1.19342 1.53583 0
M  V30 7246 O 677.8 -1.81579 0.7299 0
M  V30 7247 C 678.099 0.187229 3.56909 0
M  V30 7248 C 677.765 1.52667 4.24268 0
M  V30 7249 C 676.427 1.89341 4.42384 0
M  V30 7250 C 678.779 2.40869 4.62203 0
M  V30 7251 C 676.107 3.13836 4.95705 0
M  V30 7252 C 678.459 3.64679 5.16906 0
M  V30 7253 C 677.123 4.01519 5.33234 0
M  V30 7254 H 676.393 0.0735418 0.737342 0
M  V30 7255 H 679.04 0.873095 1.70439 0
M  V30 7256 H 677.345 -0.568407 3.87655 0
M  V30 7257 H 679.042 -0.198773 4.00507 0
M  V30 7258 H 675.632 1.23138 4.1053 0
M  V30 7259 H 679.816 2.1382 4.47878 0
M  V30 7260 H 675.072 3.42396 5.06532 0
M  V30 7261 H 679.246 4.33224 5.45243 0
M  V30 7262 H 676.873 4.98062 5.74316 0
M  V30 7263 N 678.448 -1.51871 0.421078 0
M  V30 7264 C 679.395 -2.27334 -0.398508 0
M  V30 7265 C 680.365 -1.30241 -1.03085 0
M  V30 7266 O 681.55 -1.59121 -1.05285 0
M  V30 7267 C 678.69 -3.10664 -1.50272 0
M  V30 7268 C 677.803 -4.2273 -0.890122 0
M  V30 7269 C 676.938 -4.93399 -1.96803 0
M  V30 7270 C 675.977 -5.97409 -1.333 0
M  V30 7271 N 675.114 -6.61548 -2.35156 0
M  V30 7272 H 679.954 -2.96938 0.251411 0
M  V30 7273 H 677.491 -1.46472 0.135825 0
M  V30 7274 H 679.449 -3.57292 -2.15403 0
M  V30 7275 H 678.079 -2.43207 -2.1225 0
M  V30 7276 H 677.131 -3.80186 -0.127537 0
M  V30 7277 H 678.443 -4.97302 -0.386349 0
M  V30 7278 H 677.597 -5.43491 -2.69633 0
M  V30 7279 H 676.336 -4.18421 -2.50549 0
M  V30 7280 H 675.341 -5.46624 -0.59008 0
M  V30 7281 H 676.566 -6.74335 -0.803076 0
M  V30 7282 H 674.512 -5.89394 -2.88012 0
M  V30 7283 H 674.429 -7.31832 -1.89624 0
M  V30 7284 H 675.697 -7.16276 -3.0752 0
M  V30 7285 N 679.926 -0.151884 -1.56866 0
M  V30 7286 C 681.342 0.204486 -1.58285 0
M  V30 7287 C 681.542 1.6431 -1.16639 0
M  V30 7288 O 680.598 2.37077 -0.868946 0
M  V30 7289 C 681.911 -0.0587019 -3.00643 0
M  V30 7290 C 683.459 0.00462303 -3.13 0
M  V30 7291 C 683.934 -0.231297 -4.57416 0
M  V30 7292 N 685.425 -0.178394 -4.62856 0
M  V30 7293 C 686.16 -0.335379 -5.72418 0
M  V30 7294 N 685.656 -0.550355 -6.90611 0
M  V30 7295 N 687.449 -0.272641 -5.61438 0
M  V30 7296 H 679.6 -1.09116 -1.82229 0
M  V30 7297 H 681.863 -0.432311 -0.843689 0
M  V30 7298 H 681.569 -1.05453 -3.35518 0
M  V30 7299 H 681.443 0.658508 -3.71407 0
M  V30 7300 H 683.83 0.991009 -2.77962 0
M  V30 7301 H 683.911 -0.744992 -2.44711 0
M  V30 7302 H 683.555 -1.2148 -4.93158 0
M  V30 7303 H 683.485 0.5387 -5.23837 0
M  V30 7304 H 685.976 -0.0170923 -3.77896 0
M  V30 7305 H 686.289 -0.660116 -7.69976 0
M  V30 7306 H 684.634 -0.586736 -6.92519 0
M  V30 7307 H 687.825 -0.105421 -4.67981 0
M  V30 7308 H 687.998 -0.398418 -6.46774 0
M  V30 7309 N 681.404 1.57128 0.121893 0
M  V30 7310 C 682.629 1.89254 0.848385 0
M  V30 7311 C 683.054 0.743527 1.72781 0
M  V30 7312 O 682.412 -0.306056 1.78698 0
M  V30 7313 C 682.46 3.20113 1.66012 0
M  V30 7314 O 681.564 3.05815 2.76679 0
M  V30 7315 H 680.905 0.621103 0.234793 0
M  V30 7316 H 683.435 2.0433 0.10516 0
M  V30 7317 H 683.445 3.52761 2.04996 0
M  V30 7318 H 682.12 4.03336 1.01452 0
M  V30 7319 H 680.697 2.84627 2.40918 0
M  V30 7320 N 682.882 -0.391992 1.52647 0
M  V30 7321 C 684.298 -0.731848 1.41831 0
M  V30 7322 C 684.498 -1.9423 0.536361 0
M  V30 7323 O 683.554 -2.52499 0.00866571 0
M  V30 7324 C 684.867 -0.969743 2.84634 0
M  V30 7325 C 686.415 -1.0714 2.94092 0
M  V30 7326 C 686.89 -1.34195 4.37899 0
M  V30 7327 N 688.381 -1.41023 4.41211 0
M  V30 7328 C 689.116 -1.63616 5.49561 0
M  V30 7329 N 688.612 -1.83699 6.68002 0
M  V30 7330 N 690.405 -1.65771 5.371 0
M  V30 7331 H 682.556 0.404547 2.08512 0
M  V30 7332 H 684.819 0.11879 0.940528 0
M  V30 7333 H 684.525 -0.152465 3.51369 0
M  V30 7334 H 684.399 -1.88523 3.26709 0
M  V30 7335 H 686.786 -1.87925 2.27526 0
M  V30 7336 H 686.867 -0.133887 2.55449 0
M  V30 7337 H 686.511 -0.539207 5.0503 0
M  V30 7338 H 686.441 -2.29226 4.74092 0
M  V30 7339 H 688.932 -1.27223 3.55841 0
M  V30 7340 H 689.245 -2.00437 7.46354 0
M  V30 7341 H 687.59 -1.8093 6.71036 0
M  V30 7342 H 690.781 -1.4963 4.43541 0
M  V30 7343 H 690.954 -1.83038 6.21612 0
M  V30 7344 N 684.36 -1.4356 -0.65026 0
M  V30 7345 C 685.29 -1.51758 -1.77459 0
M  V30 7346 C 686.271 -0.372019 -1.65982 0
M  V30 7347 O 687.456 -0.589627 -1.85033 0
M  V30 7348 C 684.586 -1.44302 -3.15902 0
M  V30 7349 C 683.54 -2.57138 -3.42146 0
M  V30 7350 C 682.866 -2.34735 -4.8042 0
M  V30 7351 C 684.166 -3.99373 -3.36598 0
M  V30 7352 H 685.86 -2.45863 -1.70855 0
M  V30 7353 H 683.406 -1.18333 -0.820566 0
M  V30 7354 H 685.359 -1.48641 -3.94314 0
M  V30 7355 H 684.083 -0.467026 -3.23244 0
M  V30 7356 H 682.742 -2.52157 -2.66106 0
M  V30 7357 H 682.39 -1.35372 -4.84441 0
M  V30 7358 H 682.09 -3.10375 -4.9894 0
M  V30 7359 H 683.614 -2.40862 -5.61086 0
M  V30 7360 H 685.028 -4.05826 -4.04942 0
M  V30 7361 H 683.425 -4.75063 -3.66654 0
M  V30 7362 H 684.495 -4.243 -2.34729 0
M  V30 7363 N 685.838 0.888903 -1.30139 0
M  V30 7364 C 686.768 2.01046 -1.18755 0
M  V30 7365 C 687.749 1.69916 -0.0791438 0
M  V30 7366 O 688.934 1.92445 -0.260498 0
M  V30 7367 C 686.064 3.36109 -0.874518 0
M  V30 7368 C 685.018 3.81486 -1.94043 0
M  V30 7369 C 684.344 5.13796 -1.48047 0
M  V30 7370 C 685.644 4.00637 -3.35093 0
M  V30 7371 H 687.338 2.10828 -2.12584 0
M  V30 7372 H 684.884 1.01298 -1.02346 0
M  V30 7373 H 686.837 4.14089 -0.781548 0
M  V30 7374 H 685.561 3.26449 0.0994519 0
M  V30 7375 H 684.22 3.05731 -2.02297 0
M  V30 7376 H 683.868 5.0056 -0.494878 0
M  V30 7377 H 683.568 5.45127 -2.19341 0
M  V30 7378 H 685.092 5.94305 -1.40121 0
M  V30 7379 H 686.506 4.69067 -3.2962 0
M  V30 7380 H 684.903 4.43339 -4.04438 0
M  V30 7381 H 685.973 3.0462 -3.77273 0
M  V30 7382 N 687.317 1.12792 1.10072 0
M  V30 7383 C 688.264 0.79921 2.16521 0
M  V30 7384 C 689.234 -0.235726 1.64419 0
M  V30 7385 O 690.419 -0.109457 1.90486 0
M  V30 7386 C 687.559 0.264091 3.44088 0
M  V30 7387 C 686.672 1.35729 4.10124 0
M  V30 7388 C 685.807 0.781212 5.25424 0
M  V30 7389 C 684.846 1.85327 5.8337 0
M  V30 7390 N 683.983 1.29564 6.90042 0
M  V30 7391 H 688.823 1.71105 2.43981 0
M  V30 7392 H 686.36 0.854225 1.19756 0
M  V30 7393 H 688.318 -0.0642423 4.17151 0
M  V30 7394 H 686.948 -0.610901 3.16967 0
M  V30 7395 H 686 1.80234 3.34993 0
M  V30 7396 H 687.312 2.16782 4.4923 0
M  V30 7397 H 686.466 0.403769 6.05355 0
M  V30 7398 H 685.205 -0.0604686 4.87663 0
M  V30 7399 H 684.21 2.23986 5.02106 0
M  V30 7400 H 685.435 2.69824 6.23195 0
M  V30 7401 H 683.381 0.475844 6.54272 0
M  V30 7402 H 683.298 2.04271 7.2788 0
M  V30 7403 H 684.566 0.945545 7.73744 0
M  V30 7404 N 688.795 -1.27931 0.920396 0
M  V30 7405 C 689.725 -2.29487 0.431024 0
M  V30 7406 C 690.706 -1.62435 -0.504861 0
M  V30 7407 O 691.891 -1.89797 -0.411176 0
M  V30 7408 C 689.021 -3.45788 -0.323709 0
M  V30 7409 C 687.975 -4.24784 0.523658 0
M  V30 7410 C 687.301 -5.33488 -0.359809 0
M  V30 7411 C 688.601 -4.90874 1.78437 0
M  V30 7412 H 690.295 -2.70671 1.27975 0
M  V30 7413 H 687.841 -1.30121 0.616813 0
M  V30 7414 H 689.794 -4.15927 -0.676952 0
M  V30 7415 H 688.518 -3.03502 -1.2064 0
M  V30 7416 H 687.177 -3.56382 0.85951 0
M  V30 7417 H 686.825 -4.87445 -1.24124 0
M  V30 7418 H 686.525 -5.87247 0.203605 0
M  V30 7419 H 688.049 -6.06472 -0.708787 0
M  V30 7420 H 689.463 -5.53339 1.49963 0
M  V30 7421 H 687.86 -5.54659 2.29071 0
M  V30 7422 H 688.93 -4.14988 2.50824 0
M  V30 7423 N 690.273 -0.685099 -1.4193 0
M  V30 7424 C 691.689 -0.355632 -1.55587 0
M  V30 7425 C 691.889 1.13823 -1.66273 0
M  V30 7426 O 690.945 1.92387 -1.63534 0
M  V30 7427 C 692.258 -1.09498 -2.80055 0
M  V30 7428 C 693.806 -1.07831 -2.93839 0
M  V30 7429 C 694.281 -1.79919 -4.21181 0
M  V30 7430 N 695.772 -1.76837 -4.28115 0
M  V30 7431 C 696.507 -2.29463 -5.25485 0
M  V30 7432 N 696.003 -2.90516 -6.28945 0
M  V30 7433 N 697.796 -2.19779 -5.17353 0
M  V30 7434 H 689.947 -1.65412 -1.33239 0
M  V30 7435 H 692.21 -0.697453 -0.642078 0
M  V30 7436 H 691.916 -2.14997 -2.78333 0
M  V30 7437 H 691.79 -0.666813 -3.71259 0
M  V30 7438 H 694.177 -0.0316152 -2.95083 0
M  V30 7439 H 694.258 -1.54545 -2.03837 0
M  V30 7440 H 693.902 -2.84562 -4.20698 0
M  V30 7441 H 693.832 -1.30647 -5.10136 0
M  V30 7442 H 696.323 -1.32315 -3.53979 0
M  V30 7443 H 696.636 -3.28266 -6.99615 0
M  V30 7444 H 694.981 -2.94589 -6.29478 0
M  V30 7445 H 698.172 -1.71763 -4.35448 0
M  V30 7446 H 698.345 -2.61097 -5.9307 0
M  V30 7447 N 691.751 1.51645 -0.429126 0
M  V30 7448 C 692.661 2.31288 0.392809 0
M  V30 7449 C 693.677 1.39852 1.03525 0
M  V30 7450 O 694.853 1.72926 1.03241 0
M  V30 7451 C 691.918 3.13347 1.48372 0
M  V30 7452 C 690.979 4.20551 0.862268 0
M  V30 7453 C 690.212 4.98688 1.9012 0
M  V30 7454 O 690.435 4.77359 3.12225 0
M  V30 7455 O 689.369 5.83005 1.4963 0
M  V30 7456 H 693.195 3.02609 -0.257138 0
M  V30 7457 H 690.78 1.48163 -0.191851 0
M  V30 7458 H 692.662 3.64387 2.1166 0
M  V30 7459 H 691.337 2.44799 2.1179 0
M  V30 7460 H 690.244 3.73609 0.191568 0
M  V30 7461 H 691.577 4.91449 0.271704 0
M  V30 7462 N 693.229 0.160201 1.56784 0
M  V30 7463 C 694.477 -0.486625 1.96154 0
M  V30 7464 C 694.798 -1.64525 1.04673 0
M  V30 7465 O 694.068 -1.95586 0.110864 0
M  V30 7466 H 692.648 -0.182764 0.724297 0
M  V30 7467 H 695.31 0.238787 1.93432 0
M  V30 7468 H 694.406 -0.854025 3.00188 0
M  V30 7469 N 694.707 -1.5719 -0.113559 0
M  V30 7470 C 695.955 -1.84772 -0.818761 0
M  V30 7471 C 696.276 -0.746196 -1.80158 0
M  V30 7472 O 695.546 0.229305 -1.94553 0
M  V30 7473 H 694.126 -0.681737 -0.305359 0
M  V30 7474 H 696.788 -1.94645 -0.0995845 0
M  V30 7475 H 695.884 -2.80878 -1.36067 0
M  V30 7476 N 696.185 0.383891 -1.52853 0
M  V30 7477 C 697.41 1.154 -1.7233 0
M  V30 7478 C 697.835 1.82809 -0.44298 0
M  V30 7479 O 697.193 1.71026 0.601645 0
M  V30 7480 C 697.241 2.17386 -2.87708 0
M  V30 7481 O 696.345 3.24082 -2.55038 0
M  V30 7482 H 695.686 0.335709 -0.572883 0
M  V30 7483 H 698.216 0.44662 -1.99666 0
M  V30 7484 H 698.226 2.61296 -3.1335 0
M  V30 7485 H 696.901 1.6771 -3.80587 0
M  V30 7486 H 695.478 2.85273 -2.40153 0
M  V30 7487 N 697.663 1.43903 0.642637 0
M  V30 7488 C 698.613 1.46321 1.74854 0
M  V30 7489 C 699.597 0.330361 1.57472 0
M  V30 7490 O 700.789 0.574881 1.67404 0
M  V30 7491 C 697.918 1.39919 3.13493 0
M  V30 7492 C 697.004 2.58274 3.36385 0
M  V30 7493 N 697.395 3.83578 3.29699 0
M  V30 7494 C 695.693 2.53224 3.67142 0
M  V30 7495 C 696.394 4.62375 3.52965 0
M  V30 7496 N 695.37 3.93269 3.75287 0
M  V30 7497 H 699.172 2.41062 1.68126 0
M  V30 7498 H 696.686 1.38704 0.844693 0
M  V30 7499 H 698.683 1.39735 3.92785 0
M  V30 7500 H 697.343 0.46207 3.21395 0
M  V30 7501 H 698.354 4.15713 3.08874 0
M  V30 7502 H 695.031 1.68252 3.82096 0
M  V30 7503 H 696.421 5.714 3.53485 0
M  V30 7504 N 699.141 -0.881989 1.30609 0
M  V30 7505 C 700.39 -1.62878 1.18969 0
M  V30 7506 C 700.703 -1.93946 -0.253859 0
M  V30 7507 O 701.909 -2.67008 -0.491813 0
M  V30 7508 C 700.365 -2.93573 2.0819 0
M  V30 7509 C 699.973 -2.70034 3.57471 0
M  V30 7510 C 701.717 -3.71543 2.0532 0
M  V30 7511 C 699.624 -3.96563 4.38739 0
M  V30 7512 H 698.554 -0.611092 0.441682 0
M  V30 7513 H 701.205 -0.976201 1.55379 0
M  V30 7514 H 699.587 -3.6014 1.64666 0
M  V30 7515 H 700.761 -2.11949 4.09163 0
M  V30 7516 H 699.076 -2.05435 3.62195 0
M  V30 7517 H 701.673 -4.65386 2.63288 0
M  V30 7518 H 702.016 -4.03167 1.03739 0
M  V30 7519 H 702.549 -3.11842 2.46981 0
M  V30 7520 H 699.288 -3.70095 5.41027 0
M  V30 7521 H 698.808 -4.54142 3.9181 0
M  V30 7522 H 700.487 -4.64557 4.50329 0
M  V30 7523 N 700.619 -1.13374 -1.09472 0
M  V30 7524 C 701.844 -0.918711 -1.85942 0
M  V30 7525 C 702.269 0.527225 -1.8056 0
M  V30 7526 O 701.627 1.37408 -1.18274 0
M  V30 7527 C 701.675 -1.41056 -3.31867 0
M  V30 7528 O 700.779 -0.595496 -4.08078 0
M  V30 7529 H 700.12 -0.329297 -0.576593 0
M  V30 7530 H 702.65 -1.50829 -1.38245 0
M  V30 7531 H 702.66 -1.41398 -3.82715 0
M  V30 7532 H 701.335 -2.46335 -3.35099 0
M  V30 7533 H 699.912 -0.659911 -3.67014 0
M  V30 7534 N 702.098 1.27442 -0.927168 0
M  V30 7535 C 703.028 2.29256 -0.443188 0
M  V30 7536 C 704.009 1.62701 0.49624 0
M  V30 7537 O 705.194 1.90013 0.401105 0
M  V30 7538 C 702.324 3.45955 0.305366 0
M  V30 7539 C 701.278 4.24501 -0.546178 0
M  V30 7540 C 700.604 5.33671 0.331512 0
M  V30 7541 C 701.904 4.89921 -1.81037 0
M  V30 7542 H 703.598 2.69988 -1.29409 0
M  V30 7543 H 701.144 1.29792 -0.623705 0
M  V30 7544 H 703.097 4.1628 0.654885 0
M  V30 7545 H 701.821 3.04138 1.19029 0
M  V30 7546 H 700.48 3.55921 -0.878398 0
M  V30 7547 H 700.128 4.88096 1.21537 0
M  V30 7548 H 699.828 5.87131 -0.234746 0
M  V30 7549 H 701.352 6.0684 0.676614 0
M  V30 7550 H 702.766 5.52536 -1.52895 0
M  V30 7551 H 701.163 5.53436 -2.32009 0
M  V30 7552 H 702.233 4.13652 -2.53021 0
M  V30 7553 N 703.576 0.692616 1.41565 0
M  V30 7554 C 704.987 0.297478 1.84315 0
M  V30 7555 C 705.338 -1.16379 1.57957 0
M  V30 7556 O 704.463 -1.89303 1.0485 0
M  V30 7557 C 705.058 0.533136 3.34579 0
M  V30 7558 C 703.617 0.191944 3.7591 0
M  V30 7559 C 702.764 0.816873 2.64995 0
M  V30 7560 H 705.715 0.893488 1.31158 0
M  V30 7561 H 705.736 -0.209105 3.79925 0
M  V30 7562 H 705.248 1.59674 3.53731 0
M  V30 7563 H 703.349 -0.867512 3.6236 0
M  V30 7564 H 703.462 0.644902 4.7474 0
M  V30 7565 H 701.826 0.246715 2.53502 0
M  V30 7566 H 702.609 1.88429 2.86966 0
M  V30 7567 N 705.054 -1.51416 0.437162 0
M  V30 7568 C 706.279 -2.0699 -0.130424 0
M  V30 7569 C 706.704 -1.30249 -1.35709 0
M  V30 7570 O 706.062 -0.340388 -1.78076 0
M  V30 7571 C 706.11 -3.5801 -0.43142 0
M  V30 7572 O 705.214 -3.8345 -1.5179 0
M  V30 7573 H 704.555 -0.663997 -0.00194339 0
M  V30 7574 H 707.085 -1.95029 0.618445 0
M  V30 7575 H 707.095 -4.02261 -0.681926 0
M  V30 7576 H 705.77 -4.13291 0.465137 0
M  V30 7577 H 704.347 -3.51062 -1.25737 0
M  V30 7578 N 706.532 -0.168513 -1.56696 0
M  V30 7579 C 707.78 0.476216 -1.96409 0
M  V30 7580 C 708.101 1.63968 -1.05544 0
M  V30 7581 O 707.371 1.95525 -0.121235 0
M  V30 7582 H 705.951 0.178921 -0.725256 0
M  V30 7583 H 708.613 -0.249042 -1.93302 0
M  V30 7584 H 707.709 0.838094 -3.00637 0
M  V30 7585 N 708.01 1.57248 0.105221 0
M  V30 7586 C 709.257 1.8557 0.810552 0
M  V30 7587 C 709.585 0.755595 1.79223 0
M  V30 7588 O 708.84 -0.251788 1.94073 0
M  V30 7589 C 709.139 3.20437 1.58287 0
M  V30 7590 C 708.805 4.44716 0.744235 0
M  V30 7591 C 707.467 4.78458 0.513013 0
M  V30 7592 C 709.819 5.20953 0.160578 0
M  V30 7593 C 707.147 5.8587 -0.311894 0
M  V30 7594 C 709.499 6.29235 -0.651596 0
M  V30 7595 C 708.163 6.615 -0.893005 0
M  V30 7596 H 707.433 0.67905 0.296602 0
M  V30 7597 H 710.08 1.91363 0.0723968 0
M  V30 7598 H 708.385 3.10283 2.39232 0
M  V30 7599 H 710.082 3.39576 2.13282 0
M  V30 7600 H 706.672 4.18287 0.934555 0
M  V30 7601 H 710.856 4.95226 0.3264 0
M  V30 7602 H 706.112 6.09286 -0.508012 0
M  V30 7603 H 710.286 6.87484 -1.11077 0
M  V30 7604 H 707.913 7.44562 -1.53401 0
M  V30 7605 N 709.488 -0.375779 1.53054 0
M  V30 7606 C 710.398 -1.48381 1.81715 0
M  V30 7607 C 711.414 -1.59087 0.704795 0
M  V30 7608 O 712.59 -1.75174 0.993785 0
M  V30 7609 C 709.655 -2.83767 1.99192 0
M  V30 7610 C 708.716 -2.82673 3.23102 0
M  V30 7611 C 707.949 -4.11601 3.39736 0
M  V30 7612 O 708.172 -5.07243 2.60885 0
M  V30 7613 O 707.106 -4.18034 4.33049 0
M  V30 7614 H 710.932 -1.27089 2.7583 0
M  V30 7615 H 708.517 -0.564902 1.38308 0
M  V30 7616 H 710.399 -3.64004 2.12318 0
M  V30 7617 H 709.074 -3.05057 1.08267 0
M  V30 7618 H 707.981 -2.0117 3.15407 0
M  V30 7619 H 709.314 -2.66335 4.13916 0
M  V30 7620 N 710.966 -1.44241 -0.634997 0
M  V30 7621 C 711.916 -1.47247 -1.74076 0
M  V30 7622 C 712.9 -0.338708 -1.57295 0
M  V30 7623 O 714.092 -0.583751 -1.67097 0
M  V30 7624 C 711.221 -1.41579 -3.12746 0
M  V30 7625 C 710.307 -2.60055 -3.35011 0
M  V30 7626 N 710.698 -3.85321 -3.27661 0
M  V30 7627 C 708.996 -2.55168 -3.65794 0
M  V30 7628 C 709.697 -4.64241 -3.50508 0
M  V30 7629 N 708.673 -3.95254 -3.73196 0
M  V30 7630 H 712.475 -2.4195 -1.66845 0
M  V30 7631 H 709.989 -1.3915 -0.837326 0
M  V30 7632 H 711.986 -1.41816 -3.92038 0
M  V30 7633 H 710.646 -0.479108 -3.21146 0
M  V30 7634 H 711.657 -4.17345 -3.06665 0
M  V30 7635 H 708.334 -1.70276 -3.81198 0
M  V30 7636 H 709.724 -5.73267 -3.50449 0
M  V30 7637 N 712.444 0.87505 -1.31075 0
M  V30 7638 C 713.391 1.98178 -1.18296 0
M  V30 7639 C 714.361 1.65952 -0.0699923 0
M  V30 7640 O 715.546 1.8926 -0.241951 0
M  V30 7641 C 712.686 3.33399 -0.891024 0
M  V30 7642 C 711.799 3.78253 -2.08684 0
M  V30 7643 C 710.934 5.02166 -1.73212 0
M  V30 7644 C 709.973 5.39455 -2.89231 0
M  V30 7645 N 709.11 6.54549 -2.53989 0
M  V30 7646 H 713.95 2.0844 -2.12971 0
M  V30 7647 H 711.487 1.02047 -1.05948 0
M  V30 7648 H 713.445 4.11246 -0.702338 0
M  V30 7649 H 712.075 3.22794 0.0188799 0
M  V30 7650 H 711.127 2.9623 -2.38646 0
M  V30 7651 H 712.439 4.01821 -2.95536 0
M  V30 7652 H 711.593 5.87666 -1.50777 0
M  V30 7653 H 710.332 4.80491 -0.83544 0
M  V30 7654 H 709.337 4.52477 -3.12321 0
M  V30 7655 H 710.562 5.63098 -3.79601 0
M  V30 7656 H 708.508 6.3443 -1.66838 0
M  V30 7657 H 708.425 6.78035 -3.34372 0
M  V30 7658 H 709.693 7.43254 -2.34934 0
M  V30 7659 N 713.922 1.13953 1.08869 0
M  V30 7660 C 715.171 0.899431 1.80536 0
M  V30 7661 C 715.484 -0.575781 1.86933 0
M  V30 7662 O 716.69 -0.932988 2.54966 0
M  V30 7663 C 715.146 1.55963 3.24351 0
M  V30 7664 C 714.754 3.07077 3.26202 0
M  V30 7665 C 716.498 1.40046 4.00733 0
M  V30 7666 C 714.405 3.65955 4.64576 0
M  V30 7667 H 713.335 0.332849 0.676556 0
M  V30 7668 H 715.986 1.3679 1.22314 0
M  V30 7669 H 714.368 1.01883 3.82669 0
M  V30 7670 H 715.542 3.67785 2.77617 0
M  V30 7671 H 713.857 3.22576 2.63312 0
M  V30 7672 H 716.454 1.81441 5.02974 0
M  V30 7673 H 716.797 0.345993 4.1486 0
M  V30 7674 H 717.33 1.91137 3.48872 0
M  V30 7675 H 714.069 4.71234 4.55652 0
M  V30 7676 H 713.589 3.10027 5.13462 0
M  V30 7677 H 715.268 3.65968 5.33551 0
M  V30 7678 N 715.4 -1.26948 0.933913 0
M  V30 7679 C 716.628 -1.98186 0.59414 0
M  V30 7680 C 717.043 -1.69614 -0.829257 0
M  V30 7681 O 716.4 -0.960213 -1.55197 0
M  V30 7682 C 716.451 -3.52123 0.818026 0
M  V30 7683 O 716.172 -3.79698 2.18543 0
M  V30 7684 C 717.673 -4.40608 0.48781 0
M  V30 7685 H 714.893 -0.632305 0.224569 0
M  V30 7686 H 717.437 -1.61646 1.25263 0
M  V30 7687 H 715.592 -3.86851 0.206246 0
M  V30 7688 H 716.006 -4.7426 2.24005 0
M  V30 7689 H 717.48 -5.47606 0.695126 0
M  V30 7690 H 717.957 -4.35394 -0.576913 0
M  V30 7691 H 718.563 -4.11411 1.078 0
M  V30 7692 N 716.879 -0.700114 -1.41195 0
M  V30 7693 C 718.125 -0.233351 -2.01453 0
M  V30 7694 C 718.458 1.16548 -1.55339 0
M  V30 7695 O 717.733 1.78756 -0.766575 0
M  V30 7696 C 718.016 -0.2961 -3.58881 0
M  V30 7697 C 717.869 -1.7322 -4.15108 0
M  V30 7698 C 719.188 0.341525 -4.38773 0
M  V30 7699 H 716.307 -0.0862667 -0.731934 0
M  V30 7700 H 718.949 -0.889693 -1.67882 0
M  V30 7701 H 717.099 0.262736 -3.87611 0
M  V30 7702 H 718.771 -2.34523 -3.97236 0
M  V30 7703 H 717.014 -2.2649 -3.69979 0
M  V30 7704 H 717.685 -1.7276 -5.24269 0
M  V30 7705 H 720.161 -0.134461 -4.15883 0
M  V30 7706 H 719.037 0.267098 -5.4825 0
M  V30 7707 H 719.298 1.42289 -4.18577 0
M  V30 7708 N 718.357 1.51182 -0.445186 0
M  V30 7709 C 719.289 2.25714 0.398206 0
M  V30 7710 C 720.302 1.30032 0.979562 0
M  V30 7711 O 721.491 1.55731 0.872368 0
M  V30 7712 C 718.591 3.00348 1.56985 0
M  V30 7713 C 717.764 4.23187 1.10596 0
M  V30 7714 C 716.823 4.80334 2.14863 0
M  V30 7715 O 715.849 5.4196 1.73977 0
M  V30 7716 N 717.051 4.65053 3.47427 0
M  V30 7717 H 719.816 2.98732 -0.240629 0
M  V30 7718 H 717.377 1.59556 -0.274507 0
M  V30 7719 H 719.369 3.35464 2.26376 0
M  V30 7720 H 717.939 2.30291 2.11387 0
M  V30 7721 H 717.159 3.93476 0.238832 0
M  V30 7722 H 718.447 5.02886 0.773537 0
M  V30 7723 H 717.845 4.15984 3.83372 0
M  V30 7724 H 716.402 5.04509 4.12691 0
M  V30 7725 N 719.835 0.176821 1.56605 0
M  V30 7726 C 720.798 -0.737429 2.17013 0
M  V30 7727 C 721.798 -1.15414 1.11965 0
M  V30 7728 O 722.988 -1.0702 1.37449 0
M  V30 7729 C 720.12 -2.00445 2.75744 0
M  V30 7730 H 721.313 -0.211455 2.99154 0
M  V30 7731 H 718.866 -0.0727582 1.56131 0
M  V30 7732 H 719.601 -2.57338 1.97352 0
M  V30 7733 H 719.386 -1.71456 3.52626 0
M  V30 7734 H 720.876 -2.65679 3.22187 0
M  V30 7735 N 721.313 -1.57302 -0.09688 0
M  V30 7736 C 722.538 -1.9058 -0.818169 0
M  V30 7737 C 722.963 -0.770921 -1.71576 0
M  V30 7738 O 722.321 0.277588 -1.79162 0
M  V30 7739 C 722.369 -3.22714 -1.60898 0
M  V30 7740 O 721.473 -3.10178 -2.71779 0
M  V30 7741 H 720.814 -0.624759 -0.224882 0
M  V30 7742 H 723.344 -2.04471 -0.07264 0
M  V30 7743 H 723.354 -3.55978 -1.99358 0
M  V30 7744 H 722.029 -4.04899 -0.950227 0
M  V30 7745 H 720.606 -2.88424 -2.3636 0
M  V30 7746 N 722.791 0.367657 -1.53252 0
M  V30 7747 C 724.202 0.944563 -1.61043 0
M  V30 7748 C 724.553 1.90325 -0.476546 0
M  V30 7749 O 723.678 2.12721 0.397333 0
M  V30 7750 C 724.273 1.71992 -2.91898 0
M  V30 7751 C 722.832 2.2462 -3.02031 0
M  V30 7752 C 721.979 1.05799 -2.56324 0
M  V30 7753 H 724.93 0.146516 -1.58022 0
M  V30 7754 H 724.951 2.58095 -2.79584 0
M  V30 7755 H 724.463 1.02192 -3.74404 0
M  V30 7756 H 722.564 2.97668 -2.24108 0
M  V30 7757 H 722.677 2.52644 -4.07073 0
M  V30 7758 H 721.041 1.42435 -2.1115 0
M  V30 7759 H 721.824 0.375008 -3.41246 0
M  V30 7760 N 724.269 1.44576 0.627338 0
M  V30 7761 C 725.497 1.51048 1.41394 0
M  V30 7762 C 725.912 0.136568 1.88305 0
M  V30 7763 O 725.269 -0.858251 1.6106 0
M  V30 7764 C 725.32 2.47837 2.63172 0
M  V30 7765 O 725.041 3.79887 2.18215 0
M  V30 7766 C 726.542 2.63811 3.56257 0
M  V30 7767 H 723.762 0.512171 0.4335 0
M  V30 7768 H 726.306 1.89576 0.766878 0
M  V30 7769 H 724.461 2.12433 3.23961 0
M  V30 7770 H 724.875 4.32177 2.97192 0
M  V30 7771 H 726.349 3.35554 4.38301 0
M  V30 7772 H 726.826 1.69169 4.05313 0
M  V30 7773 H 727.432 3.0013 3.01333 0
M  V30 7774 N 725.747 -0.868086 1.31537 0
M  V30 7775 C 726.677 -1.99131 1.21939 0
M  V30 7776 C 727.658 -1.69768 0.106166 0
M  V30 7777 O 728.843 -1.92006 0.291081 0
M  V30 7778 C 725.973 -3.34676 0.927879 0
M  V30 7779 C 724.927 -3.7835 2.00088 0
M  V30 7780 C 724.253 -5.11375 1.56203 0
M  V30 7781 C 725.553 -3.95256 3.41424 0
M  V30 7782 H 727.247 -2.07419 2.15911 0
M  V30 7783 H 724.793 -0.996569 1.03945 0
M  V30 7784 H 726.746 -4.12793 0.847327 0
M  V30 7785 H 725.47 -3.26565 -0.0475042 0
M  V30 7786 H 724.129 -3.02474 2.07135 0
M  V30 7787 H 723.777 -4.99709 0.57445 0
M  V30 7788 H 723.477 -5.41568 2.27985 0
M  V30 7789 H 725.001 -5.92001 1.49558 0
M  V30 7790 H 726.415 -4.63764 3.3704 0
M  V30 7791 H 724.812 -4.36849 4.1144 0
M  V30 7792 H 725.882 -2.98579 3.82072 0
M  V30 7793 N 727.225 -1.14528 -1.08264 0
M  V30 7794 C 728.502 -0.825185 -1.77342 0
M  V30 7795 C 728.882 0.681037 -1.99813 0
M  V30 7796 O 728.23 1.62234 -1.60912 0
M  V30 7797 C 728.44 -1.62556 -3.08831 0
M  V30 7798 C 729.788 -1.82585 -3.83338 0
M  V30 7799 O 730.812 -1.59254 -3.18617 0
M  V30 7800 O 729.671 -2.21598 -4.99556 0
M  V30 7801 H 726.765 -0.302531 -0.769678 0
M  V30 7802 H 729.311 -1.25056 -1.14713 0
M  V30 7803 H 728.083 -2.64862 -2.88035 0
M  V30 7804 H 727.706 -1.1959 -3.79189 0
M  V30 7805 N 728.703 1.26451 -0.940633 0
M  V30 7806 C 729.65 2.264 -0.448497 0
M  V30 7807 C 730.62 1.5866 0.491546 0
M  V30 7808 O 731.805 1.86389 0.407874 0
M  V30 7809 C 728.945 3.43956 0.280715 0
M  V30 7810 C 728.058 4.26374 -0.694937 0
M  V30 7811 C 727.193 5.31171 0.0554186 0
M  V30 7812 C 726.232 6.05266 -0.912091 0
M  V30 7813 N 725.369 7.01833 -0.193524 0
M  V30 7814 H 730.209 2.67869 -1.30576 0
M  V30 7815 H 727.746 1.31707 -0.655112 0
M  V30 7816 H 729.704 4.10941 0.71994 0
M  V30 7817 H 728.334 3.03403 1.10212 0
M  V30 7818 H 727.386 3.59183 -1.25267 0
M  V30 7819 H 728.698 4.77748 -1.43382 0
M  V30 7820 H 727.852 6.04166 0.553951 0
M  V30 7821 H 726.591 4.80634 0.827183 0
M  V30 7822 H 725.596 5.31099 -1.42175 0
M  V30 7823 H 726.821 6.57893 -1.68385 0
M  V30 7824 H 724.767 6.53607 0.559758 0
M  V30 7825 H 724.684 7.50957 -0.871744 0
M  V30 7826 H 725.952 7.78983 0.283932 0
M  V30 7827 N 730.181 0.707592 1.40822 0
M  V30 7828 C 731.597 0.38034 1.55002 0
M  V30 7829 C 731.797 -1.11163 1.68062 0
M  V30 7830 O 730.853 -1.89761 1.66574 0
M  V30 7831 C 732.166 1.1394 2.78277 0
M  V30 7832 C 733.714 1.12492 2.92087 0
M  V30 7833 C 734.189 1.86597 4.18265 0
M  V30 7834 N 735.68 1.83626 4.25248 0
M  V30 7835 C 736.415 2.37794 5.21768 0
M  V30 7836 N 735.911 3.00485 6.24244 0
M  V30 7837 N 737.704 2.27982 5.13791 0
M  V30 7838 H 729.855 1.67511 1.3059 0
M  V30 7839 H 732.118 0.707579 0.630901 0
M  V30 7840 H 731.824 2.19398 2.74877 0
M  V30 7841 H 731.698 0.725793 3.70151 0
M  V30 7842 H 734.085 0.0785564 2.94995 0
M  V30 7843 H 734.166 1.57768 2.01353 0
M  V30 7844 H 733.81 2.91219 4.16118 0
M  V30 7845 H 733.74 1.38746 5.07993 0
M  V30 7846 H 736.231 1.3793 3.51829 0
M  V30 7847 H 736.544 3.39355 6.94304 0
M  V30 7848 H 734.889 3.04567 6.24711 0
M  V30 7849 H 738.08 1.78669 4.3266 0
M  V30 7850 H 738.253 2.70499 5.88841 0
M  V30 7851 N 731.66 -1.50943 0.453197 0
M  V30 7852 C 732.607 -2.28128 -0.350197 0
M  V30 7853 C 733.577 -1.32398 -1.00299 0
M  V30 7854 O 734.762 -1.61319 -1.01887 0
M  V30 7855 C 731.902 -3.13782 -1.43649 0
M  V30 7856 C 731.015 -4.24523 -0.800255 0
M  V30 7857 C 730.15 -4.97462 -1.86293 0
M  V30 7858 C 729.189 -6.00102 -1.20598 0
M  V30 7859 N 728.326 -6.66387 -2.21071 0
M  V30 7860 H 733.166 -2.96337 0.31434 0
M  V30 7861 H 730.703 -1.46151 0.166863 0
M  V30 7862 H 732.661 -3.6178 -2.07776 0
M  V30 7863 H 731.291 -2.47655 -2.07044 0
M  V30 7864 H 730.343 -3.80371 -0.0468651 0
M  V30 7865 H 731.655 -4.98009 -0.280777 0
M  V30 7866 H 730.809 -5.49088 -2.58044 0
M  V30 7867 H 729.548 -4.23642 -2.41617 0
M  V30 7868 H 728.553 -5.47753 -0.474 0
M  V30 7869 H 729.778 -6.75887 -0.659859 0
M  V30 7870 H 727.724 -5.9537 -2.75446 0
M  V30 7871 H 727.641 -7.3569 -1.74058 0
M  V30 7872 H 728.909 -7.22638 -2.92257 0
M  V30 7873 N 733.138 -0.185124 -1.56509 0
M  V30 7874 C 734.386 0.455357 -1.96903 0
M  V30 7875 C 734.707 1.62839 -1.07277 0
M  V30 7876 O 733.977 1.95385 -0.141966 0
M  V30 7877 H 732.557 0.171218 -0.727113 0
M  V30 7878 H 735.219 -0.26953 -1.93027 0
M  V30 7879 H 734.315 0.80616 -3.01509 0
M  V30 7880 N 734.616 1.57351 0.0885366 0
M  V30 7881 C 735.841 1.91011 0.80805 0
M  V30 7882 C 736.266 0.780009 1.71165 0
M  V30 7883 O 735.624 -0.268083 1.79307 0
M  V30 7884 C 735.672 3.23562 1.59185 0
M  V30 7885 O 734.776 3.11615 2.7013 0
M  V30 7886 H 734.117 0.625943 0.221565 0
M  V30 7887 H 736.647 2.04507 0.0617954 0
M  V30 7888 H 736.657 3.5703 1.97468 0
M  V30 7889 H 735.332 4.05398 0.928741 0
M  V30 7890 H 733.909 2.89673 2.34827 0
M  V30 7891 N 736.094 -0.359525 1.53444 0
M  V30 7892 C 737.371 -1.11756 1.6053 0
M  V30 7893 C 737.751 -2.06949 0.416587 0
M  V30 7894 O 737.099 -2.20681 -0.592628 0
M  V30 7895 C 737.309 -1.85133 2.95849 0
M  V30 7896 C 738.657 -2.3945 3.50641 0
M  V30 7897 O 739.681 -1.95251 2.97918 0
M  V30 7898 O 738.54 -3.20266 4.42823 0
M  V30 7899 H 735.634 -0.513005 0.648656 0
M  V30 7900 H 738.18 -0.362301 1.65787 0
M  V30 7901 H 736.952 -1.15694 3.73806 0
M  V30 7902 H 736.575 -2.67554 2.9411 0
M  V30 7903 N 737.572 -1.44907 -0.619662 0
M  V30 7904 C 738.82 -1.47999 -1.37625 0
M  V30 7905 C 739.141 -0.118295 -1.94641 0
M  V30 7906 O 738.411 0.85086 -1.76457 0
M  V30 7907 H 736.991 -0.544993 -0.510873 0
M  V30 7908 H 739.653 -1.80772 -0.728522 0
M  V30 7909 H 738.749 -2.21196 -2.20179 0
M  V30 7910 N 739.05 0.861098 -1.31996 0
M  V30 7911 C 740.013 1.95068 -1.20338 0
M  V30 7912 C 741.013 1.60289 -0.128114 0
M  V30 7913 O 742.203 1.70048 -0.378044 0
M  V30 7914 C 739.335 3.30153 -0.849205 0
M  V30 7915 H 740.528 2.06833 -2.17164 0
M  V30 7916 H 738.081 1.05049 -1.15734 0
M  V30 7917 H 738.816 3.24087 0.117508 0
M  V30 7918 H 738.601 3.56771 -1.62655 0
M  V30 7919 H 740.091 4.10025 -0.791782 0
M  V30 7920 N 740.528 1.15101 1.07655 0
M  V30 7921 C 741.753 0.948177 1.84457 0
M  V30 7922 C 742.178 -0.498432 1.81376 0
M  V30 7923 O 741.536 -1.35509 1.20445 0
M  V30 7924 C 741.584 1.46318 3.29581 0
M  V30 7925 O 740.688 0.660342 4.07079 0
M  V30 7926 H 740.029 0.338428 0.571281 0
M  V30 7927 H 742.559 1.5301 1.35828 0
M  V30 7928 H 742.569 1.47468 3.80417 0
M  V30 7929 H 741.244 2.51635 3.31138 0
M  V30 7930 H 739.821 0.718216 3.65918 0
M  V30 7931 N 742.006 -1.2595 0.947325 0
M  V30 7932 C 743.417 -1.75389 0.639963 0
M  V30 7933 C 743.768 -1.77081 -0.844788 0
M  V30 7934 O 742.893 -1.3869 -1.66114 0
M  V30 7935 C 743.488 -3.18506 1.15496 0
M  V30 7936 C 742.047 -3.65534 0.897894 0
M  V30 7937 C 741.194 -2.44818 1.30228 0
M  V30 7938 H 744.145 -1.1194 1.12495 0
M  V30 7939 H 744.166 -3.77045 0.511627 0
M  V30 7940 H 743.678 -3.17243 2.23559 0
M  V30 7941 H 741.779 -3.72221 -0.168096 0
M  V30 7942 H 741.892 -4.54039 1.52922 0
M  V30 7943 H 740.256 -2.44291 0.720678 0
M  V30 7944 H 741.039 -2.46251 2.39198 0
M  V30 7945 N 743.484 -0.715051 -1.40445 0
M  V30 7946 C 744.895 -0.326763 -1.83818 0
M  V30 7947 C 745.246 1.13851 -1.59789 0
M  V30 7948 O 744.371 1.87611 -1.07848 0
M  V30 7949 C 744.966 -0.586297 -3.33688 0
M  V30 7950 C 743.525 -0.251724 -3.75557 0
M  V30 7951 C 742.672 -0.858928 -2.63662 0
M  V30 7952 H 745.623 -0.914241 -1.2972 0
M  V30 7953 H 745.644 0.148636 -3.8021 0
M  V30 7954 H 745.156 -1.65281 -3.51146 0
M  V30 7955 H 743.257 0.809754 -3.63695 0
M  V30 7956 H 743.37 -0.720348 -4.73654 0
M  V30 7957 H 741.734 -0.287013 -2.53078 0
M  V30 7958 H 742.517 -1.9297 -2.83932 0
M  V30 7959 N 744.962 1.50701 -0.461195 0
M  V30 7960 C 745.925 2.2686 0.326679 0
M  V30 7961 C 746.925 1.31243 0.929085 0
M  V30 7962 O 748.115 1.54754 0.799807 0
M  V30 7963 C 745.247 3.07844 1.46441 0
M  V30 7964 H 746.44 2.97954 -0.341095 0
M  V30 7965 H 743.993 1.54814 -0.214984 0
M  V30 7966 H 744.728 2.41223 2.16753 0
M  V30 7967 H 744.513 3.78101 1.03836 0
M  V30 7968 H 746.003 3.65469 2.02044 0
M  V30 7969 N 746.441 0.193421 1.56409 0
M  V30 7970 C 747.666 -0.454552 2.02358 0
M  V30 7971 C 748.091 -1.54516 1.07268 0
M  V30 7972 O 747.449 -1.81214 0.0558962 0
M  V30 7973 C 747.497 -0.989469 3.46759 0
M  V30 7974 O 746.601 -2.10244 3.54783 0
M  V30 7975 H 745.942 -0.106417 0.655417 0
M  V30 7976 H 748.472 0.303807 2.02332 0
M  V30 7977 H 748.482 -1.30649 3.86516 0
M  V30 7978 H 747.157 -0.191083 4.15461 0
M  V30 7979 H 745.734 -1.79419 3.26899 0
M  V30 7980 N 747.919 -1.57396 -0.0801906 0
M  V30 7981 C 749.33 -1.75642 -0.633002 0
M  V30 7982 C 749.681 -0.817708 -1.78348 0
M  V30 7983 O 748.806 0.000233743 -2.164 0
M  V30 7984 C 749.401 -3.18502 -1.15507 0
M  V30 7985 C 747.96 -3.38121 -1.65381 0
M  V30 7986 C 747.107 -2.71386 -0.569661 0
M  V30 7987 H 750.058 -1.58027 0.145949 0
M  V30 7988 H 750.079 -3.22198 -2.02408 0
M  V30 7989 H 749.591 -3.86799 -0.317515 0
M  V30 7990 H 747.692 -2.74926 -2.51488 0
M  V30 7991 H 747.805 -4.46521 -1.73654 0
M  V30 7992 H 746.169 -2.33702 -1.0127 0
M  V30 7993 H 746.952 -3.42332 0.257561 0
M  V30 7994 N 749.397 0.351382 -1.53633 0
M  V30 7995 C 750.622 1.11718 -1.74739 0
M  V30 7996 C 751.047 1.81829 -0.481657 0
M  V30 7997 O 750.405 1.72264 0.565233 0
M  V30 7998 C 750.453 2.11234 -2.92254 0
M  V30 7999 O 749.557 3.186 -2.61855 0
M  V30 8000 H 748.898 0.323482 -0.579875 0
M  V30 8001 H 751.428 0.404167 -2.00568 0
M  V30 8002 H 751.438 2.54591 -3.18822 0
M  V30 8003 H 750.113 1.59599 -3.84058 0
M  V30 8004 H 748.69 2.80115 -2.4615 0
M  V30 8005 N 750.875 1.45233 0.611969 0
M  V30 8006 C 752.124 1.48296 1.36716 0
M  V30 8007 C 752.437 0.12706 1.95187 0
M  V30 8008 O 753.643 0.0353066 2.71477 0
M  V30 8009 C 752.099 2.61168 2.47627 0
M  V30 8010 C 751.707 4.03051 1.95587 0
M  V30 8011 C 753.451 2.73472 3.24674 0
M  V30 8012 C 751.358 5.07312 3.03954 0
M  V30 8013 H 750.288 0.5518 0.513841 0
M  V30 8014 H 752.939 1.7136 0.656359 0
M  V30 8015 H 751.321 2.31379 3.21372 0
M  V30 8016 H 752.495 4.42497 1.2858 0
M  V30 8017 H 750.81 3.95158 1.31298 0
M  V30 8018 H 753.407 3.48537 4.05494 0
M  V30 8019 H 753.75 1.79953 3.75397 0
M  V30 8020 H 754.283 3.02765 2.58028 0
M  V30 8021 H 751.022 6.02525 2.58154 0
M  V30 8022 H 750.542 4.7244 3.69541 0
M  V30 8023 H 752.221 5.31867 3.6841 0
M  V30 8024 N 752.353 -0.854086 1.3245 0
M  V30 8025 C 753.602 -1.60318 1.22397 0
M  V30 8026 C 753.915 -1.9444 -0.212664 0
M  V30 8027 O 755.121 -2.67991 -0.435066 0
M  V30 8028 C 753.577 -2.8909 2.1437 0
M  V30 8029 C 753.185 -2.62391 3.63119 0
M  V30 8030 C 754.929 -3.67104 2.13155 0
M  V30 8031 C 752.836 -3.87167 4.47052 0
M  V30 8032 H 751.766 -0.601586 0.454544 0
M  V30 8033 H 754.417 -0.943023 1.57415 0
M  V30 8034 H 752.799 -3.56567 1.72268 0
M  V30 8035 H 753.973 -2.03222 4.13567 0
M  V30 8036 H 752.288 -1.97706 3.66471 0
M  V30 8037 H 754.885 -4.59696 2.731 0
M  V30 8038 H 755.228 -4.00876 1.12268 0
M  V30 8039 H 755.761 -3.06533 2.5354 0
M  V30 8040 H 752.5 -3.58536 5.48755 0
M  V30 8041 H 752.02 -4.45729 4.01355 0
M  V30 8042 H 753.699 -4.549 4.60081 0
M  V30 8043 N 753.831 -1.1567 -1.07043 0
M  V30 8044 C 755.242 -0.942408 -1.61169 0
M  V30 8045 C 755.593 0.515537 -1.89306 0
M  V30 8046 O 754.718 1.38726 -1.66084 0
M  V30 8047 C 755.313 -1.70431 -2.92812 0
M  V30 8048 C 753.872 -1.53521 -3.43669 0
M  V30 8049 C 753.019 -1.7179 -2.17678 0
M  V30 8050 H 755.97 -1.3065 -0.9009 0
M  V30 8051 H 755.991 -1.17566 -3.61882 0
M  V30 8052 H 755.503 -2.76538 -2.72302 0
M  V30 8053 H 753.604 -0.498224 -3.69254 0
M  V30 8054 H 753.717 -2.31422 -4.19501 0
M  V30 8055 H 752.081 -1.14468 -2.27529 0
M  V30 8056 H 752.864 -2.79269 -1.99659 0
M  V30 8057 N 755.309 1.25446 -0.953992 0
M  V30 8058 C 756.725 1.4539 -0.658316 0
M  V30 8059 C 756.925 1.85607 0.784356 0
M  V30 8060 O 755.981 1.98568 1.55972 0
M  V30 8061 C 757.294 2.52643 -1.6307 0
M  V30 8062 C 758.842 2.66484 -1.64181 0
M  V30 8063 C 759.317 3.76921 -2.60182 0
M  V30 8064 N 760.808 3.84331 -2.58542 0
M  V30 8065 C 761.543 4.69271 -3.29503 0
M  V30 8066 N 761.039 5.58503 -4.09934 0
M  V30 8067 N 762.832 4.6323 -3.18393 0
M  V30 8068 H 754.983 0.976337 -1.8863 0
M  V30 8069 H 757.246 0.490343 -0.811337 0
M  V30 8070 H 756.952 2.29949 -2.66114 0
M  V30 8071 H 756.826 3.50547 -1.39271 0
M  V30 8072 H 759.213 2.88545 -0.618552 0
M  V30 8073 H 759.294 1.68982 -1.92038 0
M  V30 8074 H 758.938 3.55612 -3.62633 0
M  V30 8075 H 758.868 4.73906 -2.29609 0
M  V30 8076 H 761.359 3.20544 -2.0015 0
M  V30 8077 H 761.672 6.20241 -4.61 0
M  V30 8078 H 760.017 5.58214 -4.14032 0
M  V30 8079 H 763.208 3.92527 -2.5503 0
M  V30 8080 H 763.381 5.29204 -3.73961 0
M  V30 8081 N 756.787 0.722489 1.40064 0
M  V30 8082 C 757.717 0.0892452 2.33329 0
M  V30 8083 C 758.698 -0.737992 1.53257 0
M  V30 8084 O 759.883 -0.685516 1.81698 0
M  V30 8085 C 757.013 -0.828139 3.37282 0
M  V30 8086 C 755.967 -0.106005 4.27869 0
M  V30 8087 C 755.293 -1.13957 5.22415 0
M  V30 8088 C 756.593 1.04395 5.11761 0
M  V30 8089 H 758.287 0.868269 2.86534 0
M  V30 8090 H 755.833 0.418982 1.3777 0
M  V30 8091 H 757.786 -1.28058 4.01471 0
M  V30 8092 H 756.51 -1.63914 2.82489 0
M  V30 8093 H 755.169 0.326683 3.65142 0
M  V30 8094 H 754.817 -1.9438 4.63924 0
M  V30 8095 H 754.517 -0.661233 5.83868 0
M  V30 8096 H 756.041 -1.59197 5.89482 0
M  V30 8097 H 757.455 0.670541 5.69365 0
M  V30 8098 H 755.852 1.4511 5.82291 0
M  V30 8099 H 756.922 1.87144 4.47331 0
M  V30 8100 N 758.265 -1.50454 0.469181 0
M  V30 8101 C 759.681 -1.59124 0.123226 0
M  V30 8102 C 759.881 -1.47749 -1.37013 0
M  V30 8103 O 758.937 -1.335 -2.14322 0
M  V30 8104 C 760.25 -2.93101 0.67172 0
M  V30 8105 C 761.798 -3.06491 0.634978 0
M  V30 8106 C 762.273 -4.43041 1.16098 0
M  V30 8107 N 763.764 -4.49448 1.12031 0
M  V30 8108 C 764.499 -5.53491 1.49784 0
M  V30 8109 N 763.995 -6.64798 1.94976 0
M  V30 8110 N 765.788 -5.44025 1.41399 0
M  V30 8111 H 757.939 -1.56091 1.44046 0
M  V30 8112 H 760.202 -0.737564 0.59557 0
M  V30 8113 H 759.908 -3.06895 1.7178 0
M  V30 8114 H 759.782 -3.77027 0.114222 0
M  V30 8115 H 762.169 -2.92346 -0.402187 0
M  V30 8116 H 762.25 -2.24328 1.22926 0
M  V30 8117 H 761.894 -4.57935 2.19677 0
M  V30 8118 H 761.824 -5.23794 0.542939 0
M  V30 8119 H 764.315 -3.69575 0.788828 0
M  V30 8120 H 764.628 -7.40246 2.21936 0
M  V30 8121 H 762.973 -6.65923 1.98927 0
M  V30 8122 H 766.164 -4.55955 1.05935 0
M  V30 8123 H 766.337 -6.2499 1.71147 0
M  V30 8124 N 759.743 -0.201713 -1.56304 0
M  V30 8125 C 760.706 0.702811 -2.18159 0
M  V30 8126 C 761.706 1.13619 -1.13787 0
M  V30 8127 O 762.896 1.0482 -1.39134 0
M  V30 8128 C 760.028 1.96032 -2.78898 0
M  V30 8129 H 761.221 0.163836 -2.99452 0
M  V30 8130 H 758.774 0.04791 -1.56227 0
M  V30 8131 H 759.509 2.54165 -2.01421 0
M  V30 8132 H 759.294 1.65824 -3.55309 0
M  V30 8133 H 760.784 2.60519 -3.26373 0
M  V30 8134 N 761.222 1.57436 0.0718424 0
M  V30 8135 C 762.471 1.86431 0.769826 0
M  V30 8136 C 762.784 0.794355 1.78744 0
M  V30 8137 O 763.99 0.972148 2.53499 0
M  V30 8138 C 762.446 3.307 1.42006 0
M  V30 8139 C 762.054 4.45824 0.441017 0
M  V30 8140 C 763.798 3.68894 2.10041 0
M  V30 8141 C 761.705 5.81134 1.09717 0
M  V30 8142 H 760.635 0.695474 0.291259 0
M  V30 8143 H 763.286 1.83485 0.0231224 0
M  V30 8144 H 761.668 3.28257 2.21502 0
M  V30 8145 H 762.842 4.59659 -0.32413 0
M  V30 8146 H 761.157 4.16181 -0.134886 0
M  V30 8147 H 763.754 4.67281 2.59908 0
M  V30 8148 H 764.097 2.98692 2.89981 0
M  V30 8149 H 764.63 3.73326 1.37376 0
M  V30 8150 H 761.369 6.54628 0.338095 0
M  V30 8151 H 760.889 5.711 1.83317 0
M  V30 8152 H 762.568 6.26468 1.617 0
M  V30 8153 N 762.7 -0.34323 1.53817 0
M  V30 8154 C 764.116 -0.686355 1.44088 0
M  V30 8155 C 764.316 -1.92426 0.597882 0
M  V30 8156 O 763.372 -2.52343 0.0889918 0
M  V30 8157 C 764.685 -0.878698 2.87575 0
M  V30 8158 C 766.233 -0.977296 2.97352 0
M  V30 8159 C 766.708 -1.20195 4.41947 0
M  V30 8160 N 768.199 -1.26915 4.45474 0
M  V30 8161 C 768.934 -1.46049 5.54488 0
M  V30 8162 N 768.43 -1.62354 6.73508 0
M  V30 8163 N 770.223 -1.48599 5.42102 0
M  V30 8164 H 762.374 0.470679 2.07119 0
M  V30 8165 H 764.637 0.148652 0.936273 0
M  V30 8166 H 764.343 -0.040602 3.51677 0
M  V30 8167 H 764.217 -1.78034 3.32541 0
M  V30 8168 H 766.604 -1.80591 2.3339 0
M  V30 8169 H 766.685 -0.0525498 2.55746 0
M  V30 8170 H 766.329 -0.378262 5.06489 0
M  V30 8171 H 766.259 -2.14027 4.81145 0
M  V30 8172 H 768.75 -1.15837 3.59708 0
M  V30 8173 H 769.063 -1.76591 7.52353 0
M  V30 8174 H 767.408 -1.5949 6.76453 0
M  V30 8175 H 770.599 -1.35443 4.48077 0
M  V30 8176 H 770.772 -1.6317 6.2712 0
M  V30 8177 N 764.178 -1.45556 -0.604258 0
M  V30 8178 C 765.108 -1.57327 -1.72541 0
M  V30 8179 C 766.089 -0.424637 -1.64714 0
M  V30 8180 O 767.274 -0.648196 -1.83063 0
M  V30 8181 C 764.404 -1.54279 -3.11152 0
M  V30 8182 C 763.358 -2.67893 -3.33792 0
M  V30 8183 C 762.684 -2.499 -4.72709 0
M  V30 8184 C 763.984 -4.0988 -3.23722 0
M  V30 8185 H 765.678 -2.51175 -1.62947 0
M  V30 8186 H 763.224 -1.20884 -0.782504 0
M  V30 8187 H 765.177 -1.6111 -3.89386 0
M  V30 8188 H 763.901 -0.569627 -3.21594 0
M  V30 8189 H 762.56 -2.60495 -2.57949 0
M  V30 8190 H 762.208 -1.50715 -4.79889 0
M  V30 8191 H 761.908 -3.26091 -4.88813 0
M  V30 8192 H 763.432 -2.5859 -5.5314 0
M  V30 8193 H 764.846 -4.18503 -3.91826 0
M  V30 8194 H 763.243 -4.86487 -3.51355 0
M  V30 8195 H 764.313 -4.31553 -2.21111 0
M  V30 8196 N 765.656 0.84705 -1.32902 0
M  V30 8197 C 766.884 1.63403 -1.26913 0
M  V30 8198 C 767.299 1.88108 0.161483 0
M  V30 8199 O 766.656 1.45546 1.10103 0
M  V30 8200 C 766.707 2.98896 -2.03331 0
M  V30 8201 O 766.428 2.75281 -3.40811 0
M  V30 8202 C 767.929 3.93335 -2.04457 0
M  V30 8203 H 765.149 0.508701 -0.437566 0
M  V30 8204 H 767.693 1.05567 -1.75145 0
M  V30 8205 H 765.848 3.53356 -1.58802 0
M  V30 8206 H 766.262 3.61504 -3.8002 0
M  V30 8207 H 767.736 4.85647 -2.62394 0
M  V30 8208 H 768.213 4.26885 -1.03274 0
M  V30 8209 H 768.819 3.44812 -2.48967 0
M  V30 8210 N 767.134 1.16236 1.06428 0
M  V30 8211 C 768.545 0.950942 1.60667 0
M  V30 8212 C 768.896 -0.505491 1.89576 0
M  V30 8213 O 768.021 -1.37843 1.66818 0
M  V30 8214 C 768.616 1.71982 2.91904 0
M  V30 8215 C 767.175 1.55342 3.4285 0
M  V30 8216 C 766.322 1.72942 2.16763 0
M  V30 8217 H 769.273 1.31126 0.893959 0
M  V30 8218 H 769.294 1.19483 3.61253 0
M  V30 8219 H 768.806 2.77978 2.70831 0
M  V30 8220 H 766.907 0.5178 3.68985 0
M  V30 8221 H 767.02 2.33643 4.18267 0
M  V30 8222 H 765.384 1.15673 2.26918 0
M  V30 8223 H 766.167 2.80324 1.98175 0
M  V30 8224 N 768.612 -1.24939 0.960631 0
M  V30 8225 C 769.858 -1.93104 0.61958 0
M  V30 8226 C 770.191 -1.74991 -0.84212 0
M  V30 8227 O 769.466 -1.09867 -1.60498 0
M  V30 8228 C 769.749 -3.46326 0.986422 0
M  V30 8229 C 769.602 -3.73638 2.50429 0
M  V30 8230 C 770.921 -4.37067 0.515827 0
M  V30 8231 H 768.04 -0.701311 0.226566 0
M  V30 8232 H 770.682 -1.47442 1.19836 0
M  V30 8233 H 768.832 -3.85348 0.493907 0
M  V30 8234 H 770.504 -3.44217 3.07103 0
M  V30 8235 H 768.747 -3.19035 2.93937 0
M  V30 8236 H 769.418 -4.80815 2.71147 0
M  V30 8237 H 771.894 -4.05381 0.938389 0
M  V30 8238 H 770.77 -5.43022 0.80114 0
M  V30 8239 H 771.031 -4.38224 -0.584171 0
M  V30 8240 N 770.09 -0.729906 -1.39679 0
M  V30 8241 C 771.367 -0.202149 -1.94553 0
M  V30 8242 C 771.747 1.29507 -1.66707 0
M  V30 8243 O 771.095 2.05819 -0.992517 0
M  V30 8244 C 771.305 -0.530279 -3.44948 0
M  V30 8245 C 772.653 -0.476808 -4.21914 0
M  V30 8246 O 773.677 -0.467171 -3.53123 0
M  V30 8247 O 772.536 -0.466869 -5.44502 0
M  V30 8248 H 769.63 -0.0351644 -0.826252 0
M  V30 8249 H 772.176 -0.808417 -1.49207 0
M  V30 8250 H 770.948 -1.56526 -3.5863 0
M  V30 8251 H 770.571 0.10522 -3.97461 0
M  V30 8252 N 771.568 1.50203 -0.477153 0
M  V30 8253 C 772.808 2.04265 0.0744065 0
M  V30 8254 C 773.172 1.35082 1.36443 0
M  V30 8255 O 774.373 1.79732 1.99875 0
M  V30 8256 C 772.644 3.56539 0.247874 0
M  V30 8257 S 774.203 4.32219 0.757117 0
M  V30 8258 H 771.021 0.71088 0.0130891 0
M  V30 8259 H 773.623 1.8453 -0.645678 0
M  V30 8260 H 772.327 4.04443 -0.696709 0
M  V30 8261 H 771.858 3.80638 0.993896 0
M  V30 8262 H 773.873 4.52789 2.0297 0
M  V30 8263 N 773.046 0.209999 1.56195 0
M  V30 8264 C 774.294 -0.423974 1.97603 0
M  V30 8265 C 774.615 -1.61112 1.09854 0
M  V30 8266 O 773.885 -1.95134 0.173032 0
M  V30 8267 H 772.465 -0.159629 0.729745 0
M  V30 8268 H 775.127 0.300205 1.92574 0
M  V30 8269 H 774.223 -0.75809 3.02753 0
M  V30 8270 N 774.524 -1.57472 -0.0634922 0
M  V30 8271 C 775.772 -1.87283 -0.759563 0
M  V30 8272 C 776.093 -0.803135 -1.77693 0
M  V30 8273 O 775.363 0.167293 -1.95184 0
M  V30 8274 H 773.943 -0.691106 -0.283516 0
M  V30 8275 H 776.605 -1.94864 -0.0376091 0
M  V30 8276 H 775.701 -2.85064 -1.27062 0
M  V30 8277 N 776.003 0.335068 -1.53997 0
M  V30 8278 C 777.228 1.09859 -1.75914 0
M  V30 8279 C 777.653 1.81308 -0.500915 0
M  V30 8280 O 777.011 1.72854 0.54693 0
M  V30 8281 C 777.059 2.08122 -2.94478 0
M  V30 8282 O 776.163 3.15805 -2.65219 0
M  V30 8283 H 775.504 0.317313 -0.583274 0
M  V30 8284 H 778.034 0.382872 -2.00986 0
M  V30 8285 H 778.044 2.51195 -3.21504 0
M  V30 8286 H 776.719 1.55517 -3.8573 0
M  V30 8287 H 775.296 2.77489 -2.49107 0
M  V30 8288 N 777.481 1.45874 0.596531 0
M  V30 8289 C 778.706 1.54247 1.38646 0
M  V30 8290 C 779.131 0.179571 1.87241 0
M  V30 8291 O 778.489 -0.837831 1.6078 0
M  V30 8292 C 778.537 2.54015 2.55946 0
M  V30 8293 O 777.641 2.06561 3.5694 0
M  V30 8294 H 776.982 0.519555 0.413471 0
M  V30 8295 H 779.512 1.91327 0.724936 0
M  V30 8296 H 779.522 2.73179 3.03047 0
M  V30 8297 H 778.197 3.52994 2.19928 0
M  V30 8298 H 776.774 1.97324 3.16414 0
M  V30 8299 N 778.959 -0.83999 1.33349 0
M  V30 8300 C 780.184 -1.63249 1.27924 0
M  V30 8301 C 780.609 -1.87523 -0.147193 0
M  V30 8302 O 779.967 -1.43853 -1.10345 0
M  V30 8303 C 780.015 -2.96046 2.05886 0
M  V30 8304 O 779.119 -3.87303 1.4167 0
M  V30 8305 H 778.46 -0.49715 0.440157 0
M  V30 8306 H 780.99 -1.04512 1.75893 0
M  V30 8307 H 781 -3.45752 2.16609 0
M  V30 8308 H 779.675 -2.77701 3.09605 0
M  V30 8309 H 778.252 -3.45789 1.39585 0
M  V30 8310 N 780.437 -1.16799 -1.0581 0
M  V30 8311 C 781.685 -0.950642 -1.78346 0
M  V30 8312 C 782.006 0.522524 -1.87869 0
M  V30 8313 O 781.276 1.3795 -1.39092 0
M  V30 8314 H 779.856 -0.348736 -0.6606 0
M  V30 8315 H 782.518 -1.47158 -1.27791 0
M  V30 8316 H 781.614 -1.37359 -2.80248 0
M  V30 8317 N 781.915 1.24427 -0.967243 0
M  V30 8318 C 783.14 1.9708 -0.646069 0
M  V30 8319 C 783.565 1.71272 0.777665 0
M  V30 8320 O 782.923 0.976179 1.52776 0
M  V30 8321 C 782.971 3.48501 -0.926266 0
M  V30 8322 O 782.075 4.12398 -0.0114653 0
M  V30 8323 H 781.416 0.617423 -0.244304 0
M  V30 8324 H 783.946 1.58215 -1.29727 0
M  V30 8325 H 783.956 3.98885 -0.857619 0
M  V30 8326 H 782.631 3.66613 -1.96386 0
M  V30 8327 H 781.208 3.72661 -0.133396 0
M  V30 8328 N 783.393 0.737304 1.3929 0
M  V30 8329 C 784.618 0.295237 2.05288 0
M  V30 8330 C 785.043 -1.06235 1.55228 0
M  V30 8331 O 784.401 -1.67365 0.697043 0
M  V30 8332 C 784.449 0.309146 3.59272 0
M  V30 8333 O 783.553 -0.702437 4.06374 0
M  V30 8334 H 782.894 0.133762 0.650387 0
M  V30 8335 H 785.424 1.00387 1.78279 0
M  V30 8336 H 785.434 0.154336 4.07708 0
M  V30 8337 H 784.109 1.29974 3.95069 0
M  V30 8338 H 782.686 -0.513574 3.69346 0
M  V30 8339 N 784.871 -1.49948 0.485112 0
M  V30 8340 C 786.096 -2.073 -0.0645059 0
M  V30 8341 C 786.521 -1.345 -1.31497 0
M  V30 8342 O 785.879 -0.39687 -1.76903 0
M  V30 8343 C 785.927 -3.59201 -0.317304 0
M  V30 8344 O 785.031 -3.88085 -1.39514 0
M  V30 8345 H 784.372 -0.663723 0.0191822 0
M  V30 8346 H 786.902 -1.92963 0.680179 0
M  V30 8347 H 786.912 -4.04227 -0.553604 0
M  V30 8348 H 785.587 -4.11602 0.596387 0
M  V30 8349 H 784.164 -3.54885 -1.14504 0
M  V30 8350 N 786.349 -0.21828 -1.56081 0
M  V30 8351 C 787.597 0.413488 -1.97825 0
M  V30 8352 C 787.918 1.60527 -1.10707 0
M  V30 8353 O 787.188 1.9504 -0.183378 0
M  V30 8354 H 785.768 0.155757 -0.730581 0
M  V30 8355 H 788.43 -0.310413 -1.92412 0
M  V30 8356 H 787.526 0.742024 -3.03151 0
M  V30 8357 N 787.827 1.57504 0.0551401 0
M  V30 8358 C 789.075 1.87684 0.74962 0
M  V30 8359 C 789.396 0.812547 1.77264 0
M  V30 8360 O 788.666 -0.15694 1.9527 0
M  V30 8361 H 787.246 0.6926 0.279846 0
M  V30 8362 H 789.908 1.94881 0.0272745 0
M  V30 8363 H 789.004 2.85734 1.25548 0
M  V30 8364 N 789.305 -0.326896 1.54172 0
M  V30 8365 C 790.53 -1.08924 1.76494 0
M  V30 8366 C 790.955 -1.81039 0.510523 0
M  V30 8367 O 790.313 -1.73141 -0.537756 0
M  V30 8368 C 790.361 -2.06558 2.95578 0
M  V30 8369 O 789.465 -3.14394 2.6689 0
M  V30 8370 H 788.806 -0.314216 0.584948 0
M  V30 8371 H 791.336 -0.372207 2.01186 0
M  V30 8372 H 791.346 -2.49487 3.22832 0
M  V30 8373 H 790.021 -1.53469 3.86549 0
M  V30 8374 H 788.598 -2.76164 2.50576 0
M  V30 8375 N 790.784 -1.46188 -0.588786 0
M  V30 8376 C 792.032 -1.50885 -1.34455 0
M  V30 8377 C 792.353 -0.159555 -1.94346 0
M  V30 8378 O 791.623 0.813239 -1.78222 0
M  V30 8379 H 790.203 -0.555707 -0.499198 0
M  V30 8380 H 792.865 -1.82277 -0.690014 0
M  V30 8381 H 791.961 -2.25816 -2.15438 0
M  V30 8382 N 792.262 0.832906 -1.33792 0
M  V30 8383 C 793.49 1.62048 -1.28639 0
M  V30 8384 C 793.905 1.88269 0.141522 0
M  V30 8385 O 793.262 1.46706 1.08553 0
M  V30 8386 C 793.313 2.96722 -2.0649 0
M  V30 8387 O 793.034 2.7165 -3.43712 0
M  V30 8388 C 794.535 3.91144 -2.08617 0
M  V30 8389 H 791.755 0.504032 -0.442937 0
M  V30 8390 H 794.299 1.03704 -1.76255 0
M  V30 8391 H 792.454 3.51652 -1.62541 0
M  V30 8392 H 792.868 3.57453 -3.83833 0
M  V30 8393 H 794.342 4.82837 -2.67531 0
M  V30 8394 H 794.819 4.25766 -1.07796 0
M  V30 8395 H 795.425 3.42152 -2.52611 0
M  V30 8396 N 793.74 1.17359 1.05189 0
M  V30 8397 C 794.986 0.973414 1.78595 0
M  V30 8398 C 795.341 -0.492713 1.85984 0
M  V30 8399 O 794.634 -1.361 1.3486 0
M  V30 8400 C 794.828 1.54821 3.22126 0
M  V30 8401 C 794.657 3.06871 3.28725 0
M  V30 8402 C 793.427 3.75602 3.38011 0
M  V30 8403 C 795.625 4.04467 3.17665 0
M  V30 8404 N 793.607 5.15257 3.33741 0
M  V30 8405 C 794.978 5.30574 3.20766 0
M  V30 8406 C 797.033 3.96138 3.01627 0
M  V30 8407 C 795.736 6.49319 3.09479 0
M  V30 8408 C 797.762 5.14467 2.91681 0
M  V30 8409 C 797.124 6.3946 2.95416 0
M  V30 8410 H 793.223 0.410092 0.665844 0
M  V30 8411 H 795.807 1.48944 1.25395 0
M  V30 8412 H 793.978 1.05853 3.73697 0
M  V30 8413 H 795.71 1.28467 3.83768 0
M  V30 8414 H 792.465 3.26282 3.43273 0
M  V30 8415 H 792.889 5.88263 3.35076 0
M  V30 8416 H 797.531 3.00345 2.97578 0
M  V30 8417 H 795.249 7.45322 3.12283 0
M  V30 8418 H 798.835 5.09803 2.80343 0
M  V30 8419 H 797.715 7.29483 2.87792 0
M  V30 8420 N 795.218 -1.23913 0.973828 0
M  V30 8421 C 796.443 -1.96735 0.656511 0
M  V30 8422 C 796.868 -1.71682 -0.768571 0
M  V30 8423 O 796.226 -0.984267 -1.52256 0
M  V30 8424 C 796.274 -3.48004 0.944735 0
M  V30 8425 O 795.378 -4.12387 0.0333357 0
M  V30 8426 H 794.719 -0.616119 0.247575 0
M  V30 8427 H 797.249 -1.57525 1.30564 0
M  V30 8428 H 797.259 -3.98424 0.87876 0
M  V30 8429 H 795.934 -3.65567 1.98328 0
M  V30 8430 H 794.511 -3.72585 0.153157 0
M  V30 8431 N 796.696 -0.74468 -1.38897 0
M  V30 8432 C 798.112 -0.421302 -1.53939 0
M  V30 8433 C 798.312 1.06668 -1.70951 0
M  V30 8434 O 797.368 1.85278 -1.71547 0
M  V30 8435 C 798.681 -1.21278 -2.75159 0
M  V30 8436 C 800.229 -1.20196 -2.89001 0
M  V30 8437 C 800.704 -1.97621 -4.13171 0
M  V30 8438 N 802.195 -1.94836 -4.2023 0
M  V30 8439 C 802.93 -2.51545 -5.15279 0
M  V30 8440 N 802.426 -3.1693 -6.16058 0
M  V30 8441 N 804.219 -2.41524 -5.07565 0
M  V30 8442 H 796.37 -1.70914 -1.26103 0
M  V30 8443 H 798.633 -0.724058 -0.611919 0
M  V30 8444 H 798.339 -2.26609 -2.68963 0
M  V30 8445 H 798.213 -0.823677 -3.68097 0
M  V30 8446 H 800.6 -0.156742 -2.94683 0
M  V30 8447 H 800.681 -1.63051 -1.97099 0
M  V30 8448 H 800.325 -3.02149 -4.0825 0
M  V30 8449 H 800.255 -1.52166 -5.04136 0
M  V30 8450 H 802.746 -1.4721 -3.48048 0
M  V30 8451 H 803.059 -3.57644 -6.85062 0
M  V30 8452 H 801.404 -3.21023 -6.16417 0
M  V30 8453 H 804.595 -1.90077 -4.27771 0
M  V30 8454 H 804.768 -2.86016 -5.81462 0
M  V30 8455 N 798.174 1.49689 -0.493057 0
M  V30 8456 C 799.422 2.02027 0.0541642 0
M  V30 8457 C 799.743 1.37554 1.38217 0
M  V30 8458 O 799.013 0.528174 1.88646 0
M  V30 8459 H 797.593 0.746646 0.0230069 0
M  V30 8460 H 800.255 1.83795 -0.648489 0
M  V30 8461 H 799.351 3.11523 0.189652 0
M  V30 8462 N 799.652 0.226554 1.55963 0
M  V30 8463 C 800.9 -0.402991 1.98041 0
M  V30 8464 C 801.221 -1.59938 1.11557 0
M  V30 8465 O 800.491 -1.9494 0.193719 0
M  V30 8466 H 799.071 -0.15188 0.731397 0
M  V30 8467 H 801.733 0.320613 1.92245 0
M  V30 8468 H 800.829 -0.725937 3.0354 0
M  V30 8469 N 801.13 -1.57531 -0.0467866 0
M  V30 8470 C 802.541 -1.76945 -0.595603 0
M  V30 8471 C 802.892 -0.855354 -1.76573 0
M  V30 8472 O 802.017 -0.045668 -2.16352 0
M  V30 8473 C 802.612 -3.20881 -1.08725 0
M  V30 8474 C 801.171 -3.41553 -1.58172 0
M  V30 8475 C 800.318 -2.72533 -0.511968 0
M  V30 8476 H 803.269 -1.57682 0.179436 0
M  V30 8477 H 803.29 -3.26419 -1.95528 0
M  V30 8478 H 802.802 -3.87385 -0.235398 0
M  V30 8479 H 800.903 -2.80199 -2.456 0
M  V30 8480 H 801.016 -4.50104 -1.64143 0
M  V30 8481 H 799.38 -2.35797 -0.962899 0
M  V30 8482 H 800.163 -3.41709 0.330117 0
M  V30 8483 N 802.608 0.318715 -1.54344 0
M  V30 8484 C 804.019 0.89285 -1.63967 0
M  V30 8485 C 804.37 1.88712 -0.536855 0
M  V30 8486 O 803.495 2.13877 0.329457 0
M  V30 8487 C 804.09 1.62618 -2.97222 0
M  V30 8488 C 802.649 2.14897 -3.09025 0
M  V30 8489 C 801.796 0.975909 -2.5956 0
M  V30 8490 H 804.747 0.0961687 -1.58408 0
M  V30 8491 H 804.768 2.4907 -2.87653 0
M  V30 8492 H 804.28 0.902286 -3.77466 0
M  V30 8493 H 802.381 2.90387 -2.33465 0
M  V30 8494 H 802.494 2.39565 -4.14904 0
M  V30 8495 H 800.858 1.35646 -2.15574 0
M  V30 8496 H 801.641 0.266253 -3.42266 0
M  V30 8497 N 804.086 1.46499 0.581025 0
M  V30 8498 C 805.033 1.5719 1.68997 0
M  V30 8499 C 806.003 0.416114 1.60803 0
M  V30 8500 O 807.188 0.633086 1.79991 0
M  V30 8501 C 804.328 1.56973 3.07333 0
M  V30 8502 C 803.441 2.83298 3.26139 0
M  V30 8503 C 802.576 2.74574 4.54734 0
M  V30 8504 C 801.615 3.9583 4.66889 0
M  V30 8505 N 800.752 3.85482 5.86811 0
M  V30 8506 H 805.592 2.51914 1.59196 0
M  V30 8507 H 803.129 1.24975 0.775857 0
M  V30 8508 H 805.087 1.54832 3.87405 0
M  V30 8509 H 803.717 0.657803 3.16027 0
M  V30 8510 H 802.769 2.95411 2.3966 0
M  V30 8511 H 804.081 3.7316 3.30988 0
M  V30 8512 H 803.235 2.70548 5.43036 0
M  V30 8513 H 801.974 1.82354 4.52325 0
M  V30 8514 H 800.979 4.00186 3.77003 0
M  V30 8515 H 802.204 4.89148 4.71075 0
M  V30 8516 H 800.15 2.96051 5.85397 0
M  V30 8517 H 800.067 4.69002 5.92936 0
M  V30 8518 H 801.335 3.85434 6.7754 0
M  V30 8519 N 805.565 -0.825799 1.34232 0
M  V30 8520 C 806.512 -1.93651 1.2557 0
M  V30 8521 C 807.482 -1.65578 0.131536 0
M  V30 8522 O 808.667 -1.88231 0.312027 0
M  V30 8523 C 805.807 -3.29862 1.01415 0
M  V30 8524 C 804.92 -3.70247 2.22579 0
M  V30 8525 C 804.055 -4.95392 1.91731 0
M  V30 8526 C 803.094 -5.28349 3.09053 0
M  V30 8527 N 802.231 -6.44671 2.78107 0
M  V30 8528 H 807.071 -2.00392 2.20561 0
M  V30 8529 H 804.608 -0.980441 1.09662 0
M  V30 8530 H 806.566 -4.08356 0.854485 0
M  V30 8531 H 805.196 -3.22642 0.100936 0
M  V30 8532 H 804.248 -2.87169 2.49476 0
M  V30 8533 H 805.56 -3.90575 3.10246 0
M  V30 8534 H 804.714 -5.81665 1.72484 0
M  V30 8535 H 803.453 -4.77059 1.0132 0
M  V30 8536 H 802.458 -4.40574 3.289 0
M  V30 8537 H 803.683 -5.48622 4.00239 0
M  V30 8538 H 801.629 -6.278 1.9027 0
M  V30 8539 H 801.546 -6.65158 3.59306 0
M  V30 8540 H 802.814 -7.34022 2.62358 0
M  V30 8541 N 807.043 -1.17915 -1.04565 0
M  V30 8542 C 807.953 -0.916449 -2.15959 0
M  V30 8543 C 808.969 0.117655 -1.73602 0
M  V30 8544 O 810.145 -0.063089 -2.01301 0
M  V30 8545 C 807.21 -0.440262 -3.43893 0
M  V30 8546 C 806.271 -1.54172 -4.00661 0
M  V30 8547 C 805.504 -1.08816 -5.22489 0
M  V30 8548 O 805.727 0.0551547 -5.70373 0
M  V30 8549 O 804.661 -1.88383 -5.7166 0
M  V30 8550 H 808.487 -1.8484 -2.40972 0
M  V30 8551 H 806.072 -0.960552 -1.14428 0
M  V30 8552 H 807.954 -0.182537 -4.21004 0
M  V30 8553 H 806.629 0.46346 -3.20365 0
M  V30 8554 H 805.536 -1.85341 -3.24961 0
M  V30 8555 H 806.869 -2.42139 -4.2852 0
M  V30 8556 N 808.521 1.23394 -0.980386 0
M  V30 8557 C 809.431 2.28561 -0.528864 0
M  V30 8558 C 810.447 1.68946 0.416329 0
M  V30 8559 O 811.623 1.99355 0.286251 0
M  V30 8560 C 808.688 3.46323 0.16155 0
M  V30 8561 C 807.749 4.21297 -0.825044 0
M  V30 8562 C 806.982 5.33437 -0.167483 0
M  V30 8563 O 807.205 5.60812 1.04146 0
M  V30 8564 O 806.139 5.95637 -0.866047 0
M  V30 8565 H 809.965 2.69326 -1.40346 0
M  V30 8566 H 807.55 1.29325 -0.748019 0
M  V30 8567 H 809.432 4.17811 0.548841 0
M  V30 8568 H 808.107 3.0751 1.01092 0
M  V30 8569 H 807.014 3.52134 -1.26303 0
M  V30 8570 H 808.347 4.6396 -1.64322 0
M  V30 8571 N 809.999 0.752036 1.385 0
M  V30 8572 C 810.929 0.138718 2.33088 0
M  V30 8573 C 811.91 -0.705318 1.54788 0
M  V30 8574 O 813.095 -0.646821 1.83112 0
M  V30 8575 C 810.225 -0.75641 3.38963 0
M  V30 8576 C 809.179 -0.0152239 4.27997 0
M  V30 8577 C 808.505 -1.0285 5.24715 0
M  V30 8578 C 809.805 1.15226 5.09431 0
M  V30 8579 H 811.499 0.928852 2.84627 0
M  V30 8580 H 809.045 0.448111 1.3685 0
M  V30 8581 H 810.998 -1.19513 4.04097 0
M  V30 8582 H 809.722 -1.57885 2.85902 0
M  V30 8583 H 808.381 0.404061 3.64366 0
M  V30 8584 H 808.029 -1.84496 4.67943 0
M  V30 8585 H 807.729 -0.537238 5.85139 0
M  V30 8586 H 809.253 -1.46657 5.92726 0
M  V30 8587 H 810.667 0.791161 5.67815 0
M  V30 8588 H 809.064 1.57428 5.79082 0
M  V30 8589 H 810.134 1.9659 4.43261 0
M  V30 8590 N 811.477 -1.49425 0.500989 0
M  V30 8591 C 812.723 -2.02753 -0.0436 0
M  V30 8592 C 813.056 -1.37991 -1.36646 0
M  V30 8593 O 812.331 -0.515597 -1.87542 0
M  V30 8594 C 812.614 -3.59565 -0.19616 0
M  V30 8595 C 812.467 -4.34855 1.14982 0
M  V30 8596 C 813.786 -4.30014 -0.936795 0
M  V30 8597 H 810.905 -0.73686 -0.0143711 0
M  V30 8598 H 813.547 -1.78448 0.652397 0
M  V30 8599 H 811.697 -3.80405 -0.788959 0
M  V30 8600 H 813.369 -4.25512 1.7815 0
M  V30 8601 H 811.612 -3.97414 1.73911 0
M  V30 8602 H 812.283 -5.42933 0.996385 0
M  V30 8603 H 814.759 -4.1383 -0.434036 0
M  V30 8604 H 813.635 -5.39483 -1.01238 0
M  V30 8605 H 813.896 -3.95257 -1.9805 0
M  V30 8606 N 812.955 -0.234822 -1.55841 0
M  V30 8607 C 814.203 0.392483 -1.98252 0
M  V30 8608 C 814.524 1.59344 -1.12404 0
M  V30 8609 O 813.794 1.94834 -0.204055 0
M  V30 8610 H 812.374 0.147999 -0.732192 0
M  V30 8611 H 815.036 -0.330804 -1.92072 0
M  V30 8612 H 814.132 0.709829 -3.03921 0
M  V30 8613 N 814.433 1.57553 0.0384317 0
M  V30 8614 C 815.681 1.88468 0.729672 0
M  V30 8615 C 816.002 0.831302 1.76393 0
M  V30 8616 O 815.272 -0.13622 1.95426 0
M  V30 8617 H 813.852 0.695529 0.272485 0
M  V30 8618 H 816.514 1.94899 0.0066032 0
M  V30 8619 H 815.61 2.8705 1.22511 0
M  V30 8620 N 815.911 -0.310526 1.54511 0
M  V30 8621 C 816.858 -1.38264 1.84802 0
M  V30 8622 C 817.828 -1.50808 0.696141 0
M  V30 8623 O 819.013 -1.6582 0.943846 0
M  V30 8624 C 816.153 -2.74422 2.09252 0
M  V30 8625 C 815.266 -2.70405 3.36906 0
M  V30 8626 C 814.401 -3.98495 3.51248 0
M  V30 8627 C 813.44 -3.88836 4.72729 0
M  V30 8628 N 812.577 -5.08683 4.83928 0
M  V30 8629 H 817.417 -1.11732 2.76261 0
M  V30 8630 H 814.954 -0.540609 1.36806 0
M  V30 8631 H 816.912 -3.53593 2.21422 0
M  V30 8632 H 815.542 -2.99235 1.2107 0
M  V30 8633 H 814.594 -1.83151 3.33406 0
M  V30 8634 H 815.906 -2.59155 4.26193 0
M  V30 8635 H 815.06 -4.861 3.63031 0
M  V30 8636 H 813.799 -4.12567 2.60077 0
M  V30 8637 H 812.804 -2.99615 4.60989 0
M  V30 8638 H 814.029 -3.76318 5.65298 0
M  V30 8639 H 811.975 -5.23236 3.95677 0
M  V30 8640 H 811.892 -4.99819 5.67201 0
M  V30 8641 H 813.16 -5.97966 5.00057 0
M  V30 8642 N 817.389 -1.46805 -0.573248 0
M  V30 8643 C 818.336 -1.58084 -1.68161 0
M  V30 8644 C 819.306 -0.424636 -1.6058 0
M  V30 8645 O 820.491 -0.642623 -1.79652 0
M  V30 8646 C 817.631 -1.58601 -3.06496 0
M  V30 8647 C 816.744 -2.85023 -3.24632 0
M  V30 8648 C 815.879 -2.76981 -4.53271 0
M  V30 8649 C 814.918 -3.983 -4.64783 0
M  V30 8650 N 814.055 -3.88589 -5.84759 0
M  V30 8651 H 818.895 -2.52755 -1.57858 0
M  V30 8652 H 816.432 -1.25385 -0.769218 0
M  V30 8653 H 818.39 -1.56885 -3.86579 0
M  V30 8654 H 817.02 -0.674553 -3.15673 0
M  V30 8655 H 816.072 -2.96678 -2.38089 0
M  V30 8656 H 817.384 -3.7491 -3.29004 0
M  V30 8657 H 816.538 -2.73424 -5.41594 0
M  V30 8658 H 815.277 -1.84751 -4.51352 0
M  V30 8659 H 814.282 -4.02179 -3.74876 0
M  V30 8660 H 815.507 -4.91639 -4.68474 0
M  V30 8661 H 813.453 -2.99151 -5.83819 0
M  V30 8662 H 813.37 -4.7214 -5.90441 0
M  V30 8663 H 814.638 -3.89022 -6.75486 0
M  V30 8664 N 818.867 0.818669 -1.34668 0
M  V30 8665 C 819.814 1.92983 -1.26595 0
M  V30 8666 C 820.784 1.65506 -0.140315 0
M  V30 8667 O 821.969 1.88063 -0.322005 0
M  V30 8668 C 819.109 3.2932 -1.03163 0
M  V30 8669 C 818.222 3.69061 -2.24539 0
M  V30 8670 C 817.357 4.94368 -1.94355 0
M  V30 8671 C 816.396 5.26702 -3.11851 0
M  V30 8672 N 815.533 6.43187 -2.81522 0
M  V30 8673 H 820.373 1.99219 -2.2162 0
M  V30 8674 H 817.91 0.974612 -1.1018 0
M  V30 8675 H 819.868 4.07897 -0.87613 0
M  V30 8676 H 818.498 3.22584 -0.118045 0
M  V30 8677 H 817.55 2.85842 -2.50995 0
M  V30 8678 H 818.862 3.88924 -3.12313 0
M  V30 8679 H 818.016 5.80742 -1.75566 0
M  V30 8680 H 816.755 4.76515 -1.03848 0
M  V30 8681 H 815.76 4.38823 -3.31231 0
M  V30 8682 H 816.985 5.46492 -4.03142 0
M  V30 8683 H 814.931 6.26783 -1.93596 0
M  V30 8684 H 814.848 6.63243 -3.62829 0
M  V30 8685 H 816.116 7.32621 -2.66247 0
M  V30 8686 N 820.346 1.18468 1.03938 0
M  V30 8687 C 821.594 0.978895 1.76811 0
M  V30 8688 C 821.915 -0.49257 1.88676 0
M  V30 8689 O 821.185 -1.3572 1.41269 0
M  V30 8690 H 819.765 0.359201 0.654968 0
M  V30 8691 H 822.427 1.49173 1.25433 0
M  V30 8692 H 821.523 1.418 2.78027 0
M  V30 8693 N 821.824 -1.22873 0.986916 0
M  V30 8694 C 823.24 -1.43594 0.696633 0
M  V30 8695 C 823.44 -1.87622 -0.734869 0
M  V30 8696 O 822.496 -2.02633 -1.50652 0
M  V30 8697 C 823.809 -2.48231 1.69711 0
M  V30 8698 C 825.357 -2.62037 1.71188 0
M  V30 8699 C 825.832 -3.6989 2.70084 0
M  V30 8700 N 827.323 -3.77341 2.68641 0
M  V30 8701 C 828.058 -4.6037 3.41829 0
M  V30 8702 N 827.554 -5.47438 4.24598 0
M  V30 8703 N 829.347 -4.54626 3.30563 0
M  V30 8704 H 821.498 -0.925982 1.91153 0
M  V30 8705 H 823.761 -0.46866 0.824052 0
M  V30 8706 H 823.467 -2.22812 2.72117 0
M  V30 8707 H 823.341 -3.46731 1.48516 0
M  V30 8708 H 825.728 -2.86803 0.694837 0
M  V30 8709 H 825.809 -1.63831 1.96451 0
M  V30 8710 H 825.453 -3.45872 3.71934 0
M  V30 8711 H 825.383 -4.67652 2.42093 0
M  V30 8712 H 827.874 -3.15124 2.08578 0
M  V30 8713 H 828.187 -6.078 4.77283 0
M  V30 8714 H 826.532 -5.4704 4.28687 0
M  V30 8715 H 829.723 -3.85627 2.65347 0
M  V30 8716 H 829.896 -5.19103 3.8786 0
M  V30 8717 N 823.302 -0.75937 -1.38099 0
M  V30 8718 C 824.53 -0.329111 -2.04266 0
M  V30 8719 C 824.945 1.04453 -1.57274 0
M  V30 8720 O 824.302 1.66449 -0.748397 0
M  V30 8721 C 824.353 -0.349192 -3.5981 0
M  V30 8722 O 824.074 -1.66863 -4.05078 0
M  V30 8723 C 825.575 0.0942106 -4.432 0
M  V30 8724 H 822.795 -0.13971 -0.656294 0
M  V30 8725 H 825.339 -1.02984 -1.76677 0
M  V30 8726 H 823.494 0.302846 -3.86214 0
M  V30 8727 H 823.908 -1.59877 -4.9954 0
M  V30 8728 H 825.382 0.0290004 -5.51992 0
M  V30 8729 H 825.859 1.1429 -4.24069 0
M  V30 8730 H 826.465 -0.529171 -4.21995 0
M  V30 8731 N 824.78 1.49157 -0.508906 0
M  V30 8732 C 826.026 2.03385 0.0248089 0
M  V30 8733 C 826.381 1.381 1.33964 0
M  V30 8734 O 825.674 0.510317 1.84679 0
M  V30 8735 C 825.868 3.56687 0.225717 0
M  V30 8736 C 825.697 4.36832 -1.06809 0
M  V30 8737 C 824.467 4.78556 -1.6221 0
M  V30 8738 C 826.665 4.74934 -1.97338 0
M  V30 8739 N 824.647 5.43158 -2.86098 0
M  V30 8740 C 826.018 5.39336 -3.05805 0
M  V30 8741 C 828.073 4.56872 -1.97921 0
M  V30 8742 C 826.776 5.87587 -4.1489 0
M  V30 8743 C 828.802 5.06089 -3.05987 0
M  V30 8744 C 828.164 5.70499 -4.13172 0
M  V30 8745 H 824.263 0.781349 -0.0318988 0
M  V30 8746 H 826.847 1.82233 -0.685518 0
M  V30 8747 H 825.018 3.77707 0.905108 0
M  V30 8748 H 826.75 3.97554 0.757147 0
M  V30 8749 H 823.505 4.59017 -1.16621 0
M  V30 8750 H 823.929 5.8004 -3.49116 0
M  V30 8751 H 828.571 4.06474 -1.16357 0
M  V30 8752 H 826.289 6.37002 -4.97247 0
M  V30 8753 H 829.875 4.93919 -3.07466 0
M  V30 8754 H 828.755 6.07893 -4.95415 0
M  V30 8755 N 826.258 0.243083 1.55714 0
M  V30 8756 C 827.506 -0.381964 1.98458 0
M  V30 8757 C 827.827 -1.58745 1.13247 0
M  V30 8758 O 827.097 -1.94723 0.214384 0
M  V30 8759 H 825.677 -0.144114 0.732967 0
M  V30 8760 H 828.339 0.340985 1.91894 0
M  V30 8761 H 827.435 -0.693702 3.04293 0
M  V30 8762 N 827.736 -1.57571 -0.0300757 0
M  V30 8763 C 829.147 -1.77567 -0.576802 0
M  V30 8764 C 829.498 -0.874034 -1.75656 0
M  V30 8765 O 828.623 -0.0686124 -2.16291 0
M  V30 8766 C 829.218 -3.22016 -1.05315 0
M  V30 8767 C 827.777 -3.43212 -1.5454 0
M  V30 8768 C 826.924 -2.73061 -0.483033 0
M  V30 8769 H 829.875 -1.57483 0.196151 0
M  V30 8770 H 829.896 -3.28474 -1.92055 0
M  V30 8771 H 829.408 -3.87613 -0.194298 0
M  V30 8772 H 827.509 -2.82788 -2.42615 0
M  V30 8773 H 827.622 -4.5182 -1.5936 0
M  V30 8774 H 825.986 -2.36805 -0.937835 0
M  V30 8775 H 826.769 -3.4134 0.366341 0
M  V30 8776 N 829.214 0.302327 -1.54673 0
M  V30 8777 C 830.439 1.06103 -1.78205 0
M  V30 8778 C 830.864 1.80204 -0.53926 0
M  V30 8779 O 830.222 1.73975 0.510142 0
M  V30 8780 C 830.27 2.01829 -2.98827 0
M  V30 8781 O 829.374 3.10108 -2.71858 0
M  V30 8782 H 828.715 0.30487 -0.589873 0
M  V30 8783 H 831.245 0.340153 -2.01753 0
M  V30 8784 H 831.255 2.44319 -3.2676 0
M  V30 8785 H 829.93 1.473 -3.88942 0
M  V30 8786 H 828.507 2.72142 -2.54937 0
M  V30 8787 N 830.692 1.47107 0.565454 0
M  V30 8788 C 831.917 1.57153 1.35343 0
M  V30 8789 C 832.342 0.219247 1.86818 0
M  V30 8790 O 831.7 -0.803539 1.62521 0
M  V30 8791 C 831.748 2.59387 2.50501 0
M  V30 8792 O 830.852 2.14086 3.52478 0
M  V30 8793 H 830.193 0.528209 0.402357 0
M  V30 8794 H 832.723 1.92821 0.684189 0
M  V30 8795 H 832.733 2.79546 2.97184 0
M  V30 8796 H 831.408 3.57579 2.12391 0
M  V30 8797 H 829.985 2.03991 3.12157 0
M  V30 8798 N 832.17 -0.811516 1.35101 0
M  V30 8799 C 833.398 -1.59981 1.31201 0
M  V30 8800 C 833.813 -1.8847 -0.111552 0
M  V30 8801 O 833.17 -1.48414 -1.06205 0
M  V30 8802 C 833.221 -2.934 2.11184 0
M  V30 8803 O 832.942 -2.66148 3.4799 0
M  V30 8804 C 834.443 -3.87776 2.14813 0
M  V30 8805 H 831.663 -0.496921 0.450899 0
M  V30 8806 H 834.207 -1.00886 1.77883 0
M  V30 8807 H 832.362 -3.49022 1.68115 0
M  V30 8808 H 832.776 -3.51301 3.89471 0
M  V30 8809 H 834.25 -4.7852 2.75178 0
M  V30 8810 H 834.727 -4.23997 1.14556 0
M  V30 8811 H 835.333 -3.3809 2.58022 0
M  V30 8812 N 833.648 -1.19017 -1.03309 0
M  V30 8813 C 834.578 -0.94772 -2.13402 0
M  V30 8814 C 835.559 0.117383 -1.69694 0
M  V30 8815 O 836.744 -0.0367733 -1.94165 0
M  V30 8816 C 833.874 -0.480977 -3.43953 0
M  V30 8817 C 832.828 -1.48743 -4.01322 0
M  V30 8818 C 832.154 -0.877924 -5.27443 0
M  V30 8819 C 833.454 -2.86642 -4.36616 0
M  V30 8820 H 835.148 -1.86846 -2.33942 0
M  V30 8821 H 832.694 -0.899781 -1.12427 0
M  V30 8822 H 834.647 -0.298677 -4.2034 0
M  V30 8823 H 833.371 0.475348 -3.23122 0
M  V30 8824 H 832.03 -1.65681 -3.27025 0
M  V30 8825 H 831.678 0.0858232 -5.02927 0
M  V30 8826 H 831.378 -1.54996 -5.66789 0
M  V30 8827 H 832.902 -0.706326 -6.06501 0
M  V30 8828 H 834.316 -2.73312 -5.03958 0
M  V30 8829 H 832.713 -3.50599 -4.87032 0
M  V30 8830 H 833.783 -3.39617 -3.46105 0
M  V30 8831 N 835.127 1.22348 -0.993418 0
M  V30 8832 C 836.059 2.23626 -0.502404 0
M  V30 8833 C 837.072 1.57739 0.402784 0
M  V30 8834 O 838.261 1.77321 0.204835 0
M  V30 8835 C 835.361 3.37647 0.291118 0
M  V30 8836 C 834.534 4.33121 -0.610332 0
M  V30 8837 C 833.593 5.26035 0.131572 0
M  V30 8838 O 832.619 5.67145 -0.483199 0
M  V30 8839 N 833.821 5.63023 1.41371 0
M  V30 8840 H 836.586 2.66385 -1.37329 0
M  V30 8841 H 834.147 1.36653 -0.868196 0
M  V30 8842 H 836.139 3.96792 0.796107 0
M  V30 8843 H 834.709 2.93967 1.0631 0
M  V30 8844 H 833.929 3.72287 -1.29598 0
M  V30 8845 H 835.217 4.93853 -1.22422 0
M  V30 8846 H 834.615 5.31596 1.93449 0
M  V30 8847 H 833.172 6.24582 1.86388 0
M  V30 8848 N 836.605 0.766683 1.37694 0
M  V30 8849 C 837.552 0.147725 2.30327 0
M  V30 8850 C 838.522 -0.695366 1.50844 0
M  V30 8851 O 839.707 -0.64878 1.79431 0
M  V30 8852 C 836.847 -0.72935 3.37305 0
M  V30 8853 C 835.96 0.129795 4.31805 0
M  V30 8854 C 835.095 -0.751511 5.25857 0
M  V30 8855 C 834.134 0.110475 6.12 0
M  V30 8856 N 833.271 -0.728522 6.9831 0
M  V30 8857 H 838.111 0.943204 2.82679 0
M  V30 8858 H 835.648 0.476736 1.3916 0
M  V30 8859 H 837.606 -1.25263 3.97951 0
M  V30 8860 H 836.236 -1.49048 2.86329 0
M  V30 8861 H 835.288 0.770829 3.72508 0
M  V30 8862 H 836.6 0.794923 4.92425 0
M  V30 8863 H 835.754 -1.34146 5.91684 0
M  V30 8864 H 834.493 -1.45034 4.65636 0
M  V30 8865 H 833.498 0.712999 5.45157 0
M  V30 8866 H 834.723 0.806557 6.74293 0
M  V30 8867 H 832.669 -1.41206 6.40622 0
M  V30 8868 H 832.586 -0.12058 7.55904 0
M  V30 8869 H 833.854 -1.30303 7.68532 0
M  V30 8870 N 838.083 -1.48885 0.516809 0
M  V30 8871 C 838.993 -2.33185 -0.257293 0
M  V30 8872 C 840.009 -1.4565 -0.951952 0
M  V30 8873 O 841.185 -1.78651 -0.929834 0
M  V30 8874 C 838.25 -3.21465 -1.29851 0
M  V30 8875 C 837.311 -4.24863 -0.615608 0
M  V30 8876 C 836.544 -5.08925 -1.60722 0
M  V30 8877 O 836.767 -4.9475 -2.83863 0
M  V30 8878 O 835.701 -5.90737 -1.15384 0
M  V30 8879 H 839.527 -3.00596 0.433131 0
M  V30 8880 H 837.112 -1.46792 0.277908 0
M  V30 8881 H 838.994 -3.76108 -1.90055 0
M  V30 8882 H 837.669 -2.5673 -1.97158 0
M  V30 8883 H 836.576 -3.74091 0.0265829 0
M  V30 8884 H 837.909 -4.92198 0.0152871 0
M  V30 8885 N 839.561 -0.251338 -1.55583 0
M  V30 8886 C 840.977 0.103409 -1.59265 0
M  V30 8887 C 841.177 1.56559 -1.26852 0
M  V30 8888 O 840.233 2.31071 -1.01796 0
M  V30 8889 C 841.546 -0.249781 -2.99661 0
M  V30 8890 C 843.094 -0.194442 -3.12395 0
M  V30 8891 C 843.569 -0.521728 -4.55019 0
M  V30 8892 N 845.06 -0.472393 -4.60785 0
M  V30 8893 C 845.795 -0.698737 -5.69127 0
M  V30 8894 N 845.291 -0.988443 -6.85713 0
M  V30 8895 N 847.084 -0.629143 -5.58568 0
M  V30 8896 H 839.235 -1.20484 -1.74921 0
M  V30 8897 H 841.498 -0.485092 -0.814488 0
M  V30 8898 H 841.204 -1.26577 -3.28133 0
M  V30 8899 H 841.078 0.420973 -3.74844 0
M  V30 8900 H 843.465 0.812229 -2.83702 0
M  V30 8901 H 843.546 -0.899111 -2.39478 0
M  V30 8902 H 843.19 -1.52597 -4.84434 0
M  V30 8903 H 843.12 0.204468 -5.26203 0
M  V30 8904 H 845.611 -0.257386 -3.77022 0
M  V30 8905 H 845.924 -1.14846 -7.64219 0
M  V30 8906 H 844.269 -1.02596 -6.87386 0
M  V30 8907 H 847.46 -0.402826 -4.66364 0
M  V30 8908 H 847.633 -0.808935 -6.42931 0
M  V30 8909 N 841.039 1.57585 0.0217189 0
M  V30 8910 C 842.285 1.89887 0.712099 0
M  V30 8911 C 842.618 0.849971 1.74611 0
M  V30 8912 O 841.893 -0.13407 1.94037 0
M  V30 8913 C 842.176 3.32815 1.37499 0
M  V30 8914 C 842.029 4.48405 0.353993 0
M  V30 8915 C 843.348 3.74786 2.30703 0
M  V30 8916 H 840.467 0.690588 0.257405 0
M  V30 8917 H 843.109 1.89983 -0.0251145 0
M  V30 8918 H 841.259 3.32863 2.00335 0
M  V30 8919 H 842.931 4.60491 -0.273015 0
M  V30 8920 H 841.174 4.32573 -0.32599 0
M  V30 8921 H 841.845 5.45316 0.85644 0
M  V30 8922 H 844.321 3.76151 1.77904 0
M  V30 8923 H 843.197 4.75585 2.74061 0
M  V30 8924 H 843.458 3.07449 3.17691 0
M  V30 8925 N 842.517 -0.29412 1.54831 0
M  V30 8926 C 843.765 -1.02643 1.74094 0
M  V30 8927 C 844.086 -1.87563 0.533402 0
M  V30 8928 O 843.356 -1.9061 -0.452192 0
M  V30 8929 H 841.936 -0.381959 0.641963 0
M  V30 8930 H 844.598 -0.323444 1.92197 0
M  V30 8931 H 843.694 -1.67558 2.63307 0
M  V30 8932 N 843.995 -1.47404 -0.557645 0
M  V30 8933 C 845.243 -1.53703 -1.31224 0
M  V30 8934 C 845.564 -0.200742 -1.93964 0
M  V30 8935 O 844.834 0.775253 -1.79907 0
M  V30 8936 H 843.414 -0.566171 -0.487299 0
M  V30 8937 H 846.076 -1.83699 -0.651195 0
M  V30 8938 H 845.172 -2.30335 -2.10599 0
M  V30 8939 N 845.473 0.80434 -1.35529 0
M  V30 8940 C 846.383 1.94784 -1.30753 0
M  V30 8941 C 847.399 1.72703 -0.212071 0
M  V30 8942 O 848.575 1.96494 -0.441841 0
M  V30 8943 C 845.64 3.29406 -1.08133 0
M  V30 8944 C 844.701 3.64367 -2.27013 0
M  V30 8945 C 843.934 4.92566 -2.05463 0
M  V30 8946 O 844.157 5.61166 -1.02222 0
M  V30 8947 O 843.091 5.25838 -2.92879 0
M  V30 8948 H 846.917 2.01761 -2.26994 0
M  V30 8949 H 844.502 0.942448 -1.15924 0
M  V30 8950 H 846.384 4.09995 -0.973756 0
M  V30 8951 H 845.059 3.23355 -0.149444 0
M  V30 8952 H 843.966 2.84146 -2.43335 0
M  V30 8953 H 845.299 3.75125 -3.18656 0
M  V30 8954 N 846.951 1.19563 1.02676 0
M  V30 8955 C 847.861 0.950691 2.14474 0
M  V30 8956 C 848.877 -0.0900219 1.73767 0
M  V30 8957 O 850.053 0.0951063 2.01175 0
M  V30 8958 C 847.118 0.494917 3.43149 0
M  V30 8959 C 846.179 1.60527 3.98158 0
M  V30 8960 C 845.412 1.17115 5.20692 0
M  V30 8961 O 845.635 0.0355937 5.70389 0
M  V30 8962 O 844.569 1.97454 5.68591 0
M  V30 8963 H 848.395 1.88651 2.38001 0
M  V30 8964 H 845.98 0.978635 1.12885 0
M  V30 8965 H 847.862 0.249492 4.20661 0
M  V30 8966 H 846.537 -0.412434 3.21062 0
M  V30 8967 H 845.444 1.90487 3.21971 0
M  V30 8968 H 846.777 2.48925 4.24614 0
M  V30 8969 N 848.429 -1.21819 0.999893 0
M  V30 8970 C 849.845 -1.42847 0.711824 0
M  V30 8971 C 850.045 -1.88391 -0.714928 0
M  V30 8972 O 849.101 -2.0422 -1.48494 0
M  V30 8973 C 850.414 -2.46417 1.72334 0
M  V30 8974 C 851.962 -2.60207 1.73958 0
M  V30 8975 C 852.437 -3.67005 2.73992 0
M  V30 8976 N 853.928 -3.7447 2.72628 0
M  V30 8977 C 854.663 -4.56718 3.46693 0
M  V30 8978 N 854.159 -5.42904 4.3038 0
M  V30 8979 N 855.952 -4.51094 3.35366 0
M  V30 8980 H 848.103 -0.905656 1.92124 0
M  V30 8981 H 850.366 -0.459893 0.828977 0
M  V30 8982 H 850.072 -2.19914 2.74465 0
M  V30 8983 H 849.946 -3.45137 1.52186 0
M  V30 8984 H 852.333 -2.8605 0.725217 0
M  V30 8985 H 852.414 -1.61739 1.98177 0
M  V30 8986 H 852.058 -3.41908 3.75582 0
M  V30 8987 H 851.988 -4.65058 2.4704 0
M  V30 8988 H 854.479 -3.12895 2.11909 0
M  V30 8989 H 854.792 -6.02704 4.83702 0
M  V30 8990 H 853.137 -5.42463 4.34464 0
M  V30 8991 H 856.328 -3.82791 2.69423 0
M  V30 8992 H 856.501 -5.1496 3.93344 0
M  V30 8993 N 849.908 -0.773975 -1.37286 0
M  V30 8994 C 850.838 -0.175782 -2.32837 0
M  V30 8995 C 851.819 0.680603 -1.5589 0
M  V30 8996 O 853.004 0.617607 -1.84117 0
M  V30 8997 C 850.134 0.702388 -3.40123 0
M  V30 8998 C 849.088 -0.0528687 -4.27967 0
M  V30 8999 C 848.414 0.944891 -5.26285 0
M  V30 9000 C 849.714 -1.23316 -5.07534 0
M  V30 9001 H 851.408 -0.974016 -2.83114 0
M  V30 9002 H 848.954 -0.469826 -1.3612 0
M  V30 9003 H 850.907 1.13069 -4.05947 0
M  V30 9004 H 849.631 1.53316 -2.88378 0
M  V30 9005 H 848.29 -0.461978 -3.63678 0
M  V30 9006 H 847.938 1.77028 -4.70819 0
M  V30 9007 H 847.638 0.444079 -5.8592 0
M  V30 9008 H 849.162 1.37209 -5.94984 0
M  V30 9009 H 850.576 -0.881395 -5.66484 0
M  V30 9010 H 848.973 -1.66621 -5.76504 0
M  V30 9011 H 850.043 -2.03617 -4.40077 0
M  V30 9012 N 851.386 1.48609 -0.524698 0
M  V30 9013 C 852.333 2.29539 0.240956 0
M  V30 9014 C 853.303 1.37033 0.938681 0
M  V30 9015 O 854.488 1.65996 0.940737 0
M  V30 9016 C 851.628 3.20278 1.28514 0
M  V30 9017 C 850.741 4.27858 0.596798 0
M  V30 9018 C 849.876 5.05784 1.62346 0
M  V30 9019 C 848.915 6.05173 0.918287 0
M  V30 9020 N 848.052 6.76176 1.89025 0
M  V30 9021 H 852.892 2.945 -0.455368 0
M  V30 9022 H 850.429 1.45188 -0.236403 0
M  V30 9023 H 852.387 3.71281 1.90279 0
M  V30 9024 H 851.017 2.57251 1.94992 0
M  V30 9025 H 850.069 3.80162 -0.134668 0
M  V30 9026 H 851.381 4.98782 0.0428506 0
M  V30 9027 H 850.535 5.60775 2.31553 0
M  V30 9028 H 849.274 4.34687 2.2113 0
M  V30 9029 H 848.279 5.49391 0.21212 0
M  V30 9030 H 849.504 6.78265 0.336633 0
M  V30 9031 H 847.45 6.07834 2.46726 0
M  V30 9032 H 847.367 7.43157 1.3876 0
M  V30 9033 H 848.635 7.35759 2.57446 0
M  V30 9034 N 852.864 0.259585 1.55447 0
M  V30 9035 C 854.112 -0.360893 1.98852 0
M  V30 9036 C 854.433 -1.57535 1.14924 0
M  V30 9037 O 853.703 -1.94485 0.235025 0
M  V30 9038 H 852.283 -0.136332 0.734454 0
M  V30 9039 H 854.945 0.361319 1.91522 0
M  V30 9040 H 854.041 -0.661388 3.05012 0
M  V30 9041 N 854.342 -1.57594 -0.0133615 0
M  V30 9042 C 855.272 -2.10611 -1.00823 0
M  V30 9043 C 856.253 -1.01217 -1.36708 0
M  V30 9044 O 857.438 -1.28827 -1.45318 0
M  V30 9045 C 854.568 -2.59844 -2.30431 0
M  V30 9046 C 853.522 -3.73644 -2.08745 0
M  V30 9047 C 852.848 -4.09141 -3.4425 0
M  V30 9048 C 854.148 -5.01454 -1.46086 0
M  V30 9049 H 855.842 -2.93985 -0.566849 0
M  V30 9050 H 853.388 -1.41423 -0.271219 0
M  V30 9051 H 855.341 -2.95557 -3.00373 0
M  V30 9052 H 854.065 -1.73573 -2.76658 0
M  V30 9053 H 852.724 -3.38303 -1.41232 0
M  V30 9054 H 852.372 -3.19914 -3.88155 0
M  V30 9055 H 852.072 -4.85802 -3.3056 0
M  V30 9056 H 853.596 -4.47402 -4.15528 0
M  V30 9057 H 855.01 -5.35024 -2.05966 0
M  V30 9058 H 853.407 -5.82832 -1.42924 0
M  V30 9059 H 854.477 -4.83003 -0.428471 0
M  V30 9060 N 855.82 0.285905 -1.54985 0
M  V30 9061 C 857.068 1.01718 -1.74636 0
M  V30 9062 C 857.389 1.87277 -0.543342 0
M  V30 9063 O 856.659 1.90847 0.442078 0
M  V30 9064 H 855.239 0.378549 -0.643979 0
M  V30 9065 H 857.901 0.313247 -1.92366 0
M  V30 9066 H 856.997 1.66159 -2.64192 0
M  V30 9067 N 857.298 1.47698 0.54982 0
M  V30 9068 C 858.208 1.63386 1.68351 0
M  V30 9069 C 859.224 0.516583 1.66155 0
M  V30 9070 O 860.4 0.785088 1.85468 0
M  V30 9071 C 857.465 1.6513 3.04849 0
M  V30 9072 C 856.526 2.88338 3.18056 0
M  V30 9073 C 855.759 2.8999 4.48042 0
M  V30 9074 O 855.982 2.00633 5.3395 0
M  V30 9075 O 854.916 3.81938 4.65196 0
M  V30 9076 H 858.742 2.59329 1.58057 0
M  V30 9077 H 856.327 1.30869 0.72067 0
M  V30 9078 H 858.209 1.68913 3.86065 0
M  V30 9079 H 856.884 0.723555 3.1551 0
M  V30 9080 H 855.791 2.90097 2.36209 0
M  V30 9081 H 857.124 3.80431 3.12302 0
M  V30 9082 N 858.776 -0.797141 1.35954 0
M  V30 9083 C 860.024 -1.55161 1.29497 0
M  V30 9084 C 860.345 -1.94582 -0.127659 0
M  V30 9085 O 859.615 -1.64343 -1.06622 0
M  V30 9086 H 858.195 -0.575413 0.47635 0
M  V30 9087 H 860.857 -0.950282 1.70164 0
M  V30 9088 H 859.953 -2.46272 1.9172 0
M  V30 9089 N 860.254 -1.20106 -1.0204 0
M  V30 9090 C 861.479 -1.0351 -1.79723 0
M  V30 9091 C 861.904 0.411328 -1.83548 0
M  V30 9092 O 861.262 1.29608 -1.26773 0
M  V30 9093 C 861.31 -1.61876 -3.22224 0
M  V30 9094 O 860.414 -0.853813 -4.03465 0
M  V30 9095 H 859.755 -0.365299 -0.554484 0
M  V30 9096 H 862.285 -1.59316 -1.28373 0
M  V30 9097 H 862.295 -1.65451 -3.72948 0
M  V30 9098 H 860.97 -2.67148 -3.18755 0
M  V30 9099 H 859.547 -0.891983 -3.62075 0
M  V30 9100 N 861.732 1.21287 -1.00634 0
M  V30 9101 C 862.679 2.23705 -0.567876 0
M  V30 9102 C 863.649 1.61043 0.406753 0
M  V30 9103 O 864.834 1.88289 0.308499 0
M  V30 9104 C 861.974 3.44961 0.097996 0
M  V30 9105 C 861.087 4.22091 -0.919972 0
M  V30 9106 C 860.222 5.30718 -0.226222 0
M  V30 9107 C 859.261 5.99581 -1.23165 0
M  V30 9108 N 858.398 6.99821 -0.565278 0
M  V30 9109 H 863.238 2.60571 -1.44592 0
M  V30 9110 H 860.775 1.28049 -0.724006 0
M  V30 9111 H 862.733 4.1418 0.501097 0
M  V30 9112 H 861.363 3.08818 0.939744 0
M  V30 9113 H 860.415 3.52038 -1.44131 0
M  V30 9114 H 861.727 4.69476 -1.68505 0
M  V30 9115 H 860.881 6.06253 0.232917 0
M  V30 9116 H 859.62 4.84343 0.571247 0
M  V30 9117 H 858.625 5.22816 -1.70128 0
M  V30 9118 H 859.85 6.48042 -2.03022 0
M  V30 9119 H 857.796 6.55656 0.212508 0
M  V30 9120 H 857.713 7.4528 -1.26858 0
M  V30 9121 H 858.981 7.79393 -0.129389 0
M  V30 9122 N 863.21 0.781244 1.36873 0
M  V30 9123 C 864.142 0.132075 2.28819 0
M  V30 9124 C 865.155 -0.653925 1.49089 0
M  V30 9125 O 866.344 -0.490453 1.7163 0
M  V30 9126 C 863.444 -0.836297 3.28419 0
M  V30 9127 C 862.617 -0.102097 4.37281 0
M  V30 9128 C 861.676 -0.985217 5.16894 0
M  V30 9129 O 860.702 -0.445478 5.67454 0
M  V30 9130 N 861.904 -2.31043 5.3254 0
M  V30 9131 H 864.669 0.921838 2.85171 0
M  V30 9132 H 862.23 0.634427 1.48952 0
M  V30 9133 H 864.222 -1.43074 3.78566 0
M  V30 9134 H 862.792 -1.52698 2.72767 0
M  V30 9135 H 862.012 0.67335 3.88407 0
M  V30 9136 H 863.3 0.404862 5.07187 0
M  V30 9137 H 862.698 -2.77318 4.93063 0
M  V30 9138 H 861.255 -2.85472 5.8596 0
M  V30 9139 N 864.689 -1.48329 0.532571 0
M  V30 9140 C 865.935 -2.03399 0.00755104 0
M  V30 9141 C 866.29 -1.40213 -1.3175 0
M  V30 9142 O 865.583 -0.539633 -1.83844 0
M  V30 9143 C 865.777 -3.57 -0.168943 0
M  V30 9144 C 865.606 -4.35077 1.13745 0
M  V30 9145 C 864.376 -4.75915 1.69803 0
M  V30 9146 C 866.574 -4.71734 2.04869 0
M  V30 9147 N 864.556 -5.38538 2.94703 0
M  V30 9148 C 865.927 -5.34403 3.14346 0
M  V30 9149 C 867.982 -4.53665 2.05164 0
M  V30 9150 C 866.685 -5.80912 4.24186 0
M  V30 9151 C 868.711 -5.01157 3.13999 0
M  V30 9152 C 868.073 -5.63853 4.22195 0
M  V30 9153 H 864.172 -0.780743 0.0443253 0
M  V30 9154 H 866.756 -1.81119 0.714423 0
M  V30 9155 H 864.927 -3.79099 -0.844903 0
M  V30 9156 H 866.659 -3.98708 -0.693804 0
M  V30 9157 H 863.414 -4.57103 1.23909 0
M  V30 9158 H 863.838 -5.74413 3.583 0
M  V30 9159 H 868.48 -4.04571 1.22808 0
M  V30 9160 H 866.198 -6.2901 5.07318 0
M  V30 9161 H 869.784 -4.88965 3.15285 0
M  V30 9162 H 868.664 -5.99935 5.05023 0
M  V30 9163 N 866.167 -0.267825 -1.55308 0
M  V30 9164 C 867.392 0.357487 -2.04296 0
M  V30 9165 C 867.817 1.49222 -1.14518 0
M  V30 9166 O 867.175 1.80741 -0.142292 0
M  V30 9167 C 867.223 0.822899 -3.51085 0
M  V30 9168 O 866.327 1.93078 -3.6441 0
M  V30 9169 H 865.668 0.075025 -0.659748 0
M  V30 9170 H 868.198 -0.399996 -2.00652 0
M  V30 9171 H 868.208 1.12059 -3.92309 0
M  V30 9172 H 866.883 -0.0073562 -4.15899 0
M  V30 9173 H 865.46 1.63618 -3.35087 0
M  V30 9174 N 867.645 1.57599 0.00500368 0
M  V30 9175 C 868.87 1.95026 0.705663 0
M  V30 9176 C 869.295 0.869643 1.6679 0
M  V30 9177 O 868.653 -0.172659 1.80476 0
M  V30 9178 C 868.701 3.31545 1.4181 0
M  V30 9179 O 867.805 3.25495 2.53232 0
M  V30 9180 H 867.146 0.636808 0.188074 0
M  V30 9181 H 869.676 2.04547 -0.046696 0
M  V30 9182 H 869.686 3.66996 1.78265 0
M  V30 9183 H 868.361 4.09751 0.712543 0
M  V30 9184 H 866.938 3.01714 2.19142 0
M  V30 9185 N 869.123 -0.277682 1.55134 0
M  V30 9186 C 870.348 -1.03254 1.7987 0
M  V30 9187 C 870.773 -1.79324 0.567861 0
M  V30 9188 O 870.131 -1.74764 -0.4824 0
M  V30 9189 C 870.179 -1.9705 3.02 0
M  V30 9190 O 869.283 -3.05744 2.76757 0
M  V30 9191 H 868.624 -0.295447 0.594649 0
M  V30 9192 H 871.154 -0.308013 2.02268 0
M  V30 9193 H 871.164 -2.3909 3.30606 0
M  V30 9194 H 869.839 -1.41094 3.91236 0
M  V30 9195 H 868.416 -2.68052 2.59235 0
M  V30 9196 N 870.601 -1.47988 -0.541979 0
M  V30 9197 C 871.564 -1.61148 -1.62984 0
M  V30 9198 C 872.564 -0.48553 -1.53295 0
M  V30 9199 O 873.754 -0.751012 -1.5718 0
M  V30 9200 C 870.886 -1.57038 -3.02576 0
M  V30 9201 H 872.079 -2.58138 -1.52659 0
M  V30 9202 H 869.632 -1.36405 -0.763106 0
M  V30 9203 H 870.367 -0.614807 -3.18419 0
M  V30 9204 H 870.152 -2.38769 -3.11018 0
M  V30 9205 H 871.642 -1.69416 -3.81691 0
M  V30 9206 N 872.079 0.78992 -1.36375 0
M  V30 9207 C 873.49 1.36506 -1.2737 0
M  V30 9208 C 873.841 1.96008 0.086711 0
M  V30 9209 O 872.966 1.92521 0.988159 0
M  V30 9210 C 873.561 2.48175 -2.30639 0
M  V30 9211 C 872.12 3.01506 -2.25325 0
M  V30 9212 C 871.267 1.74581 -2.15445 0
M  V30 9213 H 874.218 0.591606 -1.47261 0
M  V30 9214 H 874.239 3.27179 -1.94253 0
M  V30 9215 H 873.751 2.04838 -3.2964 0
M  V30 9216 H 871.852 3.49265 -1.29788 0
M  V30 9217 H 871.965 3.58355 -3.17992 0
M  V30 9218 H 870.329 1.96794 -1.61692 0
M  V30 9219 H 871.112 1.33373 -3.16333 0
M  V30 9220 N 873.557 1.20646 1.01402 0
M  V30 9221 C 874.505 0.954493 2.12114 0
M  V30 9222 C 875.499 -0.0950737 1.69133 0
M  V30 9223 O 876.705 0.0555153 1.79914 0
M  V30 9224 H 873.08 0.29135 0.693267 0
M  V30 9225 H 875.051 1.89447 2.30548 0
M  V30 9226 C 873.8 0.525944 3.43699 0
M  V30 9227 H 873.123 1.32516 3.772 0
M  V30 9228 H 874.563 0.388883 4.22213 0
M  V30 9229 C 873.022 -0.761997 3.28169 0
M  V30 9230 O 873.552 -1.81979 3.58115 0
M  V30 9231 N 871.758 -0.725017 2.8141 0
M  V30 9232 H 871.305 0.13607 2.5724 0
M  V30 9233 H 871.263 -1.5871 2.71401 0
M  V30 9234 N 875.035 -1.20752 1.01276 0
M  V30 9235 C 875.965 -2.25658 0.600064 0
M  V30 9236 C 876.946 -1.65733 -0.38298 0
M  V30 9237 O 878.131 -1.92324 -0.269256 0
M  V30 9238 C 875.261 -3.47237 -0.0663197 0
M  V30 9239 C 874.215 -4.1973 0.83731 0
M  V30 9240 C 873.541 -5.34687 0.0369102 0
M  V30 9241 C 874.841 -4.76286 2.14357 0
M  V30 9242 H 876.535 -2.60432 1.477 0
M  V30 9243 H 874.081 -1.25187 0.711634 0
M  V30 9244 H 876.034 -4.19803 -0.366563 0
M  V30 9245 H 874.758 -3.11615 -0.977944 0
M  V30 9246 H 873.417 -3.49024 1.1215 0
M  V30 9247 H 873.065 -4.95309 -0.876244 0
M  V30 9248 H 872.765 -5.84119 0.63865 0
M  V30 9249 H 874.289 -6.10059 -0.256968 0
M  V30 9250 H 875.703 -5.40691 1.90595 0
M  V30 9251 H 874.1 -5.36139 2.69583 0
M  V30 9252 H 875.17 -3.9524 2.80916 0
M  V30 9253 N 876.513 -0.788492 -1.36457 0
M  V30 9254 C 877.761 -0.359749 -1.98872 0
M  V30 9255 C 878.082 1.07197 -1.62892 0
M  V30 9256 O 877.352 1.73875 -0.902463 0
M  V30 9257 H 875.932 -0.130029 -0.735596 0
M  V30 9258 H 878.594 -1.01033 -1.66668 0
M  V30 9259 H 877.69 -0.450835 -3.08827 0
M  V30 9260 N 877.991 1.48044 -0.54043 0
M  V30 9261 C 878.938 2.29781 0.216597 0
M  V30 9262 C 879.908 1.38021 0.924094 0
M  V30 9263 O 881.093 1.66985 0.923078 0
M  V30 9264 C 878.233 3.21623 1.2511 0
M  V30 9265 C 877.346 4.28467 0.551384 0
M  V30 9266 C 876.481 5.07477 1.56972 0
M  V30 9267 C 875.52 6.06113 0.854048 0
M  V30 9268 N 874.657 6.78143 1.81842 0
M  V30 9269 H 879.497 2.94001 -0.486578 0
M  V30 9270 H 877.034 1.44929 -0.251789 0
M  V30 9271 H 878.992 3.73279 1.8633 0
M  V30 9272 H 877.622 2.59305 1.92252 0
M  V30 9273 H 876.674 3.79997 -0.174982 0
M  V30 9274 H 877.986 4.98799 -0.0100542 0
M  V30 9275 H 877.14 5.63199 2.25592 0
M  V30 9276 H 875.879 4.37008 2.16507 0
M  V30 9277 H 874.884 5.49585 0.153838 0
M  V30 9278 H 876.109 6.78584 0.264675 0
M  V30 9279 H 874.055 6.10417 2.40265 0
M  V30 9280 H 873.972 7.44587 1.3087 0
M  V30 9281 H 875.24 7.38448 2.49628 0
M  V30 9282 N 879.47 0.276058 1.55163 0
M  V30 9283 C 880.695 -0.346648 2.04483 0
M  V30 9284 C 881.12 -1.48613 1.15308 0
M  V30 9285 O 880.478 -1.80663 0.151875 0
M  V30 9286 C 880.526 -0.804268 3.51517 0
M  V30 9287 O 879.63 -1.91143 3.65429 0
M  V30 9288 H 878.971 -0.0715251 0.660136 0
M  V30 9289 H 881.501 0.410631 2.00437 0
M  V30 9290 H 881.511 -1.09977 3.92898 0
M  V30 9291 H 880.186 0.0294123 4.1589 0
M  V30 9292 H 878.763 -1.61839 3.3595 0
M  V30 9293 N 880.948 -1.576 0.00335426 0
M  V30 9294 C 882.359 -1.7875 -0.539008 0
M  V30 9295 C 882.71 -0.911097 -1.73763 0
M  V30 9296 O 881.835 -0.114476 -2.16097 0
M  V30 9297 C 882.43 -3.24177 -0.984611 0
M  V30 9298 C 880.989 -3.46412 -1.47226 0
M  V30 9299 C 880.136 -2.74024 -0.425004 0
M  V30 9300 H 883.087 -1.57032 0.229511 0
M  V30 9301 H 883.108 -3.32474 -1.85044 0
M  V30 9302 H 882.62 -3.87938 -0.112035 0
M  V30 9303 H 880.721 -2.8787 -2.36562 0
M  V30 9304 H 880.834 -4.55098 -1.49741 0
M  V30 9305 H 879.198 -2.38741 -0.887394 0
M  V30 9306 H 879.981 -3.40486 0.438662 0
M  V30 9307 N 882.426 0.269451 -1.5528 0
M  V30 9308 C 883.373 1.33316 -1.88403 0
M  V30 9309 C 884.343 1.48909 -0.735881 0
M  V30 9310 O 885.528 1.63259 -0.987479 0
M  V30 9311 C 882.668 2.68778 -2.16454 0
M  V30 9312 C 881.781 2.61377 -3.43956 0
M  V30 9313 C 880.916 3.89042 -3.6169 0
M  V30 9314 C 879.955 3.76166 -4.82872 0
M  V30 9315 N 879.092 4.95673 -4.97245 0
M  V30 9316 H 883.932 1.04368 -2.79126 0
M  V30 9317 H 881.469 0.504147 -1.38191 0
M  V30 9318 H 883.427 3.47599 -2.30719 0
M  V30 9319 H 882.057 2.9592 -1.28961 0
M  V30 9320 H 881.109 1.74247 -3.38145 0
M  V30 9321 H 882.421 2.47764 -4.32914 0
M  V30 9322 H 881.575 4.76304 -3.75791 0
M  V30 9323 H 880.314 4.05526 -2.70924 0
M  V30 9324 H 879.319 2.87287 -4.68771 0
M  V30 9325 H 880.544 3.61198 -5.75077 0
M  V30 9326 H 878.49 5.12561 -4.09411 0
M  V30 9327 H 878.407 4.84605 -5.80254 0
M  V30 9328 H 879.675 5.84498 -5.15735 0
M  V30 9329 N 883.904 1.48273 0.534124 0
M  V30 9330 C 884.854 1.58889 1.63519 0
M  V30 9331 C 885.838 0.44626 1.54588 0
M  V30 9332 O 887.03 0.697474 1.62679 0
M  V30 9333 C 884.159 1.62787 3.0225 0
M  V30 9334 C 883.245 2.82515 3.16301 0
M  V30 9335 N 883.636 4.06977 3.00338 0
M  V30 9336 C 881.934 2.7976 3.47347 0
M  V30 9337 C 882.635 4.87283 3.17694 0
M  V30 9338 N 881.611 4.20024 3.45081 0
M  V30 9339 H 885.413 2.52869 1.49781 0
M  V30 9340 H 882.927 1.44587 0.739479 0
M  V30 9341 H 884.924 1.68486 3.81337 0
M  V30 9342 H 883.584 0.699201 3.17082 0
M  V30 9343 H 884.595 4.37479 2.77186 0
M  V30 9344 H 881.272 1.96132 3.68563 0
M  V30 9345 H 882.662 5.96047 3.10126 0
M  V30 9346 N 885.382 -0.782676 1.36792 0
M  V30 9347 C 886.61 -1.57162 1.34565 0
M  V30 9348 C 887.025 -1.88664 -0.0715501 0
M  V30 9349 O 886.382 -1.50633 -1.03033 0
M  V30 9350 C 886.433 -2.88854 2.1736 0
M  V30 9351 O 886.154 -2.58707 3.53557 0
M  V30 9352 C 887.655 -3.83132 2.2299 0
M  V30 9353 H 884.875 -0.487245 0.461338 0
M  V30 9354 H 887.419 -0.970905 1.79982 0
M  V30 9355 H 885.574 -3.45377 1.7548 0
M  V30 9356 H 885.988 -3.42961 3.96835 0
M  V30 9357 H 887.462 -4.72575 2.85266 0
M  V30 9358 H 887.939 -4.21472 1.23524 0
M  V30 9359 H 888.545 -3.32541 2.65135 0
M  V30 9360 N 886.86 -1.21182 -1.00761 0
M  V30 9361 C 888.271 -1.02652 -1.55947 0
M  V30 9362 C 888.622 0.414466 -1.91772 0
M  V30 9363 O 887.747 1.29727 -1.73204 0
M  V30 9364 C 888.342 -1.85713 -2.83366 0
M  V30 9365 C 886.901 -1.71523 -3.35048 0
M  V30 9366 C 886.048 -1.83087 -2.08265 0
M  V30 9367 H 888.999 -1.35242 -0.830379 0
M  V30 9368 H 889.02 -1.36583 -3.55141 0
M  V30 9369 H 888.532 -2.90584 -2.5726 0
M  V30 9370 H 886.633 -0.693257 -3.66094 0
M  V30 9371 H 886.746 -2.53333 -4.06644 0
M  V30 9372 H 885.11 -1.26367 -2.21141 0
M  V30 9373 H 885.893 -2.8946 -1.84575 0
M  V30 9374 N 888.338 1.20213 -1.01915 0
M  V30 9375 C 889.587 1.88968 -0.705261 0
M  V30 9376 C 889.9 1.79869 0.768531 0
M  V30 9377 O 891.106 2.43783 1.19508 0
M  V30 9378 C 889.562 3.38911 -1.21109 0
M  V30 9379 C 889.17 3.5659 -2.71197 0
M  V30 9380 C 890.914 4.13204 -0.97275 0
M  V30 9381 C 888.821 5.00372 -3.15248 0
M  V30 9382 H 887.751 0.707715 -0.260107 0
M  V30 9383 H 890.402 1.35977 -1.23217 0
M  V30 9384 H 888.784 3.9124 -0.612152 0
M  V30 9385 H 889.958 3.14635 -3.36662 0
M  V30 9386 H 888.273 2.95671 -2.93202 0
M  V30 9387 H 890.87 5.19221 -1.27726 0
M  V30 9388 H 891.213 4.16201 0.09072 0
M  V30 9389 H 891.746 3.66983 -1.5352 0
M  V30 9390 H 888.485 5.02532 -4.20882 0
M  V30 9391 H 888.005 5.43127 -2.54505 0
M  V30 9392 H 889.684 5.68969 -3.08032 0
M  V30 9393 N 889.816 0.795718 1.36037 0
M  V30 9394 C 890.779 0.204318 2.28287 0
M  V30 9395 C 891.779 -0.602017 1.49105 0
M  V30 9396 O 892.969 -0.422089 1.69009 0
M  V30 9397 C 890.101 -0.716431 3.33287 0
M  V30 9398 H 891.294 1.01781 2.821 0
M  V30 9399 H 888.847 0.565588 1.45708 0
M  V30 9400 H 889.582 -1.55403 2.84641 0
M  V30 9401 H 889.367 -0.140096 3.9185 0
M  V30 9402 H 890.857 -1.12488 4.02164 0
M  V30 9403 N 891.294 -1.47756 0.548274 0
M  V30 9404 C 892.705 -1.8636 0.112547 0
M  V30 9405 C 893.056 -1.45589 -1.31523 0
M  V30 9406 O 892.181 -0.854874 -1.98799 0
M  V30 9407 C 892.776 -3.38224 0.197473 0
M  V30 9408 C 891.335 -3.75954 -0.183163 0
M  V30 9409 C 890.482 -2.7181 0.549059 0
M  V30 9410 H 893.433 -1.394 0.758506 0
M  V30 9411 H 893.454 -3.75957 -0.586217 0
M  V30 9412 H 892.966 -3.67868 1.23673 0
M  V30 9413 H 891.067 -3.51926 -1.22387 0
M  V30 9414 H 891.18 -4.78801 0.169178 0
M  V30 9415 H 889.544 -2.54699 -0.00682862 0
M  V30 9416 H 890.327 -3.04296 1.5893 0
M  V30 9417 N 892.772 -0.284283 -1.55015 0
M  V30 9418 C 894.02 0.329212 -1.99401 0
M  V30 9419 C 894.341 1.55687 -1.17416 0
M  V30 9420 O 893.611 1.94087 -0.265937 0
M  V30 9421 H 892.191 0.12463 -0.73653 0
M  V30 9422 H 894.853 -0.391743 -1.90922 0
M  V30 9423 H 893.949 0.61278 -3.06025 0
M  V30 9424 N 894.251 1.57596 -0.0117121 0
M  V30 9425 C 895.498 1.91071 0.670667 0
M  V30 9426 C 895.826 0.886457 1.73125 0
M  V30 9427 O 895.081 -0.107135 1.95407 0
M  V30 9428 C 895.38 3.31296 1.34082 0
M  V30 9429 C 895.046 4.49011 0.412305 0
M  V30 9430 C 893.708 4.80945 0.156691 0
M  V30 9431 C 896.06 5.20709 -0.226294 0
M  V30 9432 C 893.388 5.81943 -0.745619 0
M  V30 9433 C 895.74 6.22668 -1.11655 0
M  V30 9434 C 894.404 6.53053 -1.38123 0
M  V30 9435 H 893.674 0.69918 0.245415 0
M  V30 9436 H 896.321 1.91373 -0.0697511 0
M  V30 9437 H 894.626 3.27174 2.15557 0
M  V30 9438 H 896.323 3.54461 1.87506 0
M  V30 9439 H 892.913 4.24067 0.621705 0
M  V30 9440 H 897.097 4.96282 -0.0418456 0
M  V30 9441 H 892.353 6.03839 -0.958566 0
M  V30 9442 H 896.527 6.77351 -1.61767 0
M  V30 9443 H 894.154 7.31132 -2.08208 0
M  V30 9444 N 895.729 -0.261212 1.5542 0
M  V30 9445 C 896.692 -1.30645 1.8832 0
M  V30 9446 C 897.692 -1.41782 0.758588 0
M  V30 9447 O 898.882 -1.40729 1.02669 0
M  V30 9448 C 896.014 -2.6862 2.09895 0
M  V30 9449 H 897.207 -1.02698 2.81768 0
M  V30 9450 H 894.76 -0.499838 1.48092 0
M  V30 9451 H 895.495 -3.0173 1.18868 0
M  V30 9452 H 895.28 -2.61921 2.91787 0
M  V30 9453 H 896.77 -3.44121 2.36581 0
M  V30 9454 N 897.207 -1.48554 -0.526253 0
M  V30 9455 C 898.432 -1.60686 -1.31129 0
M  V30 9456 C 898.857 -0.268701 -1.86171 0
M  V30 9457 O 898.215 0.760167 -1.64594 0
M  V30 9458 C 898.263 -2.65938 -2.43536 0
M  V30 9459 O 897.367 -2.23356 -3.46678 0
M  V30 9460 H 896.708 -0.538691 -0.388211 0
M  V30 9461 H 899.238 -1.94567 -0.632826 0
M  V30 9462 H 899.248 -2.87327 -2.89668 0
M  V30 9463 H 897.923 -3.63085 -2.02835 0
M  V30 9464 H 896.5 -2.12196 -3.06639 0
M  V30 9465 N 898.685 0.775411 -1.37205 0
M  V30 9466 C 899.615 1.90258 -1.35367 0
M  V30 9467 C 900.596 1.68634 -0.222864 0
M  V30 9468 O 901.781 1.89545 -0.422659 0
M  V30 9469 C 898.911 3.27488 -1.15623 0
M  V30 9470 C 897.865 3.63668 -2.25676 0
M  V30 9471 C 897.191 4.994 -1.91059 0
M  V30 9472 C 898.491 3.70797 -3.67841 0
M  V30 9473 H 900.185 1.92053 -2.29687 0
M  V30 9474 H 897.731 0.922597 -1.10563 0
M  V30 9475 H 899.684 4.05976 -1.12968 0
M  V30 9476 H 898.408 3.26117 -0.177573 0
M  V30 9477 H 897.067 2.87486 -2.2748 0
M  V30 9478 H 896.715 4.94565 -0.917324 0
M  V30 9479 H 896.415 5.24576 -2.64751 0
M  V30 9480 H 897.939 5.80291 -1.89985 0
M  V30 9481 H 899.353 4.39444 -3.68187 0
M  V30 9482 H 897.75 4.07468 -4.40556 0
M  V30 9483 H 898.82 2.71549 -4.01732 0
M  V30 9484 N 900.163 1.21714 1.00117 0
M  V30 9485 C 901.111 0.976937 2.11089 0
M  V30 9486 C 902.105 -0.0771295 1.69224 0
M  V30 9487 O 903.311 0.0745945 1.79845 0
M  V30 9488 H 899.686 0.298687 0.690138 0
M  V30 9489 H 901.657 1.91881 2.28526 0
M  V30 9490 C 900.406 0.562369 3.43122 0
M  V30 9491 H 899.729 1.36509 3.75773 0
M  V30 9492 H 901.169 0.433642 4.21777 0
M  V30 9493 C 899.628 -0.727148 3.28959 0
M  V30 9494 O 900.158 -1.78171 3.60025 0
M  V30 9495 N 898.364 -0.695129 2.82164 0
M  V30 9496 H 897.911 0.163346 2.57082 0
M  V30 9497 H 897.869 -1.55822 2.73069 0
M  V30 9498 N 901.641 -1.19671 1.02551 0
M  V30 9499 C 902.551 -2.26441 0.613329 0
M  V30 9500 C 903.567 -1.70375 -0.353339 0
M  V30 9501 O 904.743 -2.0028 -0.212064 0
M  V30 9502 C 901.808 -3.46684 -0.0329028 0
M  V30 9503 C 900.869 -4.17945 0.980837 0
M  V30 9504 C 900.102 -5.32448 0.36535 0
M  V30 9505 O 900.325 -5.64291 -0.832596 0
M  V30 9506 O 899.259 -5.92012 1.08652 0
M  V30 9507 H 903.085 -2.63932 1.50246 0
M  V30 9508 H 900.67 -1.2646 0.795502 0
M  V30 9509 H 902.552 -4.1956 -0.393395 0
M  V30 9510 H 901.227 -3.1105 -0.896089 0
M  V30 9511 H 900.134 -3.47204 1.39286 0
M  V30 9512 H 901.467 -4.57542 1.81428 0
M  V30 9513 N 903.119 -0.802921 -1.35613 0
M  V30 9514 C 904.052 -0.156345 -2.27664 0
M  V30 9515 C 905.03 0.675517 -1.47904 0
M  V30 9516 O 906.214 0.643589 -1.77173 0
M  V30 9517 C 903.341 0.78348 -3.29514 0
M  V30 9518 C 902.387 0.0317062 -4.26488 0
M  V30 9519 S 903.22 -1.30183 -5.19435 0
M  V30 9520 C 904.376 -0.366354 -6.24827 0
M  V30 9521 H 904.609 -0.936803 -2.82155 0
M  V30 9522 H 902.142 -0.597799 -1.42358 0
M  V30 9523 H 904.1 1.32023 -3.8869 0
M  V30 9524 H 902.761 1.53729 -2.73909 0
M  V30 9525 H 901.954 0.745364 -4.98458 0
M  V30 9526 H 901.556 -0.43497 -3.71462 0
M  V30 9527 H 903.848 0.44976 -6.76005 0
M  V30 9528 H 904.791 -1.05513 -7.00195 0
M  V30 9529 H 905.199 0.0363203 -5.64488 0
M  V30 9530 N 904.597 1.47463 -0.556102 0
M  V30 9531 C 905.507 2.33785 0.195378 0
M  V30 9532 C 906.523 1.48123 0.913 0
M  V30 9533 O 907.699 1.81053 0.882141 0
M  V30 9534 C 904.764 3.24795 1.21282 0
M  V30 9535 C 903.825 4.26346 0.502747 0
M  V30 9536 C 903.058 5.13007 1.47172 0
M  V30 9537 O 903.281 5.02103 2.70646 0
M  V30 9538 O 902.215 5.93588 0.996814 0
M  V30 9539 H 906.041 2.99341 -0.512676 0
M  V30 9540 H 903.626 1.46004 -0.31673 0
M  V30 9541 H 905.508 3.81015 1.80016 0
M  V30 9542 H 904.183 2.61868 1.90282 0
M  V30 9543 H 903.09 3.73889 -0.125757 0
M  V30 9544 H 904.423 4.91984 -0.145779 0
M  V30 9545 N 906.075 0.2925 1.54862 0
M  V30 9546 C 906.985 -0.597036 2.26876 0
M  V30 9547 C 908.001 -1.15558 1.30086 0
M  V30 9548 O 909.177 -1.18217 1.63054 0
M  V30 9549 C 906.242 -1.75664 2.98903 0
M  V30 9550 C 905.303 -1.23303 4.11212 0
M  V30 9551 C 904.536 -2.33736 4.79795 0
M  V30 9552 O 904.759 -3.53459 4.47686 0
M  V30 9553 O 903.693 -2.00908 5.67379 0
M  V30 9554 H 907.519 -0.0131242 3.03697 0
M  V30 9555 H 905.104 0.0592642 1.49282 0
M  V30 9556 H 906.986 -2.43241 3.4411 0
M  V30 9557 H 905.661 -2.32731 2.24984 0
M  V30 9558 H 904.568 -0.523222 3.70423 0
M  V30 9559 H 905.901 -0.707887 4.87083 0
M  V30 9560 N 907.553 -1.57587 0.0200696 0
M  V30 9561 C 908.8 -1.91424 -0.660525 0
M  V30 9562 C 909.128 -0.895626 -1.72652 0
M  V30 9563 O 908.383 0.096771 -1.95461 0
M  V30 9564 C 908.682 -3.32002 -1.32323 0
M  V30 9565 C 908.348 -4.49223 -0.388487 0
M  V30 9566 C 907.01 -4.81021 -0.131184 0
M  V30 9567 C 909.362 -5.20581 0.253906 0
M  V30 9568 C 906.69 -5.81539 0.776471 0
M  V30 9569 C 909.042 -6.22067 1.14956 0
M  V30 9570 C 907.706 -6.52311 1.41584 0
M  V30 9571 H 906.976 -0.700472 -0.241703 0
M  V30 9572 H 909.623 -1.91333 0.0798991 0
M  V30 9573 H 907.928 -3.28312 -2.13819 0
M  V30 9574 H 909.625 -3.5545 -1.85623 0
M  V30 9575 H 906.215 -4.24391 -0.599207 0
M  V30 9576 H 910.399 -4.96253 0.068164 0
M  V30 9577 H 905.655 -6.03322 0.990575 0
M  V30 9578 H 909.829 -6.76484 1.65357 0
M  V30 9579 H 907.456 -7.30017 2.12083 0
M  V30 9580 N 909.032 0.252966 -1.55557 0
M  V30 9581 C 909.995 1.29645 -1.8901 0
M  V30 9582 C 910.995 1.41378 -0.766096 0
M  V30 9583 O 912.185 1.40183 -1.03414 0
M  V30 9584 C 909.317 2.67504 -2.11316 0
M  V30 9585 H 910.51 1.01202 -2.82309 0
M  V30 9586 H 908.063 0.491977 -1.48355 0
M  V30 9587 H 908.798 3.01095 -1.20466 0
M  V30 9588 H 908.583 2.6037 -2.93172 0
M  V30 9589 H 910.073 3.42861 -2.38403 0
M  V30 9590 N 910.51 1.48831 0.518367 0
M  V30 9591 C 911.42 1.6692 1.64848 0
M  V30 9592 C 912.436 0.551711 1.65022 0
M  V30 9593 O 913.612 0.824251 1.83761 0
M  V30 9594 C 910.677 1.71559 3.01278 0
M  V30 9595 C 909.738 2.9502 3.11868 0
M  V30 9596 C 908.971 2.99428 4.4179 0
M  V30 9597 O 909.194 2.11914 5.29574 0
M  V30 9598 O 908.128 3.91719 4.5699 0
M  V30 9599 H 911.954 2.62623 1.52521 0
M  V30 9600 H 909.539 1.32368 0.692749 0
M  V30 9601 H 911.421 1.77064 3.82396 0
M  V30 9602 H 910.096 0.790316 3.13904 0
M  V30 9603 H 909.003 2.95042 2.30003 0
M  V30 9604 H 910.336 3.8697 3.04163 0
M  V30 9605 N 911.988 -0.768124 1.37614 0
M  V30 9606 C 912.951 -1.86314 1.3349 0
M  V30 9607 C 913.951 -1.59025 0.23823 0
M  V30 9608 O 915.141 -1.6704 0.494288 0
M  V30 9609 C 912.273 -3.23519 1.07462 0
M  V30 9610 H 913.466 -1.91382 2.30896 0
M  V30 9611 H 911.019 -0.968267 1.22696 0
M  V30 9612 H 911.754 -3.24127 0.106028 0
M  V30 9613 H 911.539 -3.44719 1.86846 0
M  V30 9614 H 913.029 -4.03597 1.07236 0
M  V30 9615 N 913.466 -1.22244 -0.994698 0
M  V30 9616 C 914.376 -1.00722 -2.11878 0
M  V30 9617 C 915.392 0.043919 -1.73945 0
M  V30 9618 O 916.568 -0.148411 -2.00852 0
M  V30 9619 C 913.633 -0.585723 -3.41717 0
M  V30 9620 C 912.694 -1.71027 -3.93762 0
M  V30 9621 C 911.927 -1.30879 -5.17403 0
M  V30 9622 O 912.15 -0.18681 -5.70094 0
M  V30 9623 O 911.084 -2.1246 -5.63156 0
M  V30 9624 H 914.91 -1.94894 -2.32916 0
M  V30 9625 H 912.495 -1.00822 -1.10251 0
M  V30 9626 H 914.377 -0.360935 -4.19851 0
M  V30 9627 H 913.052 0.327166 -3.22042 0
M  V30 9628 H 911.959 -1.98956 -3.16808 0
M  V30 9629 H 913.292 -2.60096 -4.17865 0
M  V30 9630 N 914.944 1.19125 -1.03184 0
M  V30 9631 C 916.221 1.84674 -0.644574 0
M  V30 9632 C 916.601 1.92042 0.876534 0
M  V30 9633 O 915.949 1.43965 1.77444 0
M  V30 9634 C 916.159 3.23477 -1.3101 0
M  V30 9635 C 917.507 3.99608 -1.43524 0
M  V30 9636 O 918.531 3.32886 -1.2675 0
M  V30 9637 O 917.39 5.19132 -1.70776 0
M  V30 9638 H 914.484 0.795968 -0.22442 0
M  V30 9639 H 917.03 1.2659 -1.13018 0
M  V30 9640 H 915.802 3.12967 -2.34878 0
M  V30 9641 H 915.425 3.89209 -0.812547 0
M  V30 9642 N 916.422 0.810101 1.35185 0
M  V30 9643 C 917.67 0.391343 1.98275 0
M  V30 9644 C 917.991 -1.04592 1.64577 0
M  V30 9645 O 917.261 -1.72417 0.93001 0
M  V30 9646 H 915.841 0.141715 0.733434 0
M  V30 9647 H 918.503 1.03672 1.6504 0
M  V30 9648 H 917.599 0.49991 3.0807 0
M  V30 9649 N 917.9 -1.47166 0.563914 0
M  V30 9650 C 919.148 -2.02056 0.0422873 0
M  V30 9651 C 919.469 -1.43992 -1.31497 0
M  V30 9652 O 918.739 -0.617578 -1.85911 0
M  V30 9653 H 917.319 -0.746893 0.0126427 0
M  V30 9654 H 919.981 -1.80492 0.735441 0
M  V30 9655 H 919.077 -3.12073 -0.0408044 0
M  V30 9656 N 919.378 -0.300708 -1.54705 0
M  V30 9657 C 920.603 0.314073 -2.05008 0
M  V30 9658 C 921.028 1.46759 -1.17657 0
M  V30 9659 O 920.386 1.80398 -0.180598 0
M  V30 9660 C 920.434 0.748243 -3.52752 0
M  V30 9661 O 919.538 1.85305 -3.68424 0
M  V30 9662 H 918.879 0.0610139 -0.661191 0
M  V30 9663 H 921.409 -0.442467 -1.99758 0
M  V30 9664 H 921.419 1.03713 -3.94598 0
M  V30 9665 H 920.094 -0.095573 -4.1579 0
M  V30 9666 H 918.671 1.56473 -3.38483 0
M  V30 9667 N 920.856 1.57574 -0.0284266 0
M  V30 9668 C 922.081 1.96479 0.664137 0
M  V30 9669 C 922.506 0.904826 1.64908 0
M  V30 9670 O 921.864 -0.134339 1.80802 0
M  V30 9671 C 921.912 3.34479 1.34745 0
M  V30 9672 O 921.016 3.30794 2.46271 0
M  V30 9673 H 920.357 0.640654 0.174524 0
M  V30 9674 H 922.887 2.04402 -0.0900729 0
M  V30 9675 H 922.897 3.70694 1.7044 0
M  V30 9676 H 921.572 4.1117 0.625468 0
M  V30 9677 H 920.149 3.06294 2.12693 0
M  V30 9678 N 922.334 -0.244713 1.55689 0
M  V30 9679 C 923.58 -0.973886 1.77886 0
M  V30 9680 C 923.913 -1.8489 0.594071 0
M  V30 9681 O 923.188 -1.90182 -0.407564 0
M  V30 9682 C 923.471 -1.83255 3.09983 0
M  V30 9683 C 923.324 -0.985571 4.3887 0
M  V30 9684 C 924.643 -2.81464 3.38329 0
M  V30 9685 H 921.762 -0.352629 0.647165 0
M  V30 9686 H 924.404 -0.244243 1.88424 0
M  V30 9687 H 922.554 -2.45464 3.01131 0
M  V30 9688 H 924.226 -0.382005 4.59716 0
M  V30 9689 H 922.469 -0.29002 4.32829 0
M  V30 9690 H 923.14 -1.62022 5.27686 0
M  V30 9691 H 925.616 -2.2939 3.47159 0
M  V30 9692 H 924.492 -3.38663 4.31971 0
M  V30 9693 H 924.753 -3.58037 2.59349 0
M  V30 9694 N 923.813 -1.49104 -0.510467 0
M  V30 9695 C 925.224 -1.51423 -1.09215 0
M  V30 9696 C 925.575 -0.295035 -1.93969 0
M  V30 9697 O 924.7 0.596064 -2.08029 0
M  V30 9698 C 925.295 -2.74387 -1.98739 0
M  V30 9699 C 923.854 -2.79515 -2.52088 0
M  V30 9700 C 923.001 -2.4521 -1.29488 0
M  V30 9701 H 925.952 -1.55938 -0.294807 0
M  V30 9702 H 925.973 -2.54012 -2.83298 0
M  V30 9703 H 925.485 -3.63105 -1.37026 0
M  V30 9704 H 923.586 -1.95054 -3.17466 0
M  V30 9705 H 923.699 -3.81447 -2.89887 0
M  V30 9706 H 922.063 -1.96785 -1.61703 0
M  V30 9707 H 922.846 -3.36192 -0.694978 0
M  V30 9708 N 925.291 0.760815 -1.38019 0
M  V30 9709 C 926.702 1.33773 -1.30237 0
M  V30 9710 C 927.053 1.96148 0.0451153 0
M  V30 9711 O 926.178 1.94574 0.9471 0
M  V30 9712 C 926.773 2.43227 -2.35851 0
M  V30 9713 C 925.332 2.96659 -2.31669 0
M  V30 9714 C 924.479 1.69972 -2.191 0
M  V30 9715 H 927.43 0.560237 -1.48482 0
M  V30 9716 H 927.451 3.22985 -2.01149 0
M  V30 9717 H 926.963 1.978 -3.33911 0
M  V30 9718 H 925.064 3.46433 -1.37167 0
M  V30 9719 H 925.177 3.51529 -3.25521 0
M  V30 9720 H 923.541 1.9332 -1.65829 0
M  V30 9721 H 924.324 1.26633 -3.19091 0
M  V30 9722 N 926.769 1.22769 0.988202 0
M  V30 9723 C 927.994 1.08239 1.76915 0
M  V30 9724 C 928.419 -0.362519 1.84574 0
M  V30 9725 O 927.777 -1.26202 1.30165 0
M  V30 9726 C 927.825 1.70363 3.17819 0
M  V30 9727 O 926.929 0.960484 4.01059 0
M  V30 9728 H 926.27 0.379872 0.544604 0
M  V30 9729 H 928.8 1.62663 1.24104 0
M  V30 9730 H 928.81 1.7528 3.6843 0
M  V30 9731 H 927.485 2.75505 3.1156 0
M  V30 9732 H 926.062 0.987667 3.59582 0
M  V30 9733 N 928.247 -1.18576 1.03814 0
M  V30 9734 C 929.658 -1.70159 0.768299 0
M  V30 9735 C 930.009 -1.8286 -0.711106 0
M  V30 9736 O 929.134 -1.5063 -1.55369 0
M  V30 9737 C 929.729 -3.09062 1.38804 0
M  V30 9738 C 928.288 -3.57866 1.16656 0
M  V30 9739 C 927.435 -2.34484 1.48029 0
M  V30 9740 H 930.386 -1.03287 1.20488 0
M  V30 9741 H 930.407 -3.72211 0.7899 0
M  V30 9742 H 929.919 -2.99785 2.46476 0
M  V30 9743 H 928.02 -3.72442 0.108471 0
M  V30 9744 H 928.133 -4.41445 1.8618 0
M  V30 9745 H 926.497 -2.38273 0.899902 0
M  V30 9746 H 927.28 -2.27829 2.56805 0
M  V30 9747 N 929.725 -0.817259 -1.34754 0
M  V30 9748 C 930.955 -0.414849 -2.02392 0
M  V30 9749 C 931.363 0.982186 -1.61709 0
M  V30 9750 O 930.706 1.64607 -0.815481 0
M  V30 9751 C 930.768 -0.430981 -3.56907 0
M  V30 9752 C 930.432 -1.78037 -4.20894 0
M  V30 9753 C 931.429 -2.74034 -4.41816 0
M  V30 9754 C 929.114 -2.0673 -4.57786 0
M  V30 9755 C 931.108 -3.96901 -4.98747 0
M  V30 9756 C 928.795 -3.29858 -5.14429 0
M  V30 9757 C 929.793 -4.24761 -5.34853 0
M  V30 9758 O 929.481 -5.45714 -5.90298 0
M  V30 9759 H 929.213 -0.165392 -0.655455 0
M  V30 9760 H 931.767 -1.10524 -1.73129 0
M  V30 9761 H 929.997 0.316074 -3.85406 0
M  V30 9762 H 931.686 -0.0494067 -4.0587 0
M  V30 9763 H 932.452 -2.53161 -4.13684 0
M  V30 9764 H 928.331 -1.33666 -4.41197 0
M  V30 9765 H 931.875 -4.70987 -5.14604 0
M  V30 9766 H 927.772 -3.50597 -5.41989 0
M  V30 9767 H 928.54 -5.47157 -6.08738 0
M  V30 9768 N 931.203 1.46865 -0.571711 0
M  V30 9769 C 932.428 2.07323 -0.0564655 0
M  V30 9770 C 932.853 1.41938 1.23431 0
M  V30 9771 O 932.211 0.499334 1.74288 0
M  V30 9772 C 932.259 3.6044 0.107339 0
M  V30 9773 O 931.363 3.95558 1.1665 0
M  V30 9774 H 930.704 0.661475 -0.0578465 0
M  V30 9775 H 933.234 1.88669 -0.791524 0
M  V30 9776 H 933.244 4.06767 0.316987 0
M  V30 9777 H 931.919 4.07425 -0.835348 0
M  V30 9778 H 930.496 3.60957 0.936189 0
M  V30 9779 N 932.681 0.308908 1.54543 0
M  V30 9780 C 933.909 -0.300418 2.04707 0
M  V30 9781 C 934.324 -1.46915 1.18581 0
M  V30 9782 O 933.681 -1.81251 0.213186 0
M  V30 9783 C 933.732 -0.749038 3.53655 0
M  V30 9784 O 933.453 0.373181 4.36508 0
M  V30 9785 C 934.954 -1.4227 4.1985 0
M  V30 9786 H 932.174 -0.0641267 0.667929 0
M  V30 9787 H 934.718 0.450839 1.99469 0
M  V30 9788 H 932.873 -1.4503 3.59228 0
M  V30 9789 H 933.287 0.0224752 5.24495 0
M  V30 9790 H 934.761 -1.68768 5.25568 0
M  V30 9791 H 935.238 -2.36531 3.70067 0
M  V30 9792 H 935.844 -0.764404 4.18374 0
M  V30 9793 N 934.159 -1.57557 0.0367827 0
M  V30 9794 C 935.57 -1.79853 -0.500971 0
M  V30 9795 C 935.921 -0.947749 -1.71791 0
M  V30 9796 O 935.046 -0.160287 -2.15806 0
M  V30 9797 C 935.641 -3.26193 -0.915626 0
M  V30 9798 C 934.2 -3.49457 -1.39845 0
M  V30 9799 C 933.347 -2.74864 -0.366784 0
M  V30 9800 H 936.298 -1.56509 0.262768 0
M  V30 9801 H 936.319 -3.36324 -1.7795 0
M  V30 9802 H 935.831 -3.88089 -0.0297227 0
M  V30 9803 H 933.932 -2.92823 -2.30402 0
M  V30 9804 H 934.045 -4.58172 -1.40054 0
M  V30 9805 H 932.409 -2.4057 -0.836554 0
M  V30 9806 H 933.192 -3.39479 0.510785 0
M  V30 9807 N 935.637 0.236453 -1.55816 0
M  V30 9808 C 936.862 0.98449 -1.82545 0
M  V30 9809 C 937.287 1.77755 -0.615206 0
M  V30 9810 O 936.645 1.75982 0.435895 0
M  V30 9811 C 936.693 1.88973 -3.07118 0
M  V30 9812 O 935.797 2.98298 -2.84766 0
M  V30 9813 H 935.138 0.279577 -0.602273 0
M  V30 9814 H 937.668 0.254277 -2.03014 0
M  V30 9815 H 937.678 2.3024 -3.36829 0
M  V30 9816 H 936.353 1.30671 -3.94839 0
M  V30 9817 H 934.93 2.61085 -2.6625 0
M  V30 9818 N 937.115 1.49373 0.502552 0
M  V30 9819 C 938.345 1.62252 1.27898 0
M  V30 9820 C 938.753 0.292555 1.86924 0
M  V30 9821 O 938.096 -0.731823 1.68493 0
M  V30 9822 C 938.158 2.63153 2.4493 0
M  V30 9823 C 937.822 4.07541 2.06784 0
M  V30 9824 C 938.819 4.94392 1.60849 0
M  V30 9825 C 936.504 4.53263 2.16466 0
M  V30 9826 C 938.498 6.25003 1.25098 0
M  V30 9827 C 936.185 5.83888 1.80327 0
M  V30 9828 C 937.183 6.69582 1.34718 0
M  V30 9829 O 936.871 7.97773 0.990661 0
M  V30 9830 H 936.603 0.54918 0.394179 0
M  V30 9831 H 939.157 1.96132 0.610031 0
M  V30 9832 H 937.387 2.2445 3.14895 0
M  V30 9833 H 939.076 2.65578 3.06957 0
M  V30 9834 H 939.842 4.60296 1.52816 0
M  V30 9835 H 935.721 3.86731 2.50919 0
M  V30 9836 H 939.265 6.91844 0.894269 0
M  V30 9837 H 935.162 6.17513 1.8801 0
M  V30 9838 H 935.93 8.1077 1.12227 0
M  V30 9839 N 938.594 -0.753485 1.38421 0
M  V30 9840 C 939.524 -1.8808 1.38377 0
M  V30 9841 C 940.505 -1.68258 0.249664 0
M  V30 9842 O 941.69 -1.88848 0.45276 0
M  V30 9843 C 938.82 -3.25608 1.20818 0
M  V30 9844 C 937.774 -3.60032 2.31433 0
M  V30 9845 C 937.1 -4.96297 1.9898 0
M  V30 9846 C 938.4 -3.64898 3.73694 0
M  V30 9847 H 940.094 -1.88375 2.32713 0
M  V30 9848 H 937.64 -0.90489 1.12017 0
M  V30 9849 H 939.593 -4.04127 1.19412 0
M  V30 9850 H 938.317 -3.25793 0.229433 0
M  V30 9851 H 936.976 -2.83831 2.32025 0
M  V30 9852 H 936.624 -4.93043 0.995889 0
M  V30 9853 H 936.324 -5.20298 2.73063 0
M  V30 9854 H 937.848 -5.77196 1.99193 0
M  V30 9855 H 939.262 -4.33531 3.75132 0
M  V30 9856 H 937.659 -4.00407 4.46983 0
M  V30 9857 H 938.729 -2.65124 4.06002 0
M  V30 9858 N 940.072 -1.23292 -0.981677 0
M  V30 9859 C 941.297 -1.09176 -1.76339 0
M  V30 9860 C 941.722 0.352726 -1.84763 0
M  V30 9861 O 941.08 1.25509 -1.30832 0
M  V30 9862 C 941.128 -1.72046 -3.16911 0
M  V30 9863 O 940.232 -0.98174 -4.00544 0
M  V30 9864 H 939.573 -0.382755 -0.542581 0
M  V30 9865 H 942.103 -1.63319 -1.23239 0
M  V30 9866 H 942.113 -1.77232 -3.67495 0
M  V30 9867 H 940.788 -2.77154 -3.10095 0
M  V30 9868 H 939.365 -1.00672 -3.59054 0
M  V30 9869 N 941.55 1.18024 -1.04442 0
M  V30 9870 C 942.796 1.88377 -0.751133 0
M  V30 9871 C 943.129 1.80377 0.719571 0
M  V30 9872 O 942.404 1.20662 1.52548 0
M  V30 9873 C 942.687 3.38708 -1.22265 0
M  V30 9874 C 942.54 3.55499 -2.75574 0
M  V30 9875 C 943.859 4.32475 -0.815688 0
M  V30 9876 H 940.978 0.684037 -0.27434 0
M  V30 9877 H 943.62 1.38837 -1.29709 0
M  V30 9878 H 941.77 3.8103 -0.758192 0
M  V30 9879 H 943.442 3.22244 -3.30086 0
M  V30 9880 H 941.685 2.98028 -3.15217 0
M  V30 9881 H 942.356 4.60994 -3.03625 0
M  V30 9882 H 944.832 3.97953 -1.21542 0
M  V30 9883 H 943.708 5.36213 -1.17331 0
M  V30 9884 H 943.969 4.41207 0.280901 0
M  V30 9885 N 943.028 0.824394 1.34319 0
M  V30 9886 C 944.439 0.471802 1.8064 0
M  V30 9887 C 944.79 -1.00793 1.6833 0
M  V30 9888 O 943.915 -1.78447 1.22416 0
M  V30 9889 C 944.51 0.849609 3.27974 0
M  V30 9890 C 943.069 0.549365 3.72369 0
M  V30 9891 C 942.216 1.06573 2.56003 0
M  V30 9892 H 945.167 1.01443 1.22045 0
M  V30 9893 H 945.188 0.153968 3.80188 0
M  V30 9894 H 944.7 1.92663 3.36902 0
M  V30 9895 H 942.801 -0.518182 3.68979 0
M  V30 9896 H 942.914 1.09446 4.66432 0
M  V30 9897 H 941.278 0.487214 2.49997 0
M  V30 9898 H 942.061 2.14923 2.677 0
M  V30 9899 N 944.506 -1.46559 0.579492 0
M  V30 9900 C 945.436 -2.33059 -0.143437 0
M  V30 9901 C 946.417 -1.4515 -0.886868 0
M  V30 9902 O 947.602 -1.73973 -0.862961 0
M  V30 9903 C 944.732 -3.27364 -1.15973 0
M  V30 9904 C 943.686 -4.24689 -0.531348 0
M  V30 9905 C 943.012 -5.08479 -1.65388 0
M  V30 9906 C 944.312 -5.1961 0.529391 0
M  V30 9907 H 946.006 -2.93753 0.578762 0
M  V30 9908 H 943.552 -1.41256 0.279775 0
M  V30 9909 H 945.505 -3.86732 -1.67382 0
M  V30 9910 H 944.229 -2.64771 -1.91217 0
M  V30 9911 H 942.888 -3.6658 -0.0383749 0
M  V30 9912 H 942.536 -4.42273 -2.3959 0
M  V30 9913 H 942.236 -5.74387 -1.23909 0
M  V30 9914 H 943.76 -5.70709 -2.17079 0
M  V30 9915 H 945.174 -5.73212 0.100506 0
M  V30 9916 H 943.571 -5.93843 0.86432 0
M  V30 9917 H 944.641 -4.63737 1.4169 0
M  V30 9918 N 945.984 -0.3171 -1.54377 0
M  V30 9919 C 947.395 0.172287 -1.85903 0
M  V30 9920 C 947.746 1.52141 -1.23885 0
M  V30 9921 O 946.871 2.0949 -0.542476 0
M  V30 9922 C 947.466 0.319392 -3.37291 0
M  V30 9923 C 946.025 0.752998 -3.68791 0
M  V30 9924 C 945.172 -0.129143 -2.76999 0
M  V30 9925 H 948.123 -0.537597 -1.49317 0
M  V30 9926 H 948.144 1.15137 -3.62662 0
M  V30 9927 H 947.656 -0.662671 -3.82401 0
M  V30 9928 H 945.757 1.74504 -3.2921 0
M  V30 9929 H 945.87 0.561228 -4.75801 0
M  V30 9930 H 944.234 0.394242 -2.5163 0
M  V30 9931 H 945.017 -1.10785 -3.24933 0
M  V30 9932 N 947.462 1.57535 -0.0451378 0
M  V30 9933 C 948.425 2.1008 0.916461 0
M  V30 9934 C 949.425 1.01913 1.2438 0
M  V30 9935 O 950.615 1.2801 1.18148 0
M  V30 9936 C 947.747 2.58001 2.22818 0
M  V30 9937 H 948.94 2.96334 0.461076 0
M  V30 9938 H 946.493 1.54974 0.203169 0
M  V30 9939 H 947.228 1.75123 2.72951 0
M  V30 9940 H 947.013 3.3704 2.00366 0
M  V30 9941 H 948.503 2.98822 2.9171 0
M  V30 9942 N 948.94 -0.228186 1.55939 0
M  V30 9943 C 949.85 -1.30386 1.9503 0
M  V30 9944 C 950.866 -1.51645 0.853218 0
M  V30 9945 O 952.042 -1.64904 1.15623 0
M  V30 9946 C 949.107 -2.63489 2.25332 0
M  V30 9947 C 948.168 -2.5059 3.48573 0
M  V30 9948 C 947.401 -3.77345 3.7742 0
M  V30 9949 O 947.624 -4.80067 3.08045 0
M  V30 9950 O 946.558 -3.74855 4.70922 0
M  V30 9951 H 950.384 -1.0022 2.86687 0
M  V30 9952 H 947.969 -0.430503 1.43063 0
M  V30 9953 H 949.851 -3.4211 2.46046 0
M  V30 9954 H 948.526 -2.93349 1.3685 0
M  V30 9955 H 947.433 -1.70191 3.33145 0
M  V30 9956 H 948.766 -2.2567 4.37417 0
M  V30 9957 N 950.418 -1.49637 -0.494624 0
M  V30 9958 C 951.829 -1.52573 -1.07603 0
M  V30 9959 C 952.18 -0.315591 -1.93645 0
M  V30 9960 O 951.305 0.573966 -2.08649 0
M  V30 9961 C 951.9 -2.7648 -1.95817 0
M  V30 9962 C 950.459 -2.82173 -2.49109 0
M  V30 9963 C 949.606 -2.4657 -1.2688 0
M  V30 9964 H 952.557 -1.56242 -0.278251 0
M  V30 9965 H 952.578 -2.57003 -2.80588 0
M  V30 9966 H 952.09 -3.64538 -1.33167 0
M  V30 9967 H 950.191 -1.9841 -3.15379 0
M  V30 9968 H 950.304 -3.84501 -2.85825 0
M  V30 9969 H 948.668 -1.98489 -1.59607 0
M  V30 9970 H 949.451 -3.3691 -0.659281 0
M  V30 9971 N 951.896 0.746133 -1.38819 0
M  V30 9972 C 953.121 1.54049 -1.38866 0
M  V30 9973 C 953.546 1.88092 0.0176624 0
M  V30 9974 O 952.904 1.51113 1.00173 0
M  V30 9975 C 952.952 2.8116 -2.25791 0
M  V30 9976 O 952.056 3.76623 -1.68014 0
M  V30 9977 H 951.397 0.465648 -0.473359 0
M  V30 9978 H 953.927 0.921469 -1.82675 0
M  V30 9979 H 953.937 3.30009 -2.39913 0
M  V30 9980 H 952.612 2.55713 -3.27999 0
M  V30 9981 H 951.189 3.35352 -1.63074 0
M  V30 9982 N 953.375 1.23811 0.975125 0
M  V30 9983 C 954.786 1.0675 1.53171 0
M  V30 9984 C 955.137 -0.363475 1.92804 0
M  V30 9985 O 954.262 -1.25089 1.76583 0
M  V30 9986 C 954.857 1.93161 2.78342 0
M  V30 9987 C 953.416 1.80346 3.30382 0
M  V30 9988 C 952.563 1.88544 2.03338 0
M  V30 9989 H 955.514 1.37396 0.79423 0
M  V30 9990 H 955.535 1.45951 3.51395 0
M  V30 9991 H 955.047 2.97302 2.49465 0
M  V30 9992 H 953.148 0.790077 3.64127 0
M  V30 9993 H 953.261 2.64026 3.99784 0
M  V30 9994 H 951.625 1.32186 2.17713 0
M  V30 9995 H 952.408 2.94252 1.76836 0
M  V30 9996 N 954.853 -1.17469 1.05066 0
M  V30 9997 C 956.101 -1.87327 0.758485 0
M  V30 9998 C 956.422 -1.81358 -0.716549 0
M  V30 9999 O 955.692 -1.23868 -1.51768 0
M  V30 10000 H 954.272 -0.693512 0.277579 0
M  V30 10001 H 956.934 -1.4251 1.32954 0
M  V30 10002 H 956.03 -2.93101 1.0723 0
M  V30 10003 N 956.331 -0.831506 -1.3388 0
M  V30 10004 C 957.294 -0.264773 -2.27666 0
M  V30 10005 C 958.294 0.562273 -1.50649 0
M  V30 10006 O 959.484 0.377131 -1.70069 0
M  V30 10007 C 956.616 0.627814 -3.35069 0
M  V30 10008 H 957.809 -1.09225 -2.79303 0
M  V30 10009 H 955.362 -0.604021 -1.44157 0
M  V30 10010 H 956.097 1.47802 -2.88661 0
M  V30 10011 H 955.882 0.0361552 -3.92083 0
M  V30 10012 H 957.372 1.01786 -4.05005 0
M  V30 10013 N 957.809 1.4625 -0.587256 0
M  V30 10014 C 959.225 1.57641 -0.249284 0
M  V30 10015 C 959.425 1.58169 1.24839 0
M  V30 10016 O 958.481 1.50109 2.03036 0
M  V30 10017 C 959.794 2.86837 -0.902509 0
M  V30 10018 C 961.342 3.00476 -0.876524 0
M  V30 10019 C 961.817 4.32414 -1.50938 0
M  V30 10020 N 963.308 4.39124 -1.47392 0
M  V30 10021 C 964.043 5.39838 -1.93293 0
M  V30 10022 N 963.539 6.47202 -2.47188 0
M  V30 10023 N 965.332 5.31068 -1.84183 0
M  V30 10024 H 957.483 1.44151 -1.55994 0
M  V30 10025 H 959.746 0.687905 -0.652297 0
M  V30 10026 H 959.452 2.92274 -1.95624 0
M  V30 10027 H 959.326 3.74927 -0.413466 0
M  V30 10028 H 961.713 2.94618 0.168601 0
M  V30 10029 H 961.794 2.1385 -1.40363 0
M  V30 10030 H 961.438 4.3903 -2.55372 0
M  V30 10031 H 961.368 5.17823 -0.957455 0
M  V30 10032 H 963.859 3.62138 -1.08002 0
M  V30 10033 H 964.172 7.20269 -2.80058 0
M  V30 10034 H 962.517 6.48009 -2.51216 0
M  V30 10035 H 965.708 4.46095 -1.41833 0
M  V30 10036 H 965.881 6.09414 -2.2027 0
M  V30 10037 N 959.287 0.325282 1.54207 0
M  V30 10038 C 960.25 -0.527228 2.23054 0
M  V30 10039 C 961.25 -1.04217 1.22456 0
M  V30 10040 O 962.44 -0.934325 1.47024 0
M  V30 10041 C 959.572 -1.7325 2.93594 0
M  V30 10042 H 960.765 0.0746423 2.99807 0
M  V30 10043 H 958.318 0.0763872 1.56113 0
M  V30 10044 H 959.053 -2.37356 2.20981 0
M  V30 10045 H 958.838 -1.37065 3.67363 0
M  V30 10046 H 960.328 -2.3376 3.46043 0
M  V30 10047 N 960.765 -1.57509 0.0534917 0
M  V30 10048 C 962.176 -1.80374 -0.481867 0
M  V30 10049 C 962.527 -0.965917 -1.70776 0
M  V30 10050 O 961.652 -0.183167 -2.15623 0
M  V30 10051 C 962.247 -3.27146 -0.880978 0
M  V30 10052 C 960.806 -3.50921 -1.3613 0
M  V30 10053 C 959.953 -2.75237 -0.337611 0
M  V30 10054 H 962.904 -1.56222 0.279353 0
M  V30 10055 H 962.925 -3.38193 -1.74373 0
M  V30 10056 H 962.437 -3.88098 0.011441 0
M  V30 10057 H 960.538 -2.95251 -2.27283 0
M  V30 10058 H 960.651 -4.59632 -1.35186 0
M  V30 10059 H 959.015 -2.41444 -0.810991 0
M  V30 10060 H 959.798 -3.38918 0.546763 0
M  V30 10061 N 962.243 0.219913 -1.56058 0
M  V30 10062 C 963.489 0.941055 -1.80321 0
M  V30 10063 C 963.844 1.81906 -0.626735 0
M  V30 10064 O 963.137 1.87811 0.379147 0
M  V30 10065 C 963.331 1.81293 -3.08006 0
M  V30 10066 C 963.16 1.02082 -4.37961 0
M  V30 10067 C 961.93 0.715096 -5.00214 0
M  V30 10068 C 964.128 0.385342 -5.12854 0
M  V30 10069 N 962.11 -0.098246 -6.13821 0
M  V30 10070 C 963.481 -0.291319 -6.19315 0
M  V30 10071 C 965.536 0.29854 -4.97004 0
M  V30 10072 C 964.239 -1.04648 -7.11647 0
M  V30 10073 C 966.265 -0.443159 -5.89737 0
M  V30 10074 C 965.627 -1.10836 -6.95625 0
M  V30 10075 H 961.726 0.324568 -0.711463 0
M  V30 10076 H 964.31 0.211795 -1.93545 0
M  V30 10077 H 962.481 2.51399 -2.96063 0
M  V30 10078 H 964.213 2.47167 -3.20454 0
M  V30 10079 H 960.968 1.03352 -4.62185 0
M  V30 10080 H 961.392 -0.4938 -6.75197 0
M  V30 10081 H 966.034 0.798478 -4.15192 0
M  V30 10082 H 963.752 -1.55793 -7.9294 0
M  V30 10083 H 967.338 -0.511348 -5.79549 0
M  V30 10084 H 966.218 -1.6731 -7.66144 0
M  V30 10085 N 963.721 1.49897 0.486681 0
M  V30 10086 C 964.631 1.70379 1.6127 0
M  V30 10087 C 965.647 0.58659 1.63814 0
M  V30 10088 O 966.823 0.863044 1.81971 0
M  V30 10089 C 963.888 1.77911 2.97571 0
M  V30 10090 C 962.949 3.01569 3.0554 0
M  V30 10091 C 962.182 3.08732 4.35339 0
M  V30 10092 O 962.405 2.23099 5.2496 0
M  V30 10093 O 961.339 4.01325 4.48578 0
M  V30 10094 H 965.165 2.65799 1.46916 0
M  V30 10095 H 962.75 1.33808 0.664516 0
M  V30 10096 H 964.632 1.85135 3.78554 0
M  V30 10097 H 963.307 0.856722 3.12157 0
M  V30 10098 H 962.214 2.99854 2.23693 0
M  V30 10099 H 963.547 3.93335 2.95886 0
M  V30 10100 N 965.199 -0.738761 1.39212 0
M  V30 10101 C 966.61 -1.31684 1.32348 0
M  V30 10102 C 966.961 -1.96195 -0.0139041 0
M  V30 10103 O 966.086 -1.96056 -0.916025 0
M  V30 10104 C 966.681 -2.39444 2.39691 0
M  V30 10105 C 965.24 -2.92935 2.36359 0
M  V30 10106 C 964.387 -1.66465 2.21776 0
M  V30 10107 H 967.338 -0.536543 1.49355 0
M  V30 10108 H 967.359 -3.19744 2.06262 0
M  V30 10109 H 966.871 -1.92463 3.37016 0
M  V30 10110 H 964.972 -3.44207 1.42662 0
M  V30 10111 H 965.085 -3.46306 3.31073 0
M  V30 10112 H 963.449 -1.90657 1.68884 0
M  V30 10113 H 964.232 -1.21541 3.21065 0
M  V30 10114 N 966.677 -1.24326 -0.968545 0
M  V30 10115 C 967.905 -1.10947 -1.74638 0
M  V30 10116 C 968.32 0.338064 -1.85749 0
M  V30 10117 O 967.677 1.23331 -1.3452 0
M  V30 10118 C 967.728 -1.74254 -3.1673 0
M  V30 10119 O 967.449 -3.13347 -3.06178 0
M  V30 10120 C 968.95 -1.66473 -4.10855 0
M  V30 10121 H 966.17 -0.38767 -0.547679 0
M  V30 10122 H 968.714 -1.64415 -1.21605 0
M  V30 10123 H 966.869 -1.2479 -3.66751 0
M  V30 10124 H 967.283 -3.44255 -3.95713 0
M  V30 10125 H 968.757 -2.15452 -5.08217 0
M  V30 10126 H 969.234 -0.625785 -4.34719 0
M  V30 10127 H 969.84 -2.15359 -3.66743 0
M  V30 10128 N 968.156 1.1691 -1.05688 0
M  V30 10129 C 969.567 1.68915 -0.795273 0
M  V30 10130 C 969.918 1.83968 0.681925 0
M  V30 10131 O 969.043 1.53083 1.52953 0
M  V30 10132 C 969.638 3.06814 -1.43703 0
M  V30 10133 C 968.197 3.55965 -1.22335 0
M  V30 10134 C 967.344 2.32099 -1.51741 0
M  V30 10135 H 970.295 1.01357 -1.22116 0
M  V30 10136 H 970.316 3.70907 -0.849016 0
M  V30 10137 H 969.828 2.95826 -2.51214 0
M  V30 10138 H 967.929 3.72222 -0.16771 0
M  V30 10139 H 968.042 4.38427 -1.9318 0
M  V30 10140 H 966.406 2.36811 -0.937696 0
M  V30 10141 H 967.189 2.23715 -2.60397 0
M  V30 10142 N 969.634 0.838594 1.33437 0
M  V30 10143 C 970.859 0.446701 2.02532 0
M  V30 10144 C 971.284 -0.944275 1.62681 0
M  V30 10145 O 970.642 -1.61733 0.81927 0
M  V30 10146 C 970.69 0.574794 3.55989 0
M  V30 10147 O 969.794 -0.399063 4.10465 0
M  V30 10148 H 969.135 0.181637 0.638674 0
M  V30 10149 H 971.665 1.13335 1.70342 0
M  V30 10150 H 971.675 0.456339 4.0544 0
M  V30 10151 H 970.35 1.58921 3.8434 0
M  V30 10152 H 968.927 -0.238187 3.72139 0
M  V30 10153 N 971.112 -1.45937 0.595003 0
M  V30 10154 C 972.075 -2.2888 -0.121102 0
M  V30 10155 C 973.075 -1.39075 -0.807149 0
M  V30 10156 O 974.265 -1.61326 -0.657228 0
M  V30 10157 C 971.397 -3.19778 -1.1813 0
M  V30 10158 H 972.59 -2.93673 0.607968 0
M  V30 10159 H 970.143 -1.5225 0.353495 0
M  V30 10160 H 970.878 -2.59759 -1.94154 0
M  V30 10161 H 970.663 -3.85914 -0.693724 0
M  V30 10162 H 972.153 -3.82176 -1.68319 0
M  V30 10163 N 972.59 -0.333456 -1.54032 0
M  V30 10164 C 974.001 0.15256 -1.86076 0
M  V30 10165 C 974.352 1.50819 -1.25492 0
M  V30 10166 O 973.477 2.08903 -0.564665 0
M  V30 10167 C 974.072 0.283599 -3.37611 0
M  V30 10168 C 972.631 0.713841 -3.69569 0
M  V30 10169 C 971.778 -0.158515 -2.76847 0
M  V30 10170 H 974.729 -0.553404 -1.48738 0
M  V30 10171 H 974.75 1.11284 -3.63863 0
M  V30 10172 H 974.262 -0.703193 -3.81676 0
M  V30 10173 H 972.363 1.71002 -3.31042 0
M  V30 10174 H 972.476 0.510731 -4.7637 0
M  V30 10175 H 970.84 0.367531 -2.52034 0
M  V30 10176 H 971.623 -1.14226 -3.2374 0
M  V30 10177 N 974.068 1.57479 -0.061844 0
M  V30 10178 C 975.479 1.80627 0.472295 0
M  V30 10179 C 975.83 0.97496 1.70261 0
M  V30 10180 O 974.955 0.1946 2.15523 0
M  V30 10181 C 975.55 3.27608 0.863616 0
M  V30 10182 C 974.109 3.51638 1.34267 0
M  V30 10183 C 973.256 2.75412 0.323009 0
M  V30 10184 H 976.207 1.56072 -0.287634 0
M  V30 10185 H 976.228 3.39113 1.72577 0
M  V30 10186 H 975.74 3.88087 -0.0320226 0
M  V30 10187 H 973.841 2.96452 2.25714 0
M  V30 10188 H 973.954 4.60342 1.32747 0
M  V30 10189 H 972.318 2.4187 0.798175 0
M  V30 10190 H 973.101 3.38623 -0.564729 0
M  V30 10191 N 975.546 -0.211634 1.56173 0
M  V30 10192 C 976.509 -1.24588 1.92381 0
M  V30 10193 C 977.509 -1.39297 0.803311 0
M  V30 10194 O 978.699 -1.37392 1.07094 0
M  V30 10195 C 975.831 -2.61807 2.18335 0
M  V30 10196 H 977.024 -0.936814 2.84893 0
M  V30 10197 H 974.577 -0.452471 1.49607 0
M  V30 10198 H 975.312 -2.97795 1.28407 0
M  V30 10199 H 975.097 -2.52506 2.99972 0
M  V30 10200 H 976.587 -3.3642 2.4741 0
M  V30 10201 N 977.024 -1.50153 -0.478725 0
M  V30 10202 C 978.44 -1.3741 -0.811833 0
M  V30 10203 C 978.64 -0.424303 -1.96982 0
M  V30 10204 O 977.696 0.13588 -2.52134 0
M  V30 10205 C 979.009 -2.78616 -1.13108 0
M  V30 10206 C 980.557 -2.87477 -1.23798 0
M  V30 10207 C 981.032 -4.295 -1.5904 0
M  V30 10208 N 982.523 -4.32415 -1.66047 0
M  V30 10209 C 983.258 -5.39295 -1.94805 0
M  V30 10210 N 982.754 -6.56392 -2.21635 0
M  V30 10211 N 984.547 -5.26731 -1.96243 0
M  V30 10212 H 976.698 -2.10486 0.284531 0
M  V30 10213 H 978.961 -0.945786 0.0647585 0
M  V30 10214 H 978.667 -3.49921 -0.35334 0
M  V30 10215 H 978.541 -3.15382 -2.06915 0
M  V30 10216 H 980.928 -2.16396 -2.00641 0
M  V30 10217 H 981.009 -2.54264 -0.279888 0
M  V30 10218 H 980.653 -5.01115 -0.827404 0
M  V30 10219 H 980.583 -4.60194 -2.55987 0
M  V30 10220 H 983.074 -3.47975 -1.47383 0
M  V30 10221 H 983.387 -7.33658 -2.4283 0
M  V30 10222 H 981.732 -6.59579 -2.19043 0
M  V30 10223 H 984.923 -4.34249 -1.74773 0
M  V30 10224 H 985.096 -6.10115 -2.1832 0
M  V30 10225 N 978.502 0.731368 -1.39602 0
M  V30 10226 C 979.748 1.49211 -1.38231 0
M  V30 10227 C 980.103 1.92389 0.020747 0
M  V30 10228 O 979.396 1.64161 0.988014 0
M  V30 10229 C 979.59 2.74224 -2.29208 0
M  V30 10230 C 979.419 2.4327 -3.78219 0
M  V30 10231 C 978.189 2.35387 -4.47125 0
M  V30 10232 C 980.387 2.08574 -4.70108 0
M  V30 10233 N 978.369 1.96942 -5.81452 0
M  V30 10234 C 979.74 1.80603 -5.93113 0
M  V30 10235 C 981.795 1.95074 -4.58095 0
M  V30 10236 C 980.498 1.40491 -7.05447 0
M  V30 10237 C 982.524 1.56365 -5.70354 0
M  V30 10238 C 981.886 1.29281 -6.92435 0
M  V30 10239 H 977.985 0.544703 -0.56109 0
M  V30 10240 H 980.569 0.849647 -1.75183 0
M  V30 10241 H 978.74 3.36244 -1.94408 0
M  V30 10242 H 980.472 3.40451 -2.18803 0
M  V30 10243 H 977.227 2.52604 -4.0061 0
M  V30 10244 H 977.651 1.80303 -6.52549 0
M  V30 10245 H 982.293 2.1468 -3.64242 0
M  V30 10246 H 980.011 1.19626 -7.99197 0
M  V30 10247 H 983.597 1.4652 -5.63048 0
M  V30 10248 H 982.477 0.997769 -7.77827 0
M  V30 10249 N 979.98 1.24838 0.961938 0
M  V30 10250 C 981.228 1.08936 1.70227 0
M  V30 10251 C 981.549 -0.371582 1.91427 0
M  V30 10252 O 980.819 -1.26461 1.49614 0
M  V30 10253 H 979.399 0.400128 0.630799 0
M  V30 10254 H 982.061 1.56848 1.15692 0
M  V30 10255 H 981.157 1.59195 2.68446 0
M  V30 10256 N 981.458 -1.16348 1.06306 0
M  V30 10257 C 982.408 -2.18717 0.643947 0
M  V30 10258 C 983.392 -1.57574 -0.325445 0
M  V30 10259 O 984.584 -1.76439 -0.140868 0
M  V30 10260 C 981.713 -3.43285 0.0320266 0
M  V30 10261 C 980.799 -4.11504 1.02592 0
M  V30 10262 N 981.19 -4.55374 2.20155 0
M  V30 10263 C 979.488 -4.37691 0.856887 0
M  V30 10264 C 980.189 -5.08149 2.83124 0
M  V30 10265 N 979.165 -5.01042 2.10851 0
M  V30 10266 H 982.967 -2.50353 1.53951 0
M  V30 10267 H 980.481 -1.328 0.934763 0
M  V30 10268 H 982.478 -4.15917 -0.286064 0
M  V30 10269 H 981.138 -3.13137 -0.858786 0
M  V30 10270 H 982.149 -4.49101 2.57931 0
M  V30 10271 H 978.826 -4.17496 0.0180742 0
M  V30 10272 H 980.216 -5.52131 3.82885 0
M  V30 10273 N 982.937 -0.845659 -1.3299 0
M  V30 10274 C 984.185 -0.443774 -1.97168 0
M  V30 10275 C 984.506 1.00192 -1.67292 0
M  V30 10276 O 983.776 1.69891 -0.975397 0
M  V30 10277 H 982.356 -0.161111 -0.729419 0
M  V30 10278 H 985.018 -1.08011 -1.62233 0
M  V30 10279 H 984.114 -0.581414 -3.06637 0
M  V30 10280 N 984.415 1.45619 -0.602734 0
M  V30 10281 C 985.378 2.28941 0.108962 0
M  V30 10282 C 986.378 1.39501 0.799762 0
M  V30 10283 O 987.568 1.61673 0.648663 0
M  V30 10284 C 984.7 3.204 1.16432 0
M  V30 10285 H 985.893 2.93346 -0.623534 0
M  V30 10286 H 983.446 1.52061 -0.361565 0
M  V30 10287 H 984.181 2.60785 1.92774 0
M  V30 10288 H 983.966 3.86277 0.673248 0
M  V30 10289 H 985.456 3.83063 1.6629 0
M  V30 10290 N 985.893 0.34162 1.53853 0
M  V30 10291 C 987.309 -0.0103769 1.59597 0
M  V30 10292 C 987.509 -1.48897 1.35764 0
M  V30 10293 O 986.565 -2.24743 1.15095 0
M  V30 10294 C 987.878 0.424067 2.97695 0
M  V30 10295 C 989.426 0.376247 3.1073 0
M  V30 10296 C 989.901 0.786129 4.51203 0
M  V30 10297 N 991.392 0.74024 4.57247 0
M  V30 10298 C 992.127 1.02937 5.64085 0
M  V30 10299 N 991.623 1.38655 6.78783 0
M  V30 10300 N 993.416 0.953734 5.5395 0
M  V30 10301 H 985.567 1.30477 1.67599 0
M  V30 10302 H 987.83 0.531753 0.78482 0
M  V30 10303 H 987.536 1.45493 3.20195 0
M  V30 10304 H 987.41 -0.201713 3.7666 0
M  V30 10305 H 989.797 -0.645441 2.87955 0
M  V30 10306 H 989.878 1.0372 2.33828 0
M  V30 10307 H 989.522 1.80582 4.74713 0
M  V30 10308 H 989.452 0.102671 5.265 0
M  V30 10309 H 991.943 0.476763 3.7488 0
M  V30 10310 H 992.256 1.59206 7.56223 0
M  V30 10311 H 990.601 1.42498 6.80235 0
M  V30 10312 H 993.792 0.674044 4.63222 0
M  V30 10313 H 993.965 1.18241 6.37121 0
M  V30 10314 N 987.371 -1.57444 0.0701946 0
M  V30 10315 C 988.787 -1.57009 -0.286431 0
M  V30 10316 C 988.987 -1.07946 -1.70147 0
M  V30 10317 O 988.043 -0.744622 -2.41271 0
M  V30 10318 C 989.356 -3.00542 -0.0975466 0
M  V30 10319 C 990.904 -3.12553 -0.167205 0
M  V30 10320 C 991.379 -4.58 -0.00662047 0
M  V30 10321 N 992.87 -4.63158 -0.0622778 0
M  V30 10322 C 993.605 -5.73388 0.0375831 0
M  V30 10323 N 993.101 -6.92537 0.190873 0
M  V30 10324 N 994.894 -5.62097 -0.0193672 0
M  V30 10325 H 987.045 -1.87651 0.995023 0
M  V30 10326 H 989.308 -0.865006 0.387902 0
M  V30 10327 H 989.014 -3.40543 0.878822 0
M  V30 10328 H 988.888 -3.67485 -0.850547 0
M  V30 10329 H 991.275 -2.72439 -1.13406 0
M  V30 10330 H 991.356 -2.48251 0.616871 0
M  V30 10331 H 991 -4.98803 0.956992 0
M  V30 10332 H 990.93 -5.20332 -0.810081 0
M  V30 10333 H 993.421 -3.77475 -0.179229 0
M  V30 10334 H 993.734 -7.72365 0.25926 0
M  V30 10335 H 992.079 -6.94632 0.226214 0
M  V30 10336 H 995.27 -4.67897 -0.137815 0
M  V30 10337 H 995.443 -6.4797 0.0619121 0
M  V30 10338 N 988.849 0.203349 -1.56283 0
M  V30 10339 C 990.265 0.55384 -1.49682 0
M  V30 10340 C 990.465 1.86261 -0.768701 0
M  V30 10341 O 989.521 2.50517 -0.315824 0
M  V30 10342 C 990.834 0.616216 -2.94318 0
M  V30 10343 C 992.382 0.705611 -3.04943 0
M  V30 10344 C 992.857 0.79917 -4.50974 0
M  V30 10345 N 994.348 0.862916 -4.55091 0
M  V30 10346 C 995.083 0.955334 -5.65386 0
M  V30 10347 N 994.579 1.01057 -6.8539 0
M  V30 10348 N 996.372 0.991884 -5.53279 0
M  V30 10349 H 988.523 -0.655244 -2.0204 0
M  V30 10350 H 990.786 -0.232344 -0.919087 0
M  V30 10351 H 990.492 -0.27619 -3.50614 0
M  V30 10352 H 990.366 1.47371 -3.4722 0
M  V30 10353 H 992.753 1.58845 -2.48701 0
M  V30 10354 H 992.834 -0.177921 -2.5518 0
M  V30 10355 H 992.478 -0.0792841 -5.07838 0
M  V30 10356 H 992.408 1.69838 -4.9846 0
M  V30 10357 H 994.899 0.829812 -3.68677 0
M  V30 10358 H 995.212 1.08137 -7.65197 0
M  V30 10359 H 993.557 0.979384 -6.88065 0
M  V30 10360 H 996.748 0.945514 -4.58451 0
M  V30 10361 H 996.921 1.06045 -6.39264 0
M  V30 10362 N 990.327 1.50405 0.470755 0
M  V30 10363 C 991.567 1.63049 1.23266 0
M  V30 10364 C 991.931 0.323815 1.8925 0
M  V30 10365 O 993.132 0.325692 2.6682 0
M  V30 10366 C 991.403 2.7783 2.24823 0
M  V30 10367 S 992.962 3.10609 3.09948 0
M  V30 10368 H 989.78 0.574787 0.418499 0
M  V30 10369 H 992.382 1.8819 0.529619 0
M  V30 10370 H 991.086 3.71252 1.74929 0
M  V30 10371 H 990.617 2.54776 2.99755 0
M  V30 10372 H 992.632 2.5446 4.25987 0
M  V30 10373 N 991.805 -0.723954 1.39988 0
M  V30 10374 C 993.082 -1.4763 1.28316 0
M  V30 10375 C 993.462 -2.10852 -0.102302 0
M  V30 10376 O 992.81 -1.9948 -1.11445 0
M  V30 10377 C 993.02 -2.51878 2.41574 0
M  V30 10378 C 994.368 -3.17948 2.81415 0
M  V30 10379 O 995.392 -2.62195 2.41106 0
M  V30 10380 O 994.251 -4.18858 3.51027 0
M  V30 10381 H 991.345 -0.656092 0.50346 0
M  V30 10382 H 993.891 -0.75684 1.51888 0
M  V30 10383 H 992.663 -2.03618 3.34149 0
M  V30 10384 H 992.286 -3.3137 2.19727 0
M  V30 10385 N 993.283 -1.25346 -0.955304 0
M  V30 10386 C 994.213 -1.08152 -2.06943 0
M  V30 10387 C 995.194 0.00922598 -1.70097 0
M  V30 10388 O 996.379 -0.160181 -1.93538 0
M  V30 10389 C 993.509 -0.698745 -3.40198 0
M  V30 10390 C 992.463 -1.73965 -3.9105 0
M  V30 10391 C 991.789 -1.21158 -5.20792 0
M  V30 10392 C 993.089 -3.13829 -4.17503 0
M  V30 10393 H 994.783 -2.01345 -2.21586 0
M  V30 10394 H 992.329 -0.969459 -1.06478 0
M  V30 10395 H 994.282 -0.565394 -4.1759 0
M  V30 10396 H 993.006 0.268892 -3.25491 0
M  V30 10397 H 991.665 -1.86143 -3.15827 0
M  V30 10398 H 991.313 -0.234193 -5.02455 0
M  V30 10399 H 991.013 -1.90728 -5.55785 0
M  V30 10400 H 992.537 -1.09061 -6.00781 0
M  V30 10401 H 993.951 -3.04809 -4.85556 0
M  V30 10402 H 992.348 -3.80863 -4.63749 0
M  V30 10403 H 993.418 -3.6094 -3.23806 0
M  V30 10404 N 994.761 1.15782 -1.06922 0
M  V30 10405 C 995.724 2.18578 -0.689654 0
M  V30 10406 C 996.724 1.58553 0.267872 0
M  V30 10407 O 997.914 1.7413 0.0494097 0
M  V30 10408 C 995.046 3.40896 -0.0157919 0
M  V30 10409 H 996.239 2.53672 -1.59971 0
M  V30 10410 H 993.792 1.30168 -0.865214 0
M  V30 10411 H 994.527 3.11367 0.906712 0
M  V30 10412 H 994.312 3.85721 -0.704415 0
M  V30 10413 H 995.802 4.16937 0.235266 0
M  V30 10414 N 996.239 0.8527 1.3254 0
M  V30 10415 C 997.169 0.311234 2.31416 0
M  V30 10416 C 998.15 -0.588557 1.59593 0
M  V30 10417 O 999.335 -0.509211 1.87405 0
M  V30 10418 C 996.465 -0.502892 3.4364 0
M  V30 10419 C 995.419 0.302296 4.26931 0
M  V30 10420 C 994.745 -0.636445 5.30899 0
M  V30 10421 C 996.045 1.52697 4.99481 0
M  V30 10422 H 997.739 1.13742 2.76953 0
M  V30 10423 H 995.285 0.548389 1.33149 0
M  V30 10424 H 997.238 -0.892092 4.11849 0
M  V30 10425 H 995.962 -1.36242 2.96826 0
M  V30 10426 H 994.621 0.673226 3.60365 0
M  V30 10427 H 994.269 -1.49277 4.80339 0
M  V30 10428 H 993.969 -0.101716 5.87512 0
M  V30 10429 H 995.493 -1.02286 6.01972 0
M  V30 10430 H 996.907 1.21017 5.60382 0
M  V30 10431 H 995.304 1.9995 5.65809 0
M  V30 10432 H 996.374 2.28929 4.27457 0
M  V30 10433 N 997.718 -1.45297 0.610449 0
M  V30 10434 C 998.648 -2.33311 -0.0939698 0
M  V30 10435 C 999.629 -1.46999 -0.85588 0
M  V30 10436 O 1000.81 -1.75764 -0.825865 0
M  V30 10437 C 997.944 -3.29751 -1.09003 0
M  V30 10438 C 996.898 -4.2572 -0.441146 0
M  V30 10439 C 996.224 -5.11873 -1.54566 0
M  V30 10440 C 997.524 -5.1837 0.639489 0
M  V30 10441 H 999.218 -2.92459 0.640941 0
M  V30 10442 H 996.764 -1.40631 0.309675 0
M  V30 10443 H 998.717 -3.90195 -1.59141 0
M  V30 10444 H 997.441 -2.68768 -1.85557 0
M  V30 10445 H 996.1 -3.66579 0.0393908 0
M  V30 10446 H 995.748 -4.47256 -2.30155 0
M  V30 10447 H 995.448 -5.76886 -1.11698 0
M  V30 10448 H 996.972 -5.75185 -2.04925 0
M  V30 10449 H 998.386 -5.7287 0.22207 0
M  V30 10450 H 996.783 -5.91876 0.990089 0
M  V30 10451 H 997.853 -4.60627 1.51495 0
M  V30 10452 N 999.196 -0.349774 -1.5367 0
M  V30 10453 C 1000.44 0.244343 -2.00617 0
M  V30 10454 C 1000.76 1.50567 -1.23914 0
M  V30 10455 O 1000.03 1.92784 -0.348016 0
M  V30 10456 H 998.615 0.0932792 -0.741153 0
M  V30 10457 H 1001.28 -0.472367 -1.89089 0
M  V30 10458 H 1000.37 0.482433 -3.08349 0
M  V30 10459 N 1000.67 1.57404 -0.0785433 0
M  V30 10460 C 1001.91 1.95621 0.592595 0
M  V30 10461 C 1002.28 0.958429 1.66367 0
M  V30 10462 O 1003.48 1.2285 2.39084 0
M  V30 10463 C 1001.75 3.38445 1.14846 0
M  V30 10464 S 1003.31 3.98645 1.83378 0
M  V30 10465 H 1000.13 0.684063 0.193851 0
M  V30 10466 H 1002.73 1.94892 -0.154007 0
M  V30 10467 H 1001.43 4.08843 0.357179 0
M  V30 10468 H 1000.96 3.42733 1.93127 0
M  V30 10469 H 1002.98 3.86099 3.11676 0
M  V30 10470 N 1002.15 -0.195058 1.56388 0
M  V30 10471 C 1003.11 -1.2254 1.93692 0
M  V30 10472 C 1004.11 -1.38437 0.81804 0
M  V30 10473 O 1005.3 -1.36248 1.08545 0
M  V30 10474 C 1002.44 -2.59476 2.21099 0
M  V30 10475 H 1003.63 -0.906544 2.8587 0
M  V30 10476 H 1001.18 -0.436577 1.50079 0
M  V30 10477 H 1001.92 -2.96417 1.31558 0
M  V30 10478 H 1001.7 -2.4931 3.02634 0
M  V30 10479 H 1003.19 -3.33777 2.50964 0
M  V30 10480 N 1003.63 -1.50653 -0.462772 0
M  V30 10481 C 1004.86 -1.65826 -1.23731 0
M  V30 10482 C 1005.27 -0.345002 -1.85621 0
M  V30 10483 O 1004.63 0.673935 -1.69601 0
M  V30 10484 C 1004.68 -2.7555 -2.33997 0
M  V30 10485 O 1004.4 -4.01785 -1.74643 0
M  V30 10486 C 1005.9 -3.0177 -3.2473 0
M  V30 10487 H 1003.12 -0.557177 -0.373892 0
M  V30 10488 H 1005.67 -1.96925 -0.551434 0
M  V30 10489 H 1003.82 -2.47122 -2.98345 0
M  V30 10490 H 1004.24 -4.62529 -2.4732 0
M  V30 10491 H 1005.71 -3.82188 -3.98292 0
M  V30 10492 H 1006.19 -2.13167 -3.84001 0
M  V30 10493 H 1006.79 -3.31761 -2.66111 0
M  V30 10494 N 1005.11 0.71652 -1.4037 0
M  V30 10495 C 1006.04 1.84345 -1.43315 0
M  V30 10496 C 1007.02 1.67537 -0.294186 0
M  V30 10497 O 1008.2 1.87582 -0.502671 0
M  V30 10498 C 1005.33 3.2229 -1.29408 0
M  V30 10499 C 1004.29 3.53769 -2.40897 0
M  V30 10500 C 1003.61 4.90847 -2.12068 0
M  V30 10501 C 1004.91 3.54862 -3.83237 0
M  V30 10502 H 1006.61 1.82138 -2.37626 0
M  V30 10503 H 1004.15 0.874873 -1.14376 0
M  V30 10504 H 1006.11 4.00819 -1.30085 0
M  V30 10505 H 1004.83 3.2507 -0.31573 0
M  V30 10506 H 1003.49 2.77579 -2.39469 0
M  V30 10507 H 1003.14 4.90229 -1.12626 0
M  V30 10508 H 1002.84 5.12875 -2.86762 0
M  V30 10509 H 1004.36 5.71711 -2.14426 0
M  V30 10510 H 1005.78 4.23432 -3.86494 0
M  V30 10511 H 1004.17 3.88416 -4.57442 0
M  V30 10512 H 1005.24 2.54266 -4.12888 0
M  V30 10513 N 1006.59 1.25851 0.948643 0
M  V30 10514 C 1007.52 1.09248 2.06367 0
M  V30 10515 C 1008.5 -0.000205168 1.701 0
M  V30 10516 O 1009.68 0.170442 1.93451 0
M  V30 10517 C 1006.81 0.716777 3.39823 0
M  V30 10518 C 1005.77 1.76036 3.90122 0
M  V30 10519 C 1005.09 1.23918 5.20143 0
M  V30 10520 C 1006.39 3.16039 4.15833 0
M  V30 10521 H 1008.09 2.02518 2.20515 0
M  V30 10522 H 1005.63 0.975093 1.05962 0
M  V30 10523 H 1007.59 0.587531 4.17284 0
M  V30 10524 H 1006.31 -0.251626 3.25629 0
M  V30 10525 H 1004.97 1.87815 3.14835 0
M  V30 10526 H 1004.62 0.260836 5.02323 0
M  V30 10527 H 1004.32 1.93673 5.54765 0
M  V30 10528 H 1005.84 1.12245 6.00194 0
M  V30 10529 H 1007.25 3.0738 4.83933 0
M  V30 10530 H 1005.65 3.83317 4.61723 0
M  V30 10531 H 1006.72 3.62652 3.21887 0
M  V30 10532 N 1008.06 -1.15214 1.07534 0
M  V30 10533 C 1009.31 -1.85676 0.79805 0
M  V30 10534 C 1009.63 -1.82837 -0.677919 0
M  V30 10535 O 1008.9 -1.27059 -1.49107 0
M  V30 10536 H 1007.48 -0.687468 0.292227 0
M  V30 10537 H 1010.15 -1.39658 1.35947 0
M  V30 10538 H 1009.24 -2.9076 1.13423 0
M  V30 10539 N 1009.54 -0.859717 -1.32086 0
M  V30 10540 C 1010.51 -0.313005 -2.27053 0
M  V30 10541 C 1011.51 0.530191 -1.51808 0
M  V30 10542 O 1012.7 0.340972 -1.7083 0
M  V30 10543 C 1009.83 0.5566 -3.36325 0
M  V30 10544 H 1011.02 -1.15125 -2.76923 0
M  V30 10545 H 1008.57 -0.634463 -1.42843 0
M  V30 10546 H 1009.31 1.41645 -2.91731 0
M  V30 10547 H 1009.09 -0.0470197 -3.92072 0
M  V30 10548 H 1010.58 0.931725 -4.07073 0
M  V30 10549 N 1011.02 1.44971 -0.618145 0
M  V30 10550 C 1012.27 2.02458 -0.117656 0
M  V30 10551 C 1012.6 1.48413 1.25248 0
M  V30 10552 O 1011.87 0.662997 1.82851 0
M  V30 10553 C 1012.16 3.59987 -0.0901897 0
M  V30 10554 C 1012.01 4.24343 -1.49175 0
M  V30 10555 C 1013.33 4.36099 0.592121 0
M  V30 10556 H 1010.45 0.735672 -0.0442291 0
M  V30 10557 H 1013.09 1.727 -0.792138 0
M  V30 10558 H 1011.24 3.85471 0.484175 0
M  V30 10559 H 1012.91 4.10009 -2.114 0
M  V30 10560 H 1011.16 3.82337 -2.04941 0
M  V30 10561 H 1011.83 5.33298 -1.42468 0
M  V30 10562 H 1014.3 4.1597 0.103813 0
M  V30 10563 H 1013.18 5.45822 0.580481 0
M  V30 10564 H 1013.44 4.09746 1.66015 0
M  V30 10565 N 1012.5 0.357919 1.53482 0
M  V30 10566 C 1013.75 -0.2337 2.00744 0
M  V30 10567 C 1014.07 -1.49908 1.2471 0
M  V30 10568 O 1013.34 -1.92597 0.358235 0
M  V30 10569 H 1011.92 -0.0893474 0.741637 0
M  V30 10570 H 1014.58 0.482388 1.88836 0
M  V30 10571 H 1013.68 -0.466073 3.086 0
M  V30 10572 N 1013.98 -1.5736 0.0868897 0
M  V30 10573 C 1014.91 -2.16596 -0.872252 0
M  V30 10574 C 1015.89 -1.09706 -1.29995 0
M  V30 10575 O 1017.07 -1.37808 -1.36831 0
M  V30 10576 C 1014.2 -2.73972 -2.1344 0
M  V30 10577 C 1013.16 -3.86163 -1.8456 0
M  V30 10578 C 1012.48 -4.30206 -3.17533 0
M  V30 10579 C 1013.78 -5.0973 -1.13899 0
M  V30 10580 H 1015.48 -2.96995 -0.378738 0
M  V30 10581 H 1013.02 -1.42861 -0.18073 0
M  V30 10582 H 1014.98 -3.14062 -2.80968 0
M  V30 10583 H 1013.7 -1.90817 -2.6506 0
M  V30 10584 H 1012.36 -3.466 -1.19432 0
M  V30 10585 H 1012.01 -3.43951 -3.67024 0
M  V30 10586 H 1011.71 -5.05841 -2.98996 0
M  V30 10587 H 1013.23 -4.72922 -3.86234 0
M  V30 10588 H 1014.64 -5.4704 -1.71523 0
M  V30 10589 H 1013.04 -5.90741 -1.05569 0
M  V30 10590 H 1014.11 -4.8475 -0.120432 0
M  V30 10591 N 1015.45 0.186762 -1.56489 0
M  V30 10592 C 1016.7 0.904063 -1.80752 0
M  V30 10593 C 1017.02 1.83443 -0.661343 0
M  V30 10594 O 1016.29 1.93272 0.319811 0
M  V30 10595 H 1014.87 0.336828 -0.66675 0
M  V30 10596 H 1017.54 0.190275 -1.93969 0
M  V30 10597 H 1016.63 1.49021 -2.74225 0
M  V30 10598 N 1016.93 1.50896 0.454776 0
M  V30 10599 C 1017.9 1.70377 1.53312 0
M  V30 10600 C 1018.9 0.57408 1.50203 0
M  V30 10601 O 1020.09 0.841374 1.52534 0
M  V30 10602 C 1017.22 1.74411 2.92905 0
M  V30 10603 H 1018.41 2.66599 1.37349 0
M  V30 10604 H 1015.96 1.40622 0.68228 0
M  V30 10605 H 1016.7 0.799408 3.14293 0
M  V30 10606 H 1016.48 2.56496 2.96568 0
M  V30 10607 H 1017.97 1.91382 3.71164 0
M  V30 10608 N 1018.41 -0.709066 1.40748 0
M  V30 10609 C 1019.69 -1.4626 1.29874 0
M  V30 10610 C 1020.07 -2.10949 -0.0799322 0
M  V30 10611 O 1019.42 -2.00651 -1.09323 0
M  V30 10612 C 1019.63 -2.49302 2.44232 0
M  V30 10613 C 1020.97 -3.14945 2.84771 0
M  V30 10614 O 1022 -2.59623 2.43873 0
M  V30 10615 O 1020.86 -4.15111 3.5545 0
M  V30 10616 H 1017.95 -0.650716 0.51039 0
M  V30 10617 H 1020.5 -0.740687 1.52682 0
M  V30 10618 H 1019.27 -2.00063 3.36289 0
M  V30 10619 H 1018.89 -3.29021 2.23229 0
M  V30 10620 N 1019.89 -1.26353 -0.941956 0
M  V30 10621 C 1021.14 -1.12017 -1.69056 0
M  V30 10622 C 1021.47 0.335856 -1.91274 0
M  V30 10623 O 1020.74 1.24677 -1.49285 0
M  V30 10624 C 1021.03 -1.88889 -3.06583 0
M  V30 10625 C 1020.88 -3.42394 -2.91696 0
M  V30 10626 C 1022.2 -1.68209 -4.06686 0
M  V30 10627 H 1019.32 -0.408311 -0.613556 0
M  V30 10628 H 1021.96 -1.55339 -1.09407 0
M  V30 10629 H 1020.11 -1.5207 -3.57501 0
M  V30 10630 H 1021.78 -3.88962 -2.48005 0
M  V30 10631 H 1020.02 -3.69459 -2.27338 0
M  V30 10632 H 1020.7 -3.91408 -3.89235 0
M  V30 10633 H 1023.17 -2.00286 -3.64726 0
M  V30 10634 H 1022.05 -2.24412 -5.00929 0
M  V30 10635 H 1022.31 -0.626474 -4.37639 0
M  V30 10636 N 1021.37 1.14642 -1.08144 0
M  V30 10637 C 1022.33 2.17834 -0.712799 0
M  V30 10638 C 1023.33 1.58828 0.251041 0
M  V30 10639 O 1024.52 1.74173 0.0309381 0
M  V30 10640 C 1021.65 3.4086 -0.0519477 0
M  V30 10641 H 1022.85 2.51961 -1.62653 0
M  V30 10642 H 1020.4 1.29243 -0.878971 0
M  V30 10643 H 1021.13 3.12311 0.873636 0
M  V30 10644 H 1020.92 3.84952 -0.745286 0
M  V30 10645 H 1022.41 4.17163 0.191031 0
M  V30 10646 N 1022.85 0.866709 1.31628 0
M  V30 10647 C 1023.76 0.323408 2.3236 0
M  V30 10648 C 1024.77 -0.564995 1.64572 0
M  V30 10649 O 1025.95 -0.462489 1.96018 0
M  V30 10650 C 1023.01 -0.469045 3.43513 0
M  V30 10651 C 1022.07 0.446928 4.26967 0
M  V30 10652 C 1021.31 -0.307799 5.32812 0
M  V30 10653 O 1021.53 -1.5363 5.49321 0
M  V30 10654 O 1020.46 0.332653 6.0098 0
M  V30 10655 H 1024.29 1.15827 2.80745 0
M  V30 10656 H 1021.87 0.629987 1.35468 0
M  V30 10657 H 1023.76 -0.918405 4.1127 0
M  V30 10658 H 1022.43 -1.28051 2.97296 0
M  V30 10659 H 1021.34 0.944719 3.61975 0
M  V30 10660 H 1022.67 1.2239 4.76741 0
M  V30 10661 N 1024.32 -1.44642 0.625825 0
M  V30 10662 C 1025.29 -2.29085 -0.072526 0
M  V30 10663 C 1026.29 -1.40755 -0.777467 0
M  V30 10664 O 1027.48 -1.62684 -0.622861 0
M  V30 10665 C 1024.61 -3.22212 -1.1132 0
M  V30 10666 H 1025.8 -2.92317 0.670124 0
M  V30 10667 H 1023.35 -1.51466 0.38571 0
M  V30 10668 H 1024.09 -2.63819 -1.88601 0
M  V30 10669 H 1023.87 -3.87299 -0.611709 0
M  V30 10670 H 1025.36 -3.8566 -1.60175 0
M  V30 10671 N 1025.8 -0.366053 -1.5329 0
M  V30 10672 C 1027.22 -0.0150149 -1.59593 0
M  V30 10673 C 1027.42 1.46719 -1.38116 0
M  V30 10674 O 1026.47 2.22884 -1.18656 0
M  V30 10675 C 1027.79 -0.471374 -2.96982 0
M  V30 10676 C 1029.33 -0.425634 -3.10092 0
M  V30 10677 C 1029.81 -0.857812 -4.49895 0
M  V30 10678 N 1031.3 -0.81289 -4.56011 0
M  V30 10679 C 1032.04 -1.11898 -5.62376 0
M  V30 10680 N 1031.53 -1.49436 -6.76491 0
M  V30 10681 N 1033.32 -1.04174 -5.52362 0
M  V30 10682 H 1025.48 -1.33127 -1.65502 0
M  V30 10683 H 1027.74 -0.544172 -0.776261 0
M  V30 10684 H 1027.44 -1.50569 -3.1784 0
M  V30 10685 H 1027.32 0.141764 -3.76934 0
M  V30 10686 H 1029.71 0.599548 -2.88945 0
M  V30 10687 H 1029.79 -1.07427 -2.32149 0
M  V30 10688 H 1029.43 -1.88111 -4.7178 0
M  V30 10689 H 1029.36 -0.186419 -5.2627 0
M  V30 10690 H 1031.85 -0.536343 -3.74075 0
M  V30 10691 H 1032.16 -1.71217 -7.53594 0
M  V30 10692 H 1030.51 -1.53302 -6.77882 0
M  V30 10693 H 1033.7 -0.747654 -4.62091 0
M  V30 10694 H 1033.87 -1.28362 -6.35159 0
M  V30 10695 N 1027.28 1.57312 -0.0952337 0
M  V30 10696 C 1028.24 2.12889 0.849161 0
M  V30 10697 C 1029.24 1.05819 1.21075 0
M  V30 10698 O 1030.43 1.31704 1.14016 0
M  V30 10699 C 1027.56 2.6496 2.14498 0
M  V30 10700 H 1028.76 2.97651 0.366566 0
M  V30 10701 H 1026.31 1.55542 0.153762 0
M  V30 10702 H 1027.05 1.83718 2.67242 0
M  V30 10703 H 1026.83 3.43244 1.89542 0
M  V30 10704 H 1028.32 3.07952 2.82056 0
M  V30 10705 N 1028.76 -0.17846 1.56586 0
M  V30 10706 C 1029.72 -1.20479 1.94981 0
M  V30 10707 C 1030.72 -1.37561 0.832677 0
M  V30 10708 O 1031.91 -1.35089 1.09984 0
M  V30 10709 C 1029.04 -2.57117 2.23839 0
M  V30 10710 H 1030.24 -0.876173 2.86816 0
M  V30 10711 H 1027.79 -0.420635 1.50534 0
M  V30 10712 H 1028.52 -2.95005 1.34695 0
M  V30 10713 H 1028.31 -2.46086 3.05261 0
M  V30 10714 H 1029.8 -3.31096 2.5449 0
M  V30 10715 N 1030.24 -1.51135 -0.446768 0
M  V30 10716 C 1031.51 -1.5387 -1.20762 0
M  V30 10717 C 1031.89 -0.297446 -2.08994 0
M  V30 10718 O 1031.24 0.717975 -2.16927 0
M  V30 10719 C 1031.45 -2.84767 -2.01764 0
M  V30 10720 C 1032.8 -3.3636 -2.59128 0
M  V30 10721 O 1033.82 -2.86254 -2.11984 0
M  V30 10722 O 1032.68 -4.23765 -3.45088 0
M  V30 10723 H 1029.78 -0.618228 -0.549293 0
M  V30 10724 H 1032.32 -1.63442 -0.456605 0
M  V30 10725 H 1031.09 -3.6657 -1.36901 0
M  V30 10726 H 1030.72 -2.78313 -2.8395 0
M  V30 10727 N 1031.71 0.701592 -1.41122 0
M  V30 10728 C 1032.96 1.45871 -1.39879 0
M  V30 10729 C 1033.28 1.94999 -0.00668769 0
M  V30 10730 O 1032.55 1.71298 0.95047 0
M  V30 10731 H 1031.13 0.541231 -0.514857 0
M  V30 10732 H 1033.79 0.830803 -1.76306 0
M  V30 10733 H 1032.89 2.32479 -2.0823 0
M  V30 10734 N 1033.19 1.2685 0.935242 0
M  V30 10735 C 1034.1 1.10716 2.06831 0
M  V30 10736 C 1035.12 0.0391222 1.73956 0
M  V30 10737 O 1036.29 0.244071 1.99916 0
M  V30 10738 C 1033.36 0.748093 3.38533 0
M  V30 10739 C 1032.42 1.89619 3.85153 0
M  V30 10740 C 1031.65 1.55416 5.1057 0
M  V30 10741 O 1031.88 0.458596 5.68553 0
M  V30 10742 O 1030.81 2.39087 5.52378 0
M  V30 10743 H 1034.64 2.05785 2.23352 0
M  V30 10744 H 1032.22 1.05967 1.05315 0
M  V30 10745 H 1034.1 0.560841 4.17651 0
M  V30 10746 H 1032.78 -0.173142 3.23237 0
M  V30 10747 H 1031.68 2.13845 3.06954 0
M  V30 10748 H 1033.02 2.79737 4.04979 0
M  V30 10749 N 1034.67 -1.14067 1.0875 0
M  V30 10750 C 1035.58 -2.22871 0.732498 0
M  V30 10751 C 1036.6 -1.72008 -0.26253 0
M  V30 10752 O 1037.77 -2.01123 -0.105601 0
M  V30 10753 C 1034.84 -3.46371 0.150913 0
M  V30 10754 C 1033.9 -4.12158 1.201 0
M  V30 10755 C 1033.13 -5.29763 0.647075 0
M  V30 10756 O 1033.35 -5.67911 -0.532307 0
M  V30 10757 O 1032.29 -5.8542 1.3988 0
M  V30 10758 H 1036.11 -2.55596 1.64025 0
M  V30 10759 H 1033.7 -1.22065 0.861417 0
M  V30 10760 H 1035.58 -4.21055 -0.170442 0
M  V30 10761 H 1034.26 -3.15362 -0.729948 0
M  V30 10762 H 1033.16 -3.39332 1.57494 0
M  V30 10763 H 1034.5 -4.47282 2.05426 0
M  V30 10764 N 1036.15 -0.873678 -1.31166 0
M  V30 10765 C 1037.08 -0.289389 -2.27366 0
M  V30 10766 C 1038.09 0.549667 -1.5324 0
M  V30 10767 O 1039.28 0.371056 -1.74601 0
M  V30 10768 C 1036.38 0.60807 -3.334 0
M  V30 10769 C 1035.56 -0.199379 -4.36945 0
M  V30 10770 C 1034.61 0.626798 -5.22454 0
M  V30 10771 O 1033.64 0.0535121 -5.69175 0
M  V30 10772 N 1034.84 1.93809 -5.47191 0
M  V30 10773 H 1037.61 -1.1161 -2.78143 0
M  V30 10774 H 1035.17 -0.735529 -1.44228 0
M  V30 10775 H 1037.16 1.16656 -3.87522 0
M  V30 10776 H 1035.73 1.33545 -2.82638 0
M  V30 10777 H 1034.95 -0.939316 -3.82845 0
M  V30 10778 H 1036.24 -0.75329 -5.03193 0
M  V30 10779 H 1035.64 2.42693 -5.10995 0
M  V30 10780 H 1034.19 2.44428 -6.04234 0
M  V30 10781 N 1037.63 1.44308 -0.633487 0
M  V30 10782 C 1039.04 1.56768 -0.29931 0
M  V30 10783 C 1039.24 1.62061 1.19743 0
M  V30 10784 O 1038.3 1.56492 1.98158 0
M  V30 10785 C 1039.61 2.8382 -0.993307 0
M  V30 10786 C 1041.16 2.97536 -0.971674 0
M  V30 10787 C 1041.63 4.27393 -1.64618 0
M  V30 10788 N 1043.13 4.34212 -1.61288 0
M  V30 10789 C 1043.86 5.33415 -2.1037 0
M  V30 10790 N 1043.36 6.3901 -2.67653 0
M  V30 10791 N 1045.15 5.24939 -2.00985 0
M  V30 10792 H 1037.3 1.39115 -1.60501 0
M  V30 10793 H 1039.56 0.666804 -0.673852 0
M  V30 10794 H 1039.27 2.85902 -2.04823 0
M  V30 10795 H 1039.14 3.73422 -0.532537 0
M  V30 10796 H 1041.53 2.95005 0.0747854 0
M  V30 10797 H 1041.61 2.09276 -1.47096 0
M  V30 10798 H 1041.26 4.30683 -2.6921 0
M  V30 10799 H 1041.19 5.14515 -1.12171 0
M  V30 10800 H 1043.68 3.58519 -1.19468 0
M  V30 10801 H 1043.99 7.10994 -3.02831 0
M  V30 10802 H 1042.33 6.39689 -2.71705 0
M  V30 10803 H 1045.53 4.41357 -1.55953 0
M  V30 10804 H 1045.7 6.02097 -2.39547 0
M  V30 10805 N 1039.1 0.374177 1.53094 0
M  V30 10806 C 1040.52 0.0234783 1.59583 0
M  V30 10807 C 1040.72 -1.45984 1.38892 0
M  V30 10808 O 1039.78 -2.22251 1.19836 0
M  V30 10809 C 1041.09 0.487117 2.96728 0
M  V30 10810 C 1042.64 0.442073 3.09862 0
M  V30 10811 C 1043.11 0.881659 4.49434 0
M  V30 10812 N 1044.6 0.837062 4.55574 0
M  V30 10813 C 1045.34 1.14878 5.61774 0
M  V30 10814 N 1044.83 1.53022 6.75689 0
M  V30 10815 N 1046.63 1.07102 5.51802 0
M  V30 10816 H 1038.78 1.34003 1.64794 0
M  V30 10817 H 1041.04 0.548281 0.773364 0
M  V30 10818 H 1040.75 1.52252 3.17037 0
M  V30 10819 H 1040.62 -0.121772 3.77003 0
M  V30 10820 H 1043.01 -0.584216 2.89259 0
M  V30 10821 H 1043.09 1.08657 2.31576 0
M  V30 10822 H 1042.73 1.90611 4.70776 0
M  V30 10823 H 1042.66 0.214326 5.26164 0
M  V30 10824 H 1045.15 0.556173 3.73785 0
M  V30 10825 H 1045.47 1.75211 7.52676 0
M  V30 10826 H 1043.81 1.56895 6.77059 0
M  V30 10827 H 1047 0.772149 4.61688 0
M  V30 10828 H 1047.18 1.31728 6.3447 0
M  V30 10829 N 1040.58 -1.57259 0.103575 0
M  V30 10830 C 1041.83 -1.95744 -0.552781 0
M  V30 10831 C 1042.18 -0.985175 -1.65264 0
M  V30 10832 O 1041.48 -0.0125763 -1.91596 0
M  V30 10833 C 1041.67 -3.38549 -1.14538 0
M  V30 10834 C 1041.5 -4.49579 -0.104467 0
M  V30 10835 C 1040.27 -5.04273 0.321999 0
M  V30 10836 C 1042.47 -5.09909 0.670622 0
M  V30 10837 N 1040.45 -5.98866 1.3503 0
M  V30 10838 C 1041.82 -6.00299 1.55052 0
M  V30 10839 C 1043.88 -4.9262 0.723209 0
M  V30 10840 C 1042.58 -6.75254 2.4784 0
M  V30 10841 C 1044.6 -5.68243 1.63873 0
M  V30 10842 C 1043.97 -6.58306 2.50624 0
M  V30 10843 H 1040.07 -0.762769 -0.172359 0
M  V30 10844 H 1042.65 -1.93789 0.188113 0
M  V30 10845 H 1040.82 -3.41182 -1.85606 0
M  V30 10846 H 1042.55 -3.64194 -1.7648 0
M  V30 10847 H 1039.31 -4.73552 -0.0674026 0
M  V30 10848 H 1039.73 -6.50865 1.86291 0
M  V30 10849 H 1044.37 -4.22747 0.0666625 0
M  V30 10850 H 1042.09 -7.44383 3.14516 0
M  V30 10851 H 1045.68 -5.56876 1.68466 0
M  V30 10852 H 1044.56 -7.15799 3.20315 0
M  V30 10853 N 1042.06 0.170153 -1.56679 0
M  V30 10854 C 1042.99 1.21285 -1.9953 0
M  V30 10855 C 1043.97 1.46104 -0.871071 0
M  V30 10856 O 1045.16 1.57419 -1.13724 0
M  V30 10857 C 1042.29 2.5515 -2.35618 0
M  V30 10858 C 1041.24 2.44898 -3.51011 0
M  V30 10859 C 1040.57 3.83263 -3.72845 0
M  V30 10860 C 1041.87 1.95271 -4.84424 0
M  V30 10861 H 1043.56 0.856646 -2.86883 0
M  V30 10862 H 1041.11 0.410634 -1.38021 0
M  V30 10863 H 1043.06 3.28299 -2.64193 0
M  V30 10864 H 1041.78 2.92561 -1.45175 0
M  V30 10865 H 1040.44 1.74203 -3.22566 0
M  V30 10866 H 1040.09 4.18069 -2.79691 0
M  V30 10867 H 1039.79 3.77272 -4.50488 0
M  V30 10868 H 1041.31 4.57996 -4.03822 0
M  V30 10869 H 1042.73 2.58195 -5.11867 0
M  V30 10870 H 1041.13 2.00225 -5.65712 0
M  V30 10871 H 1042.2 0.90709 -4.7634 0
M  V30 10872 N 1043.54 1.5137 0.438746 0
M  V30 10873 C 1044.82 1.54508 1.19944 0
M  V30 10874 C 1045.2 0.308525 2.08833 0
M  V30 10875 O 1044.54 -0.706461 2.17305 0
M  V30 10876 C 1044.75 2.85833 2.00251 0
M  V30 10877 C 1046.1 3.37729 2.5734 0
M  V30 10878 O 1047.13 2.87374 2.10463 0
M  V30 10879 O 1045.98 4.25589 3.42836 0
M  V30 10880 H 1043.08 0.621132 0.546007 0
M  V30 10881 H 1045.62 1.63682 0.447931 0
M  V30 10882 H 1044.4 3.67291 1.34955 0
M  V30 10883 H 1044.02 2.79815 2.8247 0
M  V30 10884 N 1045.02 -0.694098 1.41492 0
M  V30 10885 C 1046.26 -1.45127 1.4065 0
M  V30 10886 C 1046.59 -1.94993 0.0170289 0
M  V30 10887 O 1045.86 -1.71799 -0.941372 0
M  V30 10888 H 1044.44 -0.538493 0.51772 0
M  V30 10889 H 1047.1 -0.821441 1.76744 0
M  V30 10890 H 1046.19 -2.31372 2.0946 0
M  V30 10891 N 1046.49 -1.27344 -0.928501 0
M  V30 10892 C 1047.42 -1.12517 -2.04602 0
M  V30 10893 C 1048.41 -0.0268563 -1.70079 0
M  V30 10894 O 1049.59 -0.201197 -1.93155 0
M  V30 10895 C 1046.72 -0.770749 -3.3864 0
M  V30 10896 C 1045.67 -1.8222 -3.87272 0
M  V30 10897 C 1045 -1.32178 -5.18105 0
M  V30 10898 C 1046.3 -3.22614 -4.10752 0
M  V30 10899 H 1047.99 -2.06 -2.17265 0
M  V30 10900 H 1045.54 -0.991827 -1.04397 0
M  V30 10901 H 1047.49 -0.653843 -4.16297 0
M  V30 10902 H 1046.22 0.19979 -3.25988 0
M  V30 10903 H 1044.88 -1.928 -3.11807 0
M  V30 10904 H 1044.52 -0.340719 -5.01845 0
M  V30 10905 H 1044.22 -2.02474 -5.51614 0
M  V30 10906 H 1045.75 -1.2178 -5.98333 0
M  V30 10907 H 1047.16 -3.1504 -4.78981 0
M  V30 10908 H 1045.56 -3.90614 -4.55566 0
M  V30 10909 H 1046.63 -3.67727 -3.16077 0
M  V30 10910 N 1047.97 1.13488 -1.09353 0
M  V30 10911 C 1049.22 1.84748 -0.829126 0
M  V30 10912 C 1049.55 1.83485 0.645247 0
M  V30 10913 O 1048.8 1.26767 1.49093 0
M  V30 10914 C 1049.1 3.32584 -1.30854 0
M  V30 10915 C 1048.77 3.54028 -2.7924 0
M  V30 10916 C 1047.43 3.59588 -3.19765 0
M  V30 10917 C 1049.78 3.62058 -3.74918 0
M  V30 10918 C 1047.11 3.70712 -4.54741 0
M  V30 10919 C 1049.46 3.7471 -5.09682 0
M  V30 10920 C 1048.13 3.78523 -5.49797 0
M  V30 10921 H 1047.4 0.67604 -0.303399 0
M  V30 10922 H 1050.04 1.33989 -1.36818 0
M  V30 10923 H 1048.35 3.85689 -0.689275 0
M  V30 10924 H 1050.04 3.86166 -1.08059 0
M  V30 10925 H 1046.63 3.50354 -2.4688 0
M  V30 10926 H 1050.82 3.57043 -3.44723 0
M  V30 10927 H 1046.07 3.71931 -4.8526 0
M  V30 10928 H 1050.25 3.79866 -5.83674 0
M  V30 10929 H 1047.88 3.86895 -6.54382 0
M  V30 10930 N 1049.45 0.880621 1.30701 0
M  V30 10931 C 1050.7 0.496875 1.96309 0
M  V30 10932 C 1051.03 -0.953064 1.69549 0
M  V30 10933 O 1050.28 -1.68782 0.990507 0
M  V30 10934 C 1050.58 0.713203 3.50212 0
M  V30 10935 C 1050.25 2.13756 3.97013 0
M  V30 10936 C 1048.91 2.52706 4.09503 0
M  V30 10937 C 1051.26 3.066 4.21481 0
M  V30 10938 C 1048.59 3.8372 4.43819 0
M  V30 10939 C 1050.94 4.3714 4.57265 0
M  V30 10940 C 1049.6 4.7599 4.67963 0
M  V30 10941 H 1048.87 0.18182 0.718347 0
M  V30 10942 H 1051.52 1.11564 1.55646 0
M  V30 10943 H 1049.83 0.0113694 3.91798 0
M  V30 10944 H 1051.52 0.39595 3.9904 0
M  V30 10945 H 1048.11 1.8252 3.87794 0
M  V30 10946 H 1052.3 2.77729 4.11315 0
M  V30 10947 H 1047.55 4.13568 4.50301 0
M  V30 10948 H 1051.73 5.09123 4.75149 0
M  V30 10949 H 1049.35 5.77549 4.94309 0
M  V30 10950 N 1050.93 -1.4397 0.641131 0
M  V30 10951 C 1052.34 -1.85267 0.230838 0
M  V30 10952 C 1052.69 -1.53659 -1.21998 0
M  V30 10953 O 1051.82 -0.979572 -1.92959 0
M  V30 10954 C 1052.41 -3.36284 0.412171 0
M  V30 10955 C 1050.97 -3.76358 0.0563004 0
M  V30 10956 C 1050.12 -2.67768 0.720809 0
M  V30 10957 H 1053.07 -1.34294 0.845624 0
M  V30 10958 H 1053.09 -3.78924 -0.345936 0
M  V30 10959 H 1052.6 -3.59258 1.46818 0
M  V30 10960 H 1050.7 -3.58997 -0.997582 0
M  V30 10961 H 1050.82 -4.76756 0.473335 0
M  V30 10962 H 1049.18 -2.54227 0.155164 0
M  V30 10963 H 1049.96 -2.93573 1.77961 0
M  V30 10964 N 1052.41 -0.382291 -1.52893 0
M  V30 10965 C 1053.82 -0.031941 -1.59568 0
M  V30 10966 C 1054.02 1.45245 -1.39664 0
M  V30 10967 O 1053.08 2.21612 -1.21013 0
M  V30 10968 C 1054.39 -0.502846 -2.96466 0
M  V30 10969 C 1055.94 -0.4585 -3.09624 0
M  V30 10970 C 1056.42 -0.905481 -4.4896 0
M  V30 10971 N 1057.91 -0.861211 -4.55124 0
M  V30 10972 C 1058.64 -1.17856 -5.61157 0
M  V30 10973 N 1058.14 -1.56603 -6.74868 0
M  V30 10974 N 1059.93 -1.10027 -5.51226 0
M  V30 10975 H 1052.08 -1.34875 -1.64081 0
M  V30 10976 H 1054.34 -0.552375 -0.770446 0
M  V30 10977 H 1054.05 -1.53931 -3.16225 0
M  V30 10978 H 1053.92 0.101777 -3.77063 0
M  V30 10979 H 1056.31 0.568868 -2.89565 0
M  V30 10980 H 1056.39 -1.09884 -2.30996 0
M  V30 10981 H 1056.04 -1.93105 -4.69759 0
M  V30 10982 H 1055.97 -0.242227 -5.26043 0
M  V30 10983 H 1058.46 -0.575988 -3.73485 0
M  V30 10984 H 1058.77 -1.792 -7.51736 0
M  V30 10985 H 1057.12 -1.60484 -6.76217 0
M  V30 10986 H 1060.31 -0.796623 -4.61272 0
M  V30 10987 H 1060.48 -1.35091 -6.33762 0
M  V30 10988 N 1053.89 1.57202 -0.111913 0
M  V30 10989 C 1054.85 2.13778 0.826534 0
M  V30 10990 C 1055.85 1.07097 1.19945 0
M  V30 10991 O 1057.04 1.32906 1.12613 0
M  V30 10992 C 1054.17 2.6722 2.11675 0
M  V30 10993 H 1055.36 2.98023 0.334975 0
M  V30 10994 H 1052.92 1.55696 0.137256 0
M  V30 10995 H 1053.65 1.86542 2.65278 0
M  V30 10996 H 1053.44 3.45235 1.8589 0
M  V30 10997 H 1054.93 3.10926 2.78774 0
M  V30 10998 N 1055.36 -0.161842 1.56767 0
M  V30 10999 C 1056.61 -0.875192 1.82167 0
M  V30 11000 C 1056.93 -1.82367 0.690444 0
M  V30 11001 O 1056.2 -1.93756 -0.289023 0
M  V30 11002 H 1054.78 -0.326178 0.672024 0
M  V30 11003 H 1057.44 -0.159392 1.94247 0
M  V30 11004 H 1056.54 -1.44639 2.76561 0
M  V30 11005 N 1056.84 -1.516 -0.430713 0
M  V30 11006 C 1058.26 -1.39923 -0.767706 0
M  V30 11007 C 1058.46 -0.486756 -1.95532 0
M  V30 11008 O 1057.51 0.0555965 -2.52439 0
M  V30 11009 C 1058.83 -2.82074 -1.04187 0
M  V30 11010 C 1060.37 -2.9127 -1.1459 0
M  V30 11011 C 1060.85 -4.34342 -1.45295 0
M  V30 11012 N 1062.34 -4.37479 -1.52206 0
M  V30 11013 C 1063.08 -5.45219 -1.77549 0
M  V30 11014 N 1062.57 -6.6311 -2.0064 0
M  V30 11015 N 1064.36 -5.32707 -1.79386 0
M  V30 11016 H 1056.52 -2.09474 0.351351 0
M  V30 11017 H 1058.78 -0.943247 0.0948151 0
M  V30 11018 H 1058.48 -3.50868 -0.241837 0
M  V30 11019 H 1058.36 -3.21805 -1.96777 0
M  V30 11020 H 1060.75 -2.2267 -1.93655 0
M  V30 11021 H 1060.83 -2.55026 -0.198854 0
M  V30 11022 H 1060.47 -5.03494 -0.667559 0
M  V30 11023 H 1060.4 -4.68105 -2.41217 0
M  V30 11024 H 1062.89 -3.52488 -1.36237 0
M  V30 11025 H 1063.2 -7.41012 -2.19366 0
M  V30 11026 H 1061.55 -6.66214 -1.97948 0
M  V30 11027 H 1064.74 -4.39589 -1.60869 0
M  V30 11028 H 1064.91 -6.16752 -1.98799 0
M  V30 11029 N 1058.32 0.686584 -1.41858 0
M  V30 11030 C 1059.57 1.44665 -1.41698 0
M  V30 11031 C 1059.89 1.94478 -0.0292442 0
M  V30 11032 O 1059.15 1.70512 0.960421 0
M  V30 11033 C 1059.45 2.66793 -2.37816 0
M  V30 11034 C 1059.11 2.35587 -3.8446 0
M  V30 11035 C 1057.78 2.26788 -4.24406 0
M  V30 11036 C 1060.13 2.10028 -4.77009 0
M  V30 11037 C 1057.46 1.90538 -5.54898 0
M  V30 11038 C 1059.81 1.75285 -6.07831 0
M  V30 11039 C 1058.47 1.64987 -6.46789 0
M  V30 11040 H 1057.74 0.529367 -0.518509 0
M  V30 11041 H 1060.39 0.783938 -1.74719 0
M  V30 11042 H 1058.69 3.38041 -1.9808 0
M  V30 11043 H 1060.39 3.24953 -2.34961 0
M  V30 11044 H 1056.98 2.43334 -3.52826 0
M  V30 11045 H 1061.17 2.15766 -4.46944 0
M  V30 11046 H 1056.42 1.81125 -5.83955 0
M  V30 11047 H 1060.6 1.5453 -6.79039 0
M  V30 11048 H 1058.22 1.36667 -7.47814 0
M  V30 11049 N 1059.8 1.27835 0.921735 0
M  V30 11050 C 1061.21 1.13151 1.48505 0
M  V30 11051 C 1061.56 -0.281373 1.94172 0
M  V30 11052 O 1060.68 -1.17487 1.8173 0
M  V30 11053 C 1061.28 2.04792 2.69899 0
M  V30 11054 C 1059.84 1.94196 3.22436 0
M  V30 11055 C 1058.99 1.96999 1.95158 0
M  V30 11056 H 1061.94 1.40641 0.735241 0
M  V30 11057 H 1061.96 1.60724 3.44889 0
M  V30 11058 H 1061.47 3.07615 2.36631 0
M  V30 11059 H 1059.57 0.943805 3.60448 0
M  V30 11060 H 1059.68 2.80744 3.88226 0
M  V30 11061 H 1058.05 1.41301 2.11911 0
M  V30 11062 H 1058.83 3.01487 1.64196 0
M  V30 11063 N 1061.28 -1.12907 1.09954 0
M  V30 11064 C 1062.69 -1.363 0.830326 0
M  V30 11065 C 1062.89 -1.93772 -0.552694 0
M  V30 11066 O 1061.95 -2.1607 -1.30652 0
M  V30 11067 C 1063.26 -2.30925 1.92598 0
M  V30 11068 C 1064.81 -2.44528 1.95385 0
M  V30 11069 C 1065.28 -3.42464 3.0411 0
M  V30 11070 N 1066.77 -3.50018 3.03384 0
M  V30 11071 C 1067.51 -4.25693 3.84152 0
M  V30 11072 N 1067.01 -5.04476 4.74843 0
M  V30 11073 N 1068.8 -4.21049 3.7239 0
M  V30 11074 H 1060.95 -0.739571 1.99108 0
M  V30 11075 H 1063.21 -0.387983 0.86497 0
M  V30 11076 H 1062.92 -1.95861 2.92115 0
M  V30 11077 H 1062.79 -3.30997 1.80889 0
M  V30 11078 H 1065.18 -2.78875 0.965037 0
M  V30 11079 H 1065.26 -1.44361 2.11172 0
M  V30 11080 H 1064.9 -3.08847 4.03207 0
M  V30 11081 H 1064.83 -4.42448 2.85565 0
M  V30 11082 H 1067.33 -2.93809 2.37665 0
M  V30 11083 H 1067.64 -5.59541 5.33042 0
M  V30 11084 H 1065.98 -5.0369 4.78875 0
M  V30 11085 H 1069.17 -3.5858 3.00895 0
M  V30 11086 H 1069.35 -4.79771 4.35572 0
M  V30 11087 N 1062.75 -0.88754 -1.30232 0
M  V30 11088 C 1064 -0.506277 -1.95656 0
M  V30 11089 C 1064.32 0.948191 -1.70395 0
M  V30 11090 O 1063.59 1.66701 -1.02895 0
M  V30 11091 H 1062.17 -0.184235 -0.723924 0
M  V30 11092 H 1064.83 -1.13118 -1.58715 0
M  V30 11093 H 1063.93 -0.678673 -3.04632 0
M  V30 11094 N 1064.23 1.43628 -0.648757 0
M  V30 11095 C 1065.16 2.33478 0.0320785 0
M  V30 11096 C 1066.14 1.49217 0.816605 0
M  V30 11097 O 1067.33 1.77892 0.778974 0
M  V30 11098 C 1064.46 3.32525 1.00222 0
M  V30 11099 C 1063.41 4.2674 0.328119 0
M  V30 11100 C 1062.74 5.15791 1.4094 0
M  V30 11101 C 1064.04 5.16493 -0.776701 0
M  V30 11102 H 1065.73 2.90657 -0.718257 0
M  V30 11103 H 1063.28 1.3976 -0.346852 0
M  V30 11104 H 1065.23 3.94277 1.4874 0
M  V30 11105 H 1063.96 2.73593 1.78366 0
M  V30 11106 H 1062.61 3.66346 -0.136569 0
M  V30 11107 H 1062.26 4.53201 2.18216 0
M  V30 11108 H 1061.96 5.79645 0.963631 0
M  V30 11109 H 1063.49 5.80416 1.89603 0
M  V30 11110 H 1064.9 5.7208 -0.373878 0
M  V30 11111 H 1063.3 5.89043 -1.14667 0
M  V30 11112 H 1064.37 4.56448 -1.63654 0
M  V30 11113 N 1065.71 0.390394 1.52688 0
M  V30 11114 C 1066.94 -0.194013 2.06491 0
M  V30 11115 C 1067.36 -1.3965 1.26014 0
M  V30 11116 O 1066.72 -1.79038 0.285468 0
M  V30 11117 C 1066.77 -0.541306 3.56514 0
M  V30 11118 O 1065.87 -1.63509 3.78601 0
M  V30 11119 H 1065.21 -0.0223608 0.663623 0
M  V30 11120 H 1067.74 0.558179 1.96839 0
M  V30 11121 H 1067.75 -0.805301 3.99974 0
M  V30 11122 H 1066.43 0.337828 4.14526 0
M  V30 11123 H 1065 -1.36473 3.4703 0
M  V30 11124 N 1067.19 -1.57141 0.120249 0
M  V30 11125 C 1068.6 -1.82256 -0.404931 0
M  V30 11126 C 1068.95 -1.03748 -1.66526 0
M  V30 11127 O 1068.08 -0.274456 -2.14653 0
M  V30 11128 C 1068.67 -3.30588 -0.741431 0
M  V30 11129 C 1067.23 -3.56379 -1.21124 0
M  V30 11130 C 1066.38 -2.76421 -0.220569 0
M  V30 11131 H 1069.33 -1.54897 0.345361 0
M  V30 11132 H 1069.35 -3.45284 -1.59872 0
M  V30 11133 H 1068.86 -3.87701 0.176036 0
M  V30 11134 H 1066.96 -3.04625 -2.14556 0
M  V30 11135 H 1067.07 -4.64952 -1.1557 0
M  V30 11136 H 1065.44 -2.44666 -0.707857 0
M  V30 11137 H 1066.22 -3.36294 0.690018 0
M  V30 11138 N 1068.67 0.153526 -1.5685 0
M  V30 11139 C 1070.08 0.714247 -1.72498 0
M  V30 11140 C 1070.43 1.81968 -0.733621 0
M  V30 11141 O 1069.55 2.16163 0.10118 0
M  V30 11142 C 1070.15 1.30238 -3.12767 0
M  V30 11143 C 1068.71 1.80974 -3.30038 0
M  V30 11144 C 1067.85 0.695638 -2.68433 0
M  V30 11145 H 1070.81 -0.0720733 -1.58536 0
M  V30 11146 H 1070.83 2.17217 -3.12405 0
M  V30 11147 H 1070.34 0.497605 -3.84897 0
M  V30 11148 H 1068.44 2.64039 -2.62895 0
M  V30 11149 H 1068.55 1.94294 -4.37934 0
M  V30 11150 H 1066.92 1.12061 -2.28723 0
M  V30 11151 H 1067.7 -0.0975885 -3.43161 0
M  V30 11152 N 1070.14 1.51827 0.422667 0
M  V30 11153 C 1071.11 1.7359 1.49663 0
M  V30 11154 C 1072.11 0.605811 1.48952 0
M  V30 11155 O 1073.3 0.87354 1.50715 0
M  V30 11156 C 1070.43 1.80585 2.8914 0
M  V30 11157 H 1071.62 2.69453 1.31664 0
M  V30 11158 H 1069.18 1.42038 0.652298 0
M  V30 11159 H 1069.91 0.865895 3.12526 0
M  V30 11160 H 1069.7 2.62729 2.9106 0
M  V30 11161 H 1071.19 1.99212 3.67021 0
M  V30 11162 N 1071.62 -0.679052 1.4222 0
M  V30 11163 C 1073.04 -0.991665 1.25053 0
M  V30 11164 C 1073.24 -2.00928 0.151665 0
M  V30 11165 O 1072.29 -2.47925 -0.478507 0
M  V30 11166 C 1073.61 -1.50053 2.60585 0
M  V30 11167 C 1075.16 -1.61852 2.67905 0
M  V30 11168 C 1075.63 -2.16135 4.03794 0
M  V30 11169 N 1077.12 -2.23474 4.05726 0
M  V30 11170 C 1077.86 -2.66541 5.07685 0
M  V30 11171 N 1077.35 -3.09092 6.20028 0
M  V30 11172 N 1079.15 -2.66252 4.95042 0
M  V30 11173 H 1071.3 -0.00521851 2.12399 0
M  V30 11174 H 1073.56 -0.0648465 0.94578 0
M  V30 11175 H 1073.27 -0.82731 3.41831 0
M  V30 11176 H 1073.14 -2.47998 2.84213 0
M  V30 11177 H 1075.53 -2.28281 1.87008 0
M  V30 11178 H 1075.61 -0.624074 2.4807 0
M  V30 11179 H 1075.25 -1.50316 4.85147 0
M  V30 11180 H 1075.18 -3.16363 4.20978 0
M  V30 11181 H 1077.67 -1.93467 3.24621 0
M  V30 11182 H 1077.99 -3.40627 6.93681 0
M  V30 11183 H 1076.33 -3.06959 6.23539 0
M  V30 11184 H 1079.52 -2.32369 4.06352 0
M  V30 11185 H 1079.69 -2.99496 5.74636 0
M  V30 11186 N 1073.1 -1.28322 -0.914942 0
M  V30 11187 C 1074.51 -1.13937 -1.47903 0
M  V30 11188 C 1074.86 0.271072 -1.94318 0
M  V30 11189 O 1073.99 1.16522 -1.8235 0
M  V30 11190 C 1074.58 -2.06221 -2.68809 0
M  V30 11191 C 1073.14 -1.95903 -3.21402 0
M  V30 11192 C 1072.29 -1.98031 -1.94111 0
M  V30 11193 H 1075.24 -1.41029 -0.727772 0
M  V30 11194 H 1075.26 -1.6255 -3.44031 0
M  V30 11195 H 1074.77 -3.08866 -2.34997 0
M  V30 11196 H 1072.87 -0.962907 -3.59943 0
M  V30 11197 H 1072.99 -2.82799 -3.86732 0
M  V30 11198 H 1071.35 -1.42423 -2.11158 0
M  V30 11199 H 1072.13 -3.02354 -1.62595 0
M  V30 11200 N 1074.58 1.12322 -1.10551 0
M  V30 11201 C 1075.53 2.16177 -0.724679 0
M  V30 11202 C 1076.51 1.58674 0.266739 0
M  V30 11203 O 1077.7 1.7684 0.0752872 0
M  V30 11204 C 1074.83 3.4293 -0.159413 0
M  V30 11205 C 1073.92 4.07413 -1.17794 0
M  V30 11206 N 1074.31 4.46889 -2.36905 0
M  V30 11207 C 1072.61 4.34209 -1.01874 0
M  V30 11208 C 1073.31 4.97291 -3.01789 0
M  V30 11209 N 1072.29 4.92871 -2.29302 0
M  V30 11210 H 1076.09 2.44466 -1.63136 0
M  V30 11211 H 1073.6 1.2924 -0.983407 0
M  V30 11212 H 1075.6 4.16693 0.131502 0
M  V30 11213 H 1074.26 3.16109 0.741975 0
M  V30 11214 H 1075.27 4.39219 -2.74422 0
M  V30 11215 H 1071.95 4.17141 -0.173013 0
M  V30 11216 H 1073.34 5.3754 -4.03114 0
M  V30 11217 N 1076.06 0.894434 1.2976 0
M  V30 11218 C 1077.3 0.516646 1.95385 0
M  V30 11219 C 1077.63 -0.939141 1.70895 0
M  V30 11220 O 1076.9 -1.66153 1.03778 0
M  V30 11221 H 1075.48 0.188072 0.722937 0
M  V30 11222 H 1078.14 1.13958 1.58113 0
M  V30 11223 H 1077.23 0.694819 3.04267 0
M  V30 11224 N 1077.53 -1.43282 0.656365 0
M  V30 11225 C 1078.95 -1.56272 0.324213 0
M  V30 11226 C 1079.15 -1.63946 -1.1715 0
M  V30 11227 O 1078.21 -1.59625 -1.95643 0
M  V30 11228 C 1079.52 -2.82204 1.03833 0
M  V30 11229 C 1081.07 -2.95952 1.01889 0
M  V30 11230 C 1081.54 -4.2472 1.71397 0
M  V30 11231 N 1083.03 -4.31591 1.68176 0
M  V30 11232 C 1083.77 -5.30001 2.1883 0
M  V30 11233 N 1083.26 -6.34671 2.77785 0
M  V30 11234 N 1085.06 -5.21676 2.09311 0
M  V30 11235 H 1077.21 -1.36544 1.62694 0
M  V30 11236 H 1079.47 -0.655999 0.684375 0
M  V30 11237 H 1079.18 -2.82608 2.09346 0
M  V30 11238 H 1079.05 -3.72527 0.591878 0
M  V30 11239 H 1081.44 -2.95087 -0.0278431 0
M  V30 11240 H 1081.52 -2.0691 1.50406 0
M  V30 11241 H 1081.16 -4.26346 2.76028 0
M  V30 11242 H 1081.09 -5.12665 1.20342 0
M  V30 11243 H 1083.58 -3.56573 1.25157 0
M  V30 11244 H 1083.9 -7.06087 3.14104 0
M  V30 11245 H 1082.24 -6.35285 2.81847 0
M  V30 11246 H 1085.43 -4.3882 1.62955 0
M  V30 11247 H 1085.61 -5.9821 2.49095 0
M  V30 11248 N 1079.01 -0.398486 -1.52479 0
M  V30 11249 C 1080.43 -0.0488635 -1.59525 0
M  V30 11250 C 1080.63 1.43756 -1.41197 0
M  V30 11251 O 1079.69 2.20317 -1.23357 0
M  V30 11252 C 1081 -0.534262 -2.95916 0
M  V30 11253 C 1082.55 -0.491314 -3.0912 0
M  V30 11254 C 1083.02 -0.953049 -4.47974 0
M  V30 11255 N 1084.51 -0.909434 -4.54184 0
M  V30 11256 C 1085.25 -1.23801 -5.59876 0
M  V30 11257 N 1084.74 -1.63752 -6.73169 0
M  V30 11258 N 1086.54 -1.15867 -5.50028 0
M  V30 11259 H 1078.69 -1.36608 -1.62641 0
M  V30 11260 H 1080.95 -0.560515 -0.764544 0
M  V30 11261 H 1080.66 -1.57277 -3.14574 0
M  V30 11262 H 1080.53 0.0617787 -3.77149 0
M  V30 11263 H 1082.92 0.538123 -2.90152 0
M  V30 11264 H 1083 -1.12327 -2.29818 0
M  V30 11265 H 1082.64 -1.98076 -4.67684 0
M  V30 11266 H 1082.57 -0.298007 -5.25756 0
M  V30 11267 H 1085.06 -0.615569 -3.72853 0
M  V30 11268 H 1085.38 -1.87163 -7.49793 0
M  V30 11269 H 1083.72 -1.67647 -6.74477 0
M  V30 11270 H 1086.91 -0.845502 -4.60401 0
M  V30 11271 H 1087.09 -1.41805 -6.32294 0
M  V30 11272 N 1080.49 1.57075 -0.12858 0
M  V30 11273 C 1081.4 2.19369 0.831533 0
M  V30 11274 C 1082.42 1.17258 1.28555 0
M  V30 11275 O 1083.59 1.49766 1.34656 0
M  V30 11276 C 1080.66 2.78846 2.06024 0
M  V30 11277 C 1079.72 3.96024 1.65722 0
M  V30 11278 C 1078.95 4.52655 2.82735 0
M  V30 11279 O 1079.18 4.08175 3.98434 0
M  V30 11280 O 1078.11 5.43198 2.59268 0
M  V30 11281 H 1081.94 3.01887 0.331352 0
M  V30 11282 H 1079.52 1.49081 0.0975226 0
M  V30 11283 H 1081.4 3.16721 2.77967 0
M  V30 11284 H 1080.08 1.99353 2.5503 0
M  V30 11285 H 1078.98 3.62899 0.908574 0
M  V30 11286 H 1080.32 4.76981 1.21449 0
M  V30 11287 N 1081.97 -0.145205 1.5693 0
M  V30 11288 C 1083.25 -0.88631 1.74367 0
M  V30 11289 C 1083.63 -1.99259 0.697081 0
M  V30 11290 O 1082.97 -2.26732 -0.28368 0
M  V30 11291 C 1083.18 -1.42712 3.18488 0
M  V30 11292 C 1084.53 -1.88982 3.80225 0
M  V30 11293 O 1085.56 -1.5245 3.21928 0
M  V30 11294 O 1084.42 -2.56361 4.8264 0
M  V30 11295 H 1081.51 -0.418979 0.713011 0
M  V30 11296 H 1084.06 -0.130991 1.69194 0
M  V30 11297 H 1082.83 -0.632165 3.8616 0
M  V30 11298 H 1082.45 -2.24589 3.28094 0
M  V30 11299 N 1083.45 -1.52049 -0.414609 0
M  V30 11300 C 1084.69 -1.66084 -1.16379 0
M  V30 11301 C 1085.03 -0.386932 -1.90306 0
M  V30 11302 O 1084.3 0.614441 -1.8454 0
M  V30 11303 C 1084.58 -2.87927 -2.16264 0
M  V30 11304 C 1084.44 -4.25353 -1.46269 0
M  V30 11305 C 1085.76 -3.05289 -3.16996 0
M  V30 11306 H 1082.88 -0.604414 -0.421726 0
M  V30 11307 H 1085.52 -1.8459 -0.450177 0
M  V30 11308 H 1083.67 -2.7228 -2.77121 0
M  V30 11309 H 1085.34 -4.52717 -0.885743 0
M  V30 11310 H 1083.58 -4.27006 -0.76472 0
M  V30 11311 H 1084.25 -5.06644 -2.19126 0
M  V30 11312 H 1086.73 -3.19798 -2.66212 0
M  V30 11313 H 1085.61 -3.92065 -3.84156 0
M  V30 11314 H 1085.87 -2.1836 -3.84411 0
M  V30 11315 N 1084.93 0.6715 -1.42579 0
M  V30 11316 C 1086.17 1.42871 -1.42941 0
M  V30 11317 C 1086.49 1.94941 -0.0480483 0
M  V30 11318 O 1085.76 1.73275 0.913921 0
M  V30 11319 H 1084.34 0.530189 -0.526221 0
M  V30 11320 H 1087.01 0.793219 -1.78028 0
M  V30 11321 H 1086.1 2.2801 -2.13114 0
M  V30 11322 N 1086.4 1.28806 0.908124 0
M  V30 11323 C 1087.81 1.14719 1.47297 0
M  V30 11324 C 1088.17 -0.260763 1.94459 0
M  V30 11325 O 1087.29 -1.15553 1.82966 0
M  V30 11326 C 1087.89 2.07643 2.67712 0
M  V30 11327 C 1086.44 1.97605 3.20358 0
M  V30 11328 C 1085.59 1.99058 1.93058 0
M  V30 11329 H 1088.54 1.41413 0.720283 0
M  V30 11330 H 1088.56 1.64372 3.43165 0
M  V30 11331 H 1088.08 3.10108 2.33355 0
M  V30 11332 H 1086.18 0.981982 3.59427 0
M  V30 11333 H 1086.29 2.84846 3.85226 0
M  V30 11334 H 1084.65 1.43541 2.104 0
M  V30 11335 H 1085.44 3.03212 1.60989 0
M  V30 11336 N 1087.88 -1.11734 1.11145 0
M  V30 11337 C 1089.13 -1.83043 0.856717 0
M  V30 11338 C 1089.45 -1.84901 -0.619407 0
M  V30 11339 O 1088.72 -1.31738 -1.44989 0
M  V30 11340 H 1087.3 -0.677823 0.31395 0
M  V30 11341 H 1089.96 -1.35262 1.40322 0
M  V30 11342 H 1089.06 -2.87005 1.22616 0
M  V30 11343 N 1089.36 -0.901303 -1.29284 0
M  V30 11344 C 1090.29 -0.396909 -2.30102 0
M  V30 11345 C 1091.27 0.528919 -1.61668 0
M  V30 11346 O 1092.46 0.439306 -1.89166 0
M  V30 11347 C 1089.59 0.375006 -3.45269 0
M  V30 11348 C 1088.54 -0.46054 -4.25515 0
M  V30 11349 C 1087.87 0.438967 -5.32895 0
M  V30 11350 C 1089.17 -1.7113 -4.93469 0
M  V30 11351 H 1090.86 -1.23943 -2.72541 0
M  V30 11352 H 1088.41 -0.597428 -1.31022 0
M  V30 11353 H 1090.36 0.738622 -4.14876 0
M  V30 11354 H 1089.08 1.25132 -3.01678 0
M  V30 11355 H 1087.74 -0.80651 -3.57618 0
M  V30 11356 H 1087.39 1.31346 -4.85548 0
M  V30 11357 H 1087.09 -0.116406 -5.87485 0
M  V30 11358 H 1088.61 0.79874 -6.05353 0
M  V30 11359 H 1090.03 -1.41732 -5.55504 0
M  V30 11360 H 1088.42 -2.20811 -5.57999 0
M  V30 11361 H 1089.49 -2.44636 -4.18666 0
M  V30 11362 N 1090.84 1.42931 -0.663954 0
M  V30 11363 C 1092.09 2.01284 -0.181379 0
M  V30 11364 C 1092.41 1.52708 1.21265 0
M  V30 11365 O 1091.68 0.744181 1.81215 0
M  V30 11366 H 1090.26 0.744248 -0.0640646 0
M  V30 11367 H 1092.92 1.74997 -0.858031 0
M  V30 11368 H 1092.01 3.11613 -0.174273 0
M  V30 11369 N 1092.32 0.406567 1.52266 0
M  V30 11370 C 1093.25 -0.411314 2.29849 0
M  V30 11371 C 1094.23 -1.04838 1.33952 0
M  V30 11372 O 1095.41 -1.05788 1.62857 0
M  V30 11373 C 1092.54 -1.52961 3.11802 0
M  V30 11374 C 1091.5 -1.01768 4.15725 0
M  V30 11375 C 1090.82 -2.22938 4.86007 0
M  V30 11376 C 1092.12 -0.073515 5.22248 0
M  V30 11377 H 1093.82 0.236054 2.98468 0
M  V30 11378 H 1091.36 0.114968 1.4354 0
M  V30 11379 H 1093.31 -2.10874 3.64843 0
M  V30 11380 H 1092.04 -2.20482 2.40947 0
M  V30 11381 H 1090.7 -0.46097 3.6369 0
M  V30 11382 H 1090.35 -2.89007 4.11684 0
M  V30 11383 H 1090.05 -1.89338 5.5626 0
M  V30 11384 H 1091.57 -2.81462 5.41859 0
M  V30 11385 H 1092.98 -0.561367 5.70545 0
M  V30 11386 H 1091.38 0.173551 5.99849 0
M  V30 11387 H 1092.45 0.872524 4.76985 0
M  V30 11388 N 1093.79 -1.57004 0.136909 0
M  V30 11389 C 1094.76 -2.15066 -0.792419 0
M  V30 11390 C 1095.76 -1.08991 -1.18226 0
M  V30 11391 O 1096.95 -1.34681 -1.10484 0
M  V30 11392 C 1094.08 -2.70554 -2.07397 0
M  V30 11393 H 1095.27 -2.98519 -0.28752 0
M  V30 11394 H 1092.83 -1.55895 -0.112469 0
M  V30 11395 H 1093.56 -1.90739 -2.62277 0
M  V30 11396 H 1093.35 -3.48149 -1.80374 0
M  V30 11397 H 1094.84 -3.15322 -2.73792 0
M  V30 11398 N 1095.27 0.136881 -1.57004 0
M  V30 11399 C 1096.68 0.695911 -1.73245 0
M  V30 11400 C 1097.03 1.8118 -0.75288 0
M  V30 11401 O 1096.16 2.16258 0.0782477 0
M  V30 11402 C 1096.75 1.26914 -3.14131 0
M  V30 11403 C 1095.31 1.77463 -3.31939 0
M  V30 11404 C 1094.46 0.667128 -2.69156 0
M  V30 11405 H 1097.41 -0.0888841 -1.58451 0
M  V30 11406 H 1097.43 2.13892 -3.14691 0
M  V30 11407 H 1096.94 0.456754 -3.85403 0
M  V30 11408 H 1095.05 2.61236 -2.65681 0
M  V30 11409 H 1095.16 1.89638 -4.39971 0
M  V30 11410 H 1093.52 1.09629 -2.29899 0
M  V30 11411 H 1094.31 -0.13398 -3.43038 0
M  V30 11412 N 1096.75 1.52266 0.40654 0
M  V30 11413 C 1097.98 1.70598 1.17945 0
M  V30 11414 C 1098.4 0.415793 1.83447 0
M  V30 11415 O 1097.76 -0.626968 1.70114 0
M  V30 11416 C 1097.81 2.84449 2.21633 0
M  V30 11417 O 1096.91 2.50199 3.27833 0
M  V30 11418 H 1096.25 0.567837 0.344177 0
M  V30 11419 H 1098.78 1.98981 0.476211 0
M  V30 11420 H 1098.79 3.09436 2.65919 0
M  V30 11421 H 1097.47 3.78055 1.73341 0
M  V30 11422 H 1096.04 2.35892 2.88807 0
M  V30 11423 N 1098.23 -0.663929 1.42933 0
M  V30 11424 C 1099.19 -1.75899 1.46943 0
M  V30 11425 C 1100.19 -1.5682 0.355535 0
M  V30 11426 O 1101.38 -1.62914 0.616833 0
M  V30 11427 C 1098.51 -3.14657 1.31164 0
M  V30 11428 H 1099.71 -1.73727 2.44456 0
M  V30 11429 H 1097.26 -0.874587 1.2954 0
M  V30 11430 H 1097.99 -3.22447 0.346165 0
M  V30 11431 H 1097.78 -3.29909 2.11902 0
M  V30 11432 H 1099.27 -3.9453 1.36878 0
M  V30 11433 N 1099.71 -1.29285 -0.901281 0
M  V30 11434 C 1100.93 -1.20048 -1.68511 0
M  V30 11435 C 1101.35 0.239128 -1.8728 0
M  V30 11436 O 1100.71 1.16027 -1.40869 0
M  V30 11437 C 1100.76 -1.90798 -3.07048 0
M  V30 11438 O 1100.48 -3.29137 -2.89138 0
M  V30 11439 C 1101.98 -1.88017 -4.01453 0
M  V30 11440 H 1099.2 -0.416157 -0.52636 0
M  V30 11441 H 1101.74 -1.7063 -1.12719 0
M  V30 11442 H 1099.9 -1.44055 -3.5962 0
M  V30 11443 H 1100.31 -3.64747 -3.76908 0
M  V30 11444 H 1101.79 -2.42088 -4.96082 0
M  V30 11445 H 1102.26 -0.855341 -4.30791 0
M  V30 11446 H 1102.87 -2.34497 -3.54812 0
M  V30 11447 N 1101.18 1.11143 -1.11736 0
M  V30 11448 C 1102.11 2.19339 -0.800795 0
M  V30 11449 C 1103.1 1.68508 0.23221 0
M  V30 11450 O 1104.28 1.93967 0.0950063 0
M  V30 11451 C 1101.41 3.46424 -0.246579 0
M  V30 11452 C 1100.36 4.10487 -1.21181 0
M  V30 11453 C 1099.69 5.32183 -0.518158 0
M  V30 11454 C 1100.99 4.55052 -2.56368 0
M  V30 11455 H 1102.68 2.46077 -1.70548 0
M  V30 11456 H 1100.23 1.18271 -0.821454 0
M  V30 11457 H 1102.18 4.21398 -0.0128889 0
M  V30 11458 H 1100.91 3.19154 0.693415 0
M  V30 11459 H 1099.57 3.3751 -1.43118 0
M  V30 11460 H 1099.21 5.01187 0.426742 0
M  V30 11461 H 1098.91 5.75997 -1.16196 0
M  V30 11462 H 1100.44 6.09895 -0.293333 0
M  V30 11463 H 1101.85 5.21335 -2.38501 0
M  V30 11464 H 1100.25 5.0969 -3.16758 0
M  V30 11465 H 1101.32 3.68343 -3.1536 0
M  V30 11466 N 1102.66 0.908147 1.28804 0
M  V30 11467 C 1103.91 0.539201 1.95501 0
M  V30 11468 C 1104.24 -0.913759 1.7136 0
M  V30 11469 O 1103.52 -1.64904 1.03136 0
M  V30 11470 C 1103.8 0.842372 3.50109 0
M  V30 11471 C 1103.65 2.34765 3.83673 0
M  V30 11472 C 1104.97 0.334658 4.38826 0
M  V30 11473 H 1102.09 0.197373 0.71008 0
M  V30 11474 H 1104.73 1.13637 1.52272 0
M  V30 11475 H 1102.88 0.334143 3.8706 0
M  V30 11476 H 1104.55 2.92607 3.56621 0
M  V30 11477 H 1102.8 2.80494 3.30916 0
M  V30 11478 H 1103.47 2.51034 4.91616 0
M  V30 11479 H 1105.94 0.769961 4.08914 0
M  V30 11480 H 1104.82 0.575914 5.4587 0
M  V30 11481 H 1105.08 -0.764878 4.35433 0
M  V30 11482 N 1104.14 -1.42577 0.671525 0
M  V30 11483 C 1105.37 -2.06442 0.199152 0
M  V30 11484 C 1105.79 -1.50104 -1.1336 0
M  V30 11485 O 1105.15 -0.618211 -1.70434 0
M  V30 11486 C 1105.2 -3.60323 0.141215 0
M  V30 11487 O 1104.3 -4.02655 -0.891238 0
M  V30 11488 H 1103.64 -0.655919 0.103277 0
M  V30 11489 H 1106.17 -1.82768 0.919614 0
M  V30 11490 H 1106.18 -4.07984 -0.0360209 0
M  V30 11491 H 1104.86 -4.00702 1.11403 0
M  V30 11492 H 1103.43 -3.66549 -0.685309 0
M  V30 11493 N 1105.62 -0.414636 -1.52048 0
M  V30 11494 C 1106.55 0.399119 -2.30064 0
M  V30 11495 C 1107.53 1.04126 -1.34506 0
M  V30 11496 O 1108.71 1.04923 -1.63416 0
M  V30 11497 C 1105.84 1.51305 -3.12608 0
M  V30 11498 C 1104.8 0.995621 -4.16259 0
M  V30 11499 C 1104.12 2.20357 -4.87183 0
M  V30 11500 C 1105.42 0.0458178 -5.2228 0
M  V30 11501 H 1107.12 -0.251879 -2.98339 0
M  V30 11502 H 1104.66 -0.122579 -1.43477 0
M  V30 11503 H 1106.62 2.08936 -3.65956 0
M  V30 11504 H 1105.34 2.19201 -2.42113 0
M  V30 11505 H 1104 0.441676 -3.6393 0
M  V30 11506 H 1103.65 2.8682 -4.13211 0
M  V30 11507 H 1103.35 1.86385 -5.57256 0
M  V30 11508 H 1104.87 2.78584 -5.43345 0
M  V30 11509 H 1106.29 0.531102 -5.70835 0
M  V30 11510 H 1104.68 -0.20536 -5.99749 0
M  V30 11511 H 1105.75 -0.897807 -4.76516 0
M  V30 11512 N 1107.1 1.56929 -0.145233 0
M  V30 11513 C 1108.32 2.00864 0.516564 0
M  V30 11514 C 1108.75 1.02466 1.57741 0
M  V30 11515 O 1108.1 0.000145439 1.813 0
M  V30 11516 C 1108.15 3.43552 1.09563 0
M  V30 11517 O 1107.26 3.4815 2.21055 0
M  V30 11518 H 1106.6 0.651835 0.126521 0
M  V30 11519 H 1109.13 2.0317 -0.241445 0
M  V30 11520 H 1109.14 3.82316 1.42473 0
M  V30 11521 H 1107.81 4.14677 0.318749 0
M  V30 11522 H 1106.39 3.21228 1.89387 0
M  V30 11523 N 1108.58 -0.128553 1.57075 0
M  V30 11524 C 1109.8 -0.8564 1.88893 0
M  V30 11525 C 1110.23 -1.73095 0.736196 0
M  V30 11526 O 1109.58 -1.78567 -0.313629 0
M  V30 11527 C 1109.63 -1.67368 3.19406 0
M  V30 11528 O 1108.74 -2.77973 3.04639 0
M  V30 11529 H 1108.08 -0.237424 0.620102 0
M  V30 11530 H 1110.61 -0.113821 2.04283 0
M  V30 11531 H 1110.62 -2.0649 3.51889 0
M  V30 11532 H 1109.29 -1.03161 4.02903 0
M  V30 11533 H 1107.87 -2.42123 2.83603 0
M  V30 11534 N 1110.05 -1.5248 -0.398459 0
M  V30 11535 C 1111.3 -1.67309 -1.1461 0
M  V30 11536 C 1111.63 -0.407095 -1.89885 0
M  V30 11537 O 1110.91 0.594834 -1.85181 0
M  V30 11538 C 1111.19 -2.90204 -2.13198 0
M  V30 11539 C 1111.04 -4.26881 -1.4175 0
M  V30 11540 C 1112.36 -3.08634 -3.13741 0
M  V30 11541 H 1109.48 -0.608853 -0.415292 0
M  V30 11542 H 1112.12 -1.85057 -0.430573 0
M  V30 11543 H 1110.27 -2.75204 -2.74218 0
M  V30 11544 H 1111.95 -4.53631 -0.837676 0
M  V30 11545 H 1110.19 -4.27793 -0.719387 0
M  V30 11546 H 1110.86 -5.08939 -2.1374 0
M  V30 11547 H 1113.34 -3.22603 -2.62805 0
M  V30 11548 H 1112.21 -3.96117 -3.79977 0
M  V30 11549 H 1112.47 -2.22425 -3.82073 0
M  V30 11550 N 1111.53 0.65634 -1.43283 0
M  V30 11551 C 1112.76 1.44906 -1.48382 0
M  V30 11552 C 1113.18 1.87823 -0.101993 0
M  V30 11553 O 1112.54 1.57178 0.903597 0
M  V30 11554 C 1112.59 2.66231 -2.43215 0
M  V30 11555 O 1111.69 3.65176 -1.91625 0
M  V30 11556 H 1111.03 0.434601 -0.502014 0
M  V30 11557 H 1113.56 0.803429 -1.88165 0
M  V30 11558 H 1113.57 3.14083 -2.60414 0
M  V30 11559 H 1112.25 2.34336 -3.43598 0
M  V30 11560 H 1110.82 3.24302 -1.84072 0
M  V30 11561 N 1113.01 1.29761 0.894412 0
M  V30 11562 C 1114.29 1.08711 1.62608 0
M  V30 11563 C 1114.67 -0.366907 2.07887 0
M  V30 11564 O 1114.01 -1.35669 1.83865 0
M  V30 11565 C 1114.22 2.07947 2.80284 0
M  V30 11566 C 1115.57 2.39153 3.50843 0
M  V30 11567 O 1116.6 2.06183 2.9046 0
M  V30 11568 O 1115.46 2.95509 4.59713 0
M  V30 11569 H 1112.55 0.416866 0.714249 0
M  V30 11570 H 1115.1 1.41153 0.942015 0
M  V30 11571 H 1113.87 3.05859 2.44061 0
M  V30 11572 H 1113.49 1.76266 3.56393 0
M  V30 11573 N 1114.49 -1.10549 1.12324 0
M  V30 11574 C 1115.73 -1.84108 0.887895 0
M  V30 11575 C 1116.09 -1.83159 -0.5759 0
M  V30 11576 O 1117.29 -2.52259 -0.928367 0
M  V30 11577 C 1115.56 -3.26866 1.44545 0
M  V30 11578 S 1117.12 -4.17567 1.34846 0
M  V30 11579 H 1113.94 -0.634752 0.320329 0
M  V30 11580 H 1116.54 -1.33036 1.43254 0
M  V30 11581 H 1115.25 -3.25126 2.50442 0
M  V30 11582 H 1114.78 -3.83008 0.89825 0
M  V30 11583 H 1116.79 -4.95173 0.319143 0
M  V30 11584 N 1115.97 -0.914965 -1.28321 0
M  V30 11585 C 1116.91 -0.394477 -2.29231 0
M  V30 11586 C 1117.91 0.514481 -1.61398 0
M  V30 11587 O 1119.11 0.395591 -1.75599 0
M  V30 11588 H 1115.49 -0.108969 -0.744063 0
M  V30 11589 H 1117.46 -1.25862 -2.70557 0
M  V30 11590 C 1116.21 0.349134 -3.45943 0
M  V30 11591 H 1115.53 -0.341087 -3.98342 0
M  V30 11592 H 1116.97 0.677944 -4.18545 0
M  V30 11593 C 1115.43 1.55747 -2.98738 0
M  V30 11594 O 1115.96 2.65654 -3.01315 0
M  V30 11595 N 1114.17 1.40488 -2.54384 0
M  V30 11596 H 1113.71 0.510716 -2.52487 0
M  V30 11597 H 1113.67 2.21464 -2.23161 0
M  V30 11598 N 1117.44 1.42219 -0.679077 0
M  V30 11599 C 1118.67 2.06333 -0.210097 0
M  V30 11600 C 1119.09 1.50703 1.12562 0
M  V30 11601 O 1118.45 0.627241 1.70104 0
M  V30 11602 C 1118.5 3.60243 -0.160322 0
M  V30 11603 O 1117.6 4.03122 0.869872 0
M  V30 11604 H 1116.94 0.655362 -0.106754 0
M  V30 11605 H 1119.47 1.82278 -0.929294 0
M  V30 11606 H 1119.48 4.07997 0.014384 0
M  V30 11607 H 1118.16 4.00106 -1.13526 0
M  V30 11608 H 1116.74 3.66907 0.66586 0
M  V30 11609 N 1118.92 0.422693 1.51826 0
M  V30 11610 C 1120.15 -0.147744 2.06372 0
M  V30 11611 C 1120.56 -1.37714 1.29152 0
M  V30 11612 O 1119.92 -1.7917 0.347046 0
M  V30 11613 C 1119.97 -0.484642 3.58237 0
M  V30 11614 O 1119.69 0.695944 4.32537 0
M  V30 11615 C 1121.19 -1.10734 4.29247 0
M  V30 11616 H 1118.41 -0.0144047 0.670845 0
M  V30 11617 H 1120.96 0.597558 1.95575 0
M  V30 11618 H 1119.11 -1.17984 3.68997 0
M  V30 11619 H 1119.53 0.411471 5.22884 0
M  V30 11620 H 1121 -1.29318 5.36639 0
M  V30 11621 H 1121.48 -2.08429 3.86593 0
M  V30 11622 H 1122.08 -0.451958 4.22892 0
M  V30 11623 N 1120.4 -1.5685 0.153553 0
M  V30 11624 C 1121.82 -1.58306 -0.202801 0
M  V30 11625 C 1122.02 -1.16813 -1.64186 0
M  V30 11626 O 1121.07 -0.871468 -2.36985 0
M  V30 11627 C 1122.38 -3.00636 0.0619012 0
M  V30 11628 C 1123.93 -3.13 -0.00129219 0
M  V30 11629 C 1124.41 -4.57391 0.236164 0
M  V30 11630 N 1125.9 -4.62837 0.18332 0
M  V30 11631 C 1126.63 -5.72382 0.341471 0
M  V30 11632 N 1126.13 -6.90552 0.557704 0
M  V30 11633 N 1127.92 -5.61409 0.278615 0
M  V30 11634 H 1120.07 -1.82113 1.09309 0
M  V30 11635 H 1122.34 -0.843228 0.433209 0
M  V30 11636 H 1122.04 -3.35406 1.0581 0
M  V30 11637 H 1121.92 -3.71477 -0.654555 0
M  V30 11638 H 1124.3 -2.78068 -0.98805 0
M  V30 11639 H 1124.38 -2.44632 0.747596 0
M  V30 11640 H 1124.03 -4.93029 1.22005 0
M  V30 11641 H 1123.96 -5.23894 -0.533125 0
M  V30 11642 H 1126.45 -3.77894 0.0211138 0
M  V30 11643 H 1126.76 -7.69905 0.66831 0
M  V30 11644 H 1125.11 -6.92456 0.594105 0
M  V30 11645 H 1128.3 -4.6797 0.110401 0
M  V30 11646 H 1128.47 -6.46731 0.4053 0
M  V30 11647 N 1121.88 0.120221 -1.57141 0
M  V30 11648 C 1123.1 0.84637 -1.89344 0
M  V30 11649 C 1123.53 1.72702 -0.745365 0
M  V30 11650 O 1122.89 1.7873 0.304155 0
M  V30 11651 C 1122.93 1.65671 -3.20289 0
M  V30 11652 O 1122.04 2.76353 -3.06109 0
M  V30 11653 H 1121.38 0.234132 -0.621352 0
M  V30 11654 H 1123.91 0.102986 -2.04341 0
M  V30 11655 H 1123.92 2.04621 -3.52979 0
M  V30 11656 H 1122.59 1.01023 -4.03444 0
M  V30 11657 H 1121.17 2.40615 -2.84884 0
M  V30 11658 N 1123.36 1.52689 0.390367 0
M  V30 11659 C 1124.29 1.80338 1.48325 0
M  V30 11660 C 1125.27 0.655338 1.56969 0
M  V30 11661 O 1126.45 0.902792 1.7194 0
M  V30 11662 C 1123.58 1.97101 2.85952 0
M  V30 11663 C 1122.54 3.12783 2.92148 0
M  V30 11664 C 1121.86 3.14798 4.32211 0
M  V30 11665 C 1123.16 4.5188 2.61919 0
M  V30 11666 H 1124.86 2.71857 1.25437 0
M  V30 11667 H 1122.4 1.30813 0.601995 0
M  V30 11668 H 1124.36 2.15027 3.62411 0
M  V30 11669 H 1123.08 1.02271 3.10174 0
M  V30 11670 H 1121.74 2.94638 2.18137 0
M  V30 11671 H 1121.39 2.17653 4.53471 0
M  V30 11672 H 1121.09 3.92507 4.37278 0
M  V30 11673 H 1122.61 3.34877 5.10578 0
M  V30 11674 H 1124.02 4.70134 3.28096 0
M  V30 11675 H 1122.42 5.31647 2.78337 0
M  V30 11676 H 1123.49 4.58689 1.57266 0
M  V30 11677 N 1124.83 -0.648732 1.43629 0
M  V30 11678 C 1125.76 -1.77298 1.51947 0
M  V30 11679 C 1126.75 -1.65942 0.373785 0
M  V30 11680 O 1127.93 -1.8497 0.591596 0
M  V30 11681 C 1125.06 -3.15749 1.44638 0
M  V30 11682 C 1124.01 -3.41872 2.57502 0
M  V30 11683 C 1123.34 -4.8017 2.35246 0
M  V30 11684 C 1124.64 -3.36173 3.99731 0
M  V30 11685 H 1126.33 -1.70594 2.46045 0
M  V30 11686 H 1123.88 -0.819306 1.1842 0
M  V30 11687 H 1125.83 -3.94156 1.4906 0
M  V30 11688 H 1124.56 -3.23194 0.470466 0
M  V30 11689 H 1123.22 -2.65838 2.5244 0
M  V30 11690 H 1122.86 -4.84297 1.35887 0
M  V30 11691 H 1122.56 -4.9861 3.10906 0
M  V30 11692 H 1124.09 -5.6083 2.41459 0
M  V30 11693 H 1125.5 -4.0451 4.06257 0
M  V30 11694 H 1123.9 -3.66148 4.75453 0
M  V30 11695 H 1124.97 -2.34277 4.24549 0
M  V30 11696 N 1126.31 -1.30234 -0.887518 0
M  V30 11697 C 1127.73 -1.0851 -1.17037 0
M  V30 11698 C 1127.93 0.155788 -2.00897 0
M  V30 11699 O 1126.98 0.850123 -2.37759 0
M  V30 11700 C 1128.3 -2.34723 -1.87951 0
M  V30 11701 C 1129.85 -2.40163 -2.00726 0
M  V30 11702 C 1130.32 -3.66211 -2.75051 0
M  V30 11703 N 1131.81 -3.67004 -2.82599 0
M  V30 11704 C 1132.55 -4.61224 -3.40676 0
M  V30 11705 N 1132.04 -5.65786 -3.99823 0
M  V30 11706 N 1133.84 -4.48772 -3.38467 0
M  V30 11707 H 1125.99 -2.09847 -0.328297 0
M  V30 11708 H 1128.25 -0.924904 -0.20798 0
M  V30 11709 H 1127.96 -3.25265 -1.33773 0
M  V30 11710 H 1127.83 -2.43175 -2.8835 0
M  V30 11711 H 1130.22 -1.50101 -2.54074 0
M  V30 11712 H 1130.3 -2.35688 -0.994218 0
M  V30 11713 H 1129.94 -4.56631 -2.22376 0
M  V30 11714 H 1129.87 -3.67947 -3.76726 0
M  V30 11715 H 1132.36 -2.91409 -2.40602 0
M  V30 11716 H 1132.68 -6.33783 -4.42197 0
M  V30 11717 H 1131.02 -5.69581 -3.9825 0
M  V30 11718 H 1134.21 -3.6627 -2.91485 0
M  V30 11719 H 1134.38 -5.22382 -3.83433 0
M  V30 11720 N 1127.79 1.09952 -1.12909 0
M  V30 11721 C 1129.02 1.8633 -0.910821 0
M  V30 11722 C 1129.44 1.80335 0.534874 0
M  V30 11723 O 1128.8 1.1769 1.37908 0
M  V30 11724 C 1128.85 3.32462 -1.39648 0
M  V30 11725 O 1127.95 4.08327 -0.578192 0
M  V30 11726 H 1127.29 0.577984 -0.32685 0
M  V30 11727 H 1129.82 1.38883 -1.50242 0
M  V30 11728 H 1129.83 3.83311 -1.39774 0
M  V30 11729 H 1128.51 3.36141 -2.44913 0
M  V30 11730 H 1127.08 3.67291 -0.644347 0
M  V30 11731 N 1129.27 0.921757 1.27833 0
M  V30 11732 C 1130.55 0.477706 1.89677 0
M  V30 11733 C 1130.93 -1.04392 1.83481 0
M  V30 11734 O 1130.27 -1.89549 1.27606 0
M  V30 11735 C 1130.48 1.01709 3.33851 0
M  V30 11736 C 1131.83 1.074 4.10792 0
M  V30 11737 O 1132.86 0.966295 3.42843 0
M  V30 11738 O 1131.71 1.23909 5.32268 0
M  V30 11739 H 1128.81 0.15271 0.812778 0
M  V30 11740 H 1131.35 1.01306 1.36144 0
M  V30 11741 H 1130.13 2.061 3.32623 0
M  V30 11742 H 1129.75 0.463031 3.94895 0
M  V30 11743 N 1130.75 -1.41857 0.686609 0
M  V30 11744 C 1131.97 -2.06219 0.221037 0
M  V30 11745 C 1132.4 -1.51298 -1.11762 0
M  V30 11746 O 1131.75 -0.636253 -1.69769 0
M  V30 11747 C 1131.8 -3.60153 0.179425 0
M  V30 11748 O 1130.91 -4.03577 -0.848481 0
M  V30 11749 H 1130.25 -0.654787 0.110228 0
M  V30 11750 H 1132.78 -1.81783 0.938948 0
M  V30 11751 H 1132.79 -4.07999 0.00725332 0
M  V30 11752 H 1131.46 -3.99498 1.15647 0
M  V30 11753 H 1130.04 -3.67255 -0.646393 0
M  V30 11754 N 1132.22 -0.430739 -1.51599 0
M  V30 11755 C 1133.5 0.197543 -1.946 0
M  V30 11756 C 1133.88 1.6069 -1.36901 0
M  V30 11757 O 1133.23 2.21697 -0.553422 0
M  V30 11758 C 1133.44 0.181976 -3.48525 0
M  V30 11759 C 1134.79 0.390783 -4.22798 0
M  V30 11760 O 1135.81 0.260384 -3.55247 0
M  V30 11761 O 1134.67 0.649701 -5.42624 0
M  V30 11762 H 1131.76 0.133524 -0.81615 0
M  V30 11763 H 1134.31 -0.488243 -1.62525 0
M  V30 11764 H 1133.08 -0.803584 -3.8296 0
M  V30 11765 H 1132.71 0.910952 -3.87024 0
M  V30 11766 N 1133.7 1.56767 -0.161869 0
M  V30 11767 C 1134.61 2.21083 0.784814 0
M  V30 11768 C 1135.63 1.19959 1.26039 0
M  V30 11769 O 1136.8 1.52588 1.31449 0
M  V30 11770 C 1133.87 2.83153 2.00063 0
M  V30 11771 C 1132.93 3.9945 1.57285 0
M  V30 11772 C 1132.16 4.5855 2.7307 0
M  V30 11773 O 1132.39 4.16534 3.89686 0
M  V30 11774 O 1131.32 5.48575 2.47688 0
M  V30 11775 H 1135.15 3.02522 0.267243 0
M  V30 11776 H 1132.73 1.49255 0.0658783 0
M  V30 11777 H 1134.61 3.22546 2.71186 0
M  V30 11778 H 1133.29 2.04718 2.50744 0
M  V30 11779 H 1132.2 3.64745 0.831393 0
M  V30 11780 H 1133.53 4.7945 1.11304 0
M  V30 11781 N 1135.18 -0.111886 1.57202 0
M  V30 11782 C 1136.14 -1.12101 1.99915 0
M  V30 11783 C 1137.14 -1.33906 0.890272 0
M  V30 11784 O 1138.33 -1.30303 1.15615 0
M  V30 11785 C 1135.47 -2.47392 2.34543 0
M  V30 11786 H 1136.66 -0.753736 2.90274 0
M  V30 11787 H 1134.21 -0.35641 1.52182 0
M  V30 11788 H 1134.95 -2.89026 1.47086 0
M  V30 11789 H 1134.73 -2.32917 3.15423 0
M  V30 11790 H 1136.22 -3.20004 2.68304 0
M  V30 11791 N 1136.66 -1.52894 -0.382264 0
M  V30 11792 C 1137.62 -1.77497 -1.45008 0
M  V30 11793 C 1138.62 -0.64509 -1.47293 0
M  V30 11794 O 1139.81 -0.913192 -1.48346 0
M  V30 11795 C 1136.94 -1.88188 -2.8425 0
M  V30 11796 H 1138.14 -2.72849 -1.24473 0
M  V30 11797 H 1135.69 -1.43717 -0.61441 0
M  V30 11798 H 1136.42 -0.948451 -3.10121 0
M  V30 11799 H 1136.21 -2.70353 -2.83992 0
M  V30 11800 H 1137.7 -2.08873 -3.6161 0
M  V30 11801 N 1138.14 0.641106 -1.43971 0
M  V30 11802 C 1139.55 1.22254 -1.41106 0
M  V30 11803 C 1139.9 1.95825 -0.121284 0
M  V30 11804 O 1139.02 2.01901 0.77879 0
M  V30 11805 C 1139.62 2.22364 -2.55617 0
M  V30 11806 C 1138.18 2.75957 -2.55978 0
M  V30 11807 C 1137.33 1.50792 -2.32717 0
M  V30 11808 H 1140.28 0.432381 -1.52696 0
M  V30 11809 H 1140.3 3.04775 -2.27799 0
M  V30 11810 H 1139.81 1.68789 -3.49474 0
M  V30 11811 H 1137.91 3.33562 -1.66034 0
M  V30 11812 H 1138.02 3.22676 -3.54142 0
M  V30 11813 H 1136.39 1.7857 -1.81617 0
M  V30 11814 H 1137.17 0.991343 -3.28675 0
M  V30 11815 N 1139.62 1.30703 0.880598 0
M  V30 11816 C 1140.58 1.17429 1.96832 0
M  V30 11817 C 1141.58 0.104305 1.60461 0
M  V30 11818 O 1142.77 0.352758 1.70591 0
M  V30 11819 C 1139.9 0.800099 3.31378 0
M  V30 11820 H 1141.09 2.14069 2.10034 0
M  V30 11821 H 1138.65 1.14162 1.06755 0
M  V30 11822 H 1139.38 -0.165606 3.23877 0
M  V30 11823 H 1139.17 1.57341 3.59146 0
M  V30 11824 H 1140.66 0.730826 4.11155 0
M  V30 11825 N 1141.09 -1.09351 1.1349 0
M  V30 11826 C 1142.06 -2.14185 0.815919 0
M  V30 11827 C 1143.06 -1.59845 -0.174976 0
M  V30 11828 O 1144.25 -1.74122 0.0521971 0
M  V30 11829 C 1141.38 -3.40224 0.214517 0
M  V30 11830 H 1142.57 -2.43913 1.74489 0
M  V30 11831 H 1140.12 -1.24902 0.939634 0
M  V30 11832 H 1140.86 -3.16123 -0.723634 0
M  V30 11833 H 1140.64 -3.80958 0.928102 0
M  V30 11834 H 1142.13 -4.17599 0.00821999 0
M  V30 11835 N 1142.57 -0.928524 -1.27343 0
M  V30 11836 C 1143.98 -0.613856 -1.7632 0
M  V30 11837 C 1144.33 0.870983 -1.75808 0
M  V30 11838 O 1143.46 1.68155 -1.36209 0
M  V30 11839 C 1144.05 -1.10755 -3.20186 0
M  V30 11840 C 1142.61 -0.843532 -3.66826 0
M  V30 11841 C 1141.76 -1.26579 -2.46724 0
M  V30 11842 H 1144.71 -1.10821 -1.13598 0
M  V30 11843 H 1144.73 -0.455598 -3.77763 0
M  V30 11844 H 1144.24 -2.18825 -3.20526 0
M  V30 11845 H 1142.34 0.223334 -3.7193 0
M  V30 11846 H 1142.46 -1.46165 -4.56259 0
M  V30 11847 H 1140.82 -0.684334 -2.45334 0
M  V30 11848 H 1141.6 -2.35516 -2.49774 0
M  V30 11849 N 1144.05 1.41491 -0.694123 0
M  V30 11850 C 1145.27 2.06099 -0.23197 0
M  V30 11851 C 1145.7 1.51888 1.10958 0
M  V30 11852 O 1145.06 0.645247 1.69429 0
M  V30 11853 C 1145.11 3.60053 -0.198522 0
M  V30 11854 O 1144.21 4.04021 0.827067 0
M  V30 11855 H 1143.55 0.654193 -0.113699 0
M  V30 11856 H 1146.08 1.81282 -0.948575 0
M  V30 11857 H 1146.09 4.0799 -0.0288904 0
M  V30 11858 H 1144.77 3.98879 -1.17764 0
M  V30 11859 H 1143.34 3.67593 0.626908 0
M  V30 11860 N 1145.53 0.438773 1.51369 0
M  V30 11861 C 1146.94 -0.0240139 1.86685 0
M  V30 11862 C 1147.29 -1.41816 1.35583 0
M  V30 11863 O 1146.41 -2.04517 0.707232 0
M  V30 11864 C 1147.01 -0.0503527 3.38763 0
M  V30 11865 C 1145.57 -0.457556 3.73609 0
M  V30 11866 C 1144.72 0.348852 2.75097 0
M  V30 11867 H 1147.67 0.654552 1.44573 0
M  V30 11868 H 1147.69 -0.859534 3.70665 0
M  V30 11869 H 1147.2 0.964451 3.75925 0
M  V30 11870 H 1145.3 -1.47791 3.42036 0
M  V30 11871 H 1145.41 -0.181357 4.78757 0
M  V30 11872 H 1143.78 -0.193037 2.53967 0
M  V30 11873 H 1144.56 1.36256 3.15102 0
M  V30 11874 N 1147.01 -1.56678 0.170181 0
M  V30 11875 C 1148.42 -1.83452 -0.346742 0
M  V30 11876 C 1148.77 -1.08993 -1.63141 0
M  V30 11877 O 1147.89 -0.342607 -2.13671 0
M  V30 11878 C 1148.49 -3.32779 -0.635882 0
M  V30 11879 C 1147.05 -3.60052 -1.09725 0
M  V30 11880 C 1146.19 -2.76983 -0.132516 0
M  V30 11881 H 1149.14 -1.53719 0.394465 0
M  V30 11882 H 1149.17 -3.50195 -1.48806 0
M  V30 11883 H 1148.68 -3.86944 0.299291 0
M  V30 11884 H 1146.78 -3.11297 -2.04756 0
M  V30 11885 H 1146.89 -4.68393 -1.00719 0
M  V30 11886 H 1145.26 -2.46794 -0.62966 0
M  V30 11887 H 1146.04 -3.33929 0.796658 0
M  V30 11888 N 1148.48 0.103547 -1.57259 0
M  V30 11889 C 1149.89 0.659006 -1.74683 0
M  V30 11890 C 1150.25 1.79542 -0.791142 0
M  V30 11891 O 1149.37 2.16376 0.0323585 0
M  V30 11892 C 1149.97 1.20222 -3.16752 0
M  V30 11893 C 1148.52 1.70382 -3.35629 0
M  V30 11894 C 1147.67 0.609886 -2.7051 0
M  V30 11895 H 1150.62 -0.122474 -1.58227 0
M  V30 11896 H 1150.64 2.07169 -3.19157 0
M  V30 11897 H 1150.16 0.374901 -3.86285 0
M  V30 11898 H 1148.26 2.55542 -2.71162 0
M  V30 11899 H 1148.37 1.80263 -4.43894 0
M  V30 11900 H 1146.73 1.04728 -2.32173 0
M  V30 11901 H 1147.52 -0.206713 -3.42677 0
M  V30 11902 N 1149.96 1.53094 0.37415 0
M  V30 11903 C 1151.19 1.73061 1.143 0
M  V30 11904 C 1151.61 0.454611 1.82524 0
M  V30 11905 O 1150.97 -0.590743 1.71406 0
M  V30 11906 C 1151.02 2.89086 2.15549 0
M  V30 11907 O 1150.12 2.57096 3.22452 0
M  V30 11908 H 1149.46 0.575009 0.332055 0
M  V30 11909 H 1151.99 1.99946 0.433897 0
M  V30 11910 H 1152 3.15007 2.59296 0
M  V30 11911 H 1150.68 3.81647 1.65283 0
M  V30 11912 H 1149.25 2.41965 2.83738 0
M  V30 11913 N 1151.44 -0.633461 1.44309 0
M  V30 11914 C 1152.85 -1.21504 1.41752 0
M  V30 11915 C 1153.2 -1.95758 0.131667 0
M  V30 11916 O 1152.33 -2.02311 -0.768072 0
M  V30 11917 C 1152.92 -2.21005 2.56792 0
M  V30 11918 C 1151.48 -2.74596 2.57438 0
M  V30 11919 C 1150.63 -1.49555 2.33513 0
M  V30 11920 H 1153.58 -0.424277 1.52923 0
M  V30 11921 H 1153.6 -3.03563 2.29412 0
M  V30 11922 H 1153.11 -1.66934 3.50364 0
M  V30 11923 H 1151.21 -3.32676 1.67801 0
M  V30 11924 H 1151.33 -3.20794 3.55849 0
M  V30 11925 H 1149.69 -1.77605 1.82561 0
M  V30 11926 H 1150.47 -0.973899 3.29196 0
M  V30 11927 N 1152.92 -1.31168 -0.873655 0
M  V30 11928 C 1154.33 -1.18584 -1.44203 0
M  V30 11929 C 1154.68 0.209114 -1.95082 0
M  V30 11930 O 1153.81 1.10662 -1.85965 0
M  V30 11931 C 1154.4 -2.14668 -2.62112 0
M  V30 11932 C 1152.96 -2.06029 -3.15006 0
M  V30 11933 C 1152.11 -2.04106 -1.87712 0
M  V30 11934 H 1155.06 -1.43273 -0.682536 0
M  V30 11935 H 1155.08 -1.73413 -3.38686 0
M  V30 11936 H 1154.59 -3.16186 -2.25051 0
M  V30 11937 H 1152.69 -1.07693 -3.56697 0
M  V30 11938 H 1152.8 -2.9496 -3.77539 0
M  V30 11939 H 1151.17 -1.49069 -2.0652 0
M  V30 11940 H 1151.95 -3.07373 -1.52894 0
M  V30 11941 N 1154.4 1.08748 -1.14068 0
M  V30 11942 C 1155.36 2.1375 -0.827266 0
M  V30 11943 C 1156.36 1.59936 0.166496 0
M  V30 11944 O 1157.55 1.74092 -0.0614305 0
M  V30 11945 C 1154.68 3.40106 -0.232557 0
M  V30 11946 H 1155.87 2.42985 -1.7578 0
M  V30 11947 H 1153.43 1.24402 -0.946244 0
M  V30 11948 H 1154.16 3.16503 0.706859 0
M  V30 11949 H 1153.95 3.8046 -0.948293 0
M  V30 11950 H 1155.44 4.17589 -0.0303662 0
M  V30 11951 N 1155.87 0.935264 1.26849 0
M  V30 11952 C 1157.29 0.623198 1.75992 0
M  V30 11953 C 1157.64 -0.861647 1.76267 0
M  V30 11954 O 1156.76 -1.6743 1.37099 0
M  V30 11955 C 1157.36 1.12451 3.19594 0
M  V30 11956 C 1155.92 0.862974 3.66374 0
M  V30 11957 C 1155.06 1.27886 2.4605 0
M  V30 11958 H 1158.01 1.11422 1.13008 0
M  V30 11959 H 1158.03 0.475626 3.77516 0
M  V30 11960 H 1157.55 2.20522 3.19361 0
M  V30 11961 H 1155.65 -0.203606 3.72043 0
M  V30 11962 H 1155.76 1.48582 4.55478 0
M  V30 11963 H 1154.12 0.697335 2.44968 0
M  V30 11964 H 1154.91 2.36837 2.48522 0
M  V30 11965 N 1157.35 -1.41121 0.701616 0
M  V30 11966 C 1158.58 -2.05452 0.244365 0
M  V30 11967 C 1159 -1.5282 -1.10866 0
M  V30 11968 O 1158.35 -0.67893 -1.69401 0
M  V30 11969 C 1158.4 -3.60946 0.200112 0
M  V30 11970 O 1158.12 -4.11632 1.4997 0
M  V30 11971 C 1159.63 -4.42431 -0.277394 0
M  V30 11972 H 1156.85 -0.66151 0.112453 0
M  V30 11973 H 1159.39 -1.80784 0.9559 0
M  V30 11974 H 1157.54 -3.84632 -0.462287 0
M  V30 11975 H 1157.96 -5.05723 1.39084 0
M  V30 11976 H 1159.43 -5.514 -0.257225 0
M  V30 11977 H 1159.91 -4.1898 -1.31728 0
M  V30 11978 H 1160.52 -4.23822 0.354223 0
M  V30 11979 N 1158.83 -0.446794 -1.51134 0
M  V30 11980 C 1160.24 0.0141132 -1.86695 0
M  V30 11981 C 1160.59 1.41095 -1.36333 0
M  V30 11982 O 1159.72 2.04139 -0.718068 0
M  V30 11983 C 1160.31 0.0323866 -3.38785 0
M  V30 11984 C 1158.87 0.437737 -3.73846 0
M  V30 11985 C 1158.02 -0.363436 -2.74908 0
M  V30 11986 H 1160.97 -0.66221 -1.44224 0
M  V30 11987 H 1160.99 0.839865 -3.71115 0
M  V30 11988 H 1160.5 -0.984374 -3.75409 0
M  V30 11989 H 1158.6 1.45975 -3.42815 0
M  V30 11990 H 1158.72 0.155964 -4.78846 0
M  V30 11991 H 1157.08 0.179566 -2.54066 0
M  V30 11992 H 1157.86 -1.37925 -3.14375 0
M  V30 11993 N 1160.31 1.56586 -0.178487 0
M  V30 11994 C 1161.54 2.01475 0.470684 0
M  V30 11995 C 1161.95 1.0587 1.56323 0
M  V30 11996 O 1161.31 0.060749 1.82399 0
M  V30 11997 C 1161.36 3.46145 1.04238 0
M  V30 11998 O 1161.08 4.381 -0.0065582 0
M  V30 11999 C 1162.58 4.06471 1.76908 0
M  V30 12000 H 1159.8 0.660219 0.119801 0
M  V30 12001 H 1162.35 2.02542 -0.282322 0
M  V30 12002 H 1160.5 3.45831 1.74585 0
M  V30 12003 H 1160.91 5.22843 0.416554 0
M  V30 12004 H 1162.39 5.096 2.12161 0
M  V30 12005 H 1162.87 3.48974 2.66672 0
M  V30 12006 H 1163.47 4.10509 1.11186 0
M  V30 12007 N 1161.79 -0.095206 1.57312 0
M  V30 12008 C 1163.2 -0.649733 1.7503 0
M  V30 12009 C 1163.55 -1.7912 0.800652 0
M  V30 12010 O 1162.67 -2.1639 -0.0208831 0
M  V30 12011 C 1163.27 -1.18541 3.17386 0
M  V30 12012 C 1161.83 -1.686 3.36528 0
M  V30 12013 C 1160.97 -0.595531 2.7083 0
M  V30 12014 H 1163.93 0.130863 1.5816 0
M  V30 12015 H 1163.95 -2.05473 3.20252 0
M  V30 12016 H 1163.46 -0.35441 3.86478 0
M  V30 12017 H 1161.56 -2.541 2.72514 0
M  V30 12018 H 1161.67 -1.77907 4.44844 0
M  V30 12019 H 1160.04 -1.03495 2.32725 0
M  V30 12020 H 1160.82 0.224883 3.42563 0
M  V30 12021 N 1163.26 -1.53291 -0.366026 0
M  V30 12022 C 1164.49 -1.73665 -1.13381 0
M  V30 12023 C 1164.91 -0.464284 -1.8228 0
M  V30 12024 O 1164.27 0.581645 -1.71717 0
M  V30 12025 C 1164.32 -2.90225 -2.14013 0
M  V30 12026 O 1163.42 -2.58803 -3.21084 0
M  V30 12027 H 1162.77 -0.576762 -0.329 0
M  V30 12028 H 1165.3 -2.00174 -0.423287 0
M  V30 12029 H 1165.31 -3.16378 -2.57622 0
M  V30 12030 H 1163.98 -3.82518 -1.63257 0
M  V30 12031 H 1162.56 -2.43466 -2.82451 0
M  V30 12032 N 1164.74 0.6258 -1.44643 0
M  V30 12033 C 1166.15 1.20751 -1.42394 0
M  V30 12034 C 1166.5 1.95685 -0.142047 0
M  V30 12035 O 1165.63 2.02715 0.757332 0
M  V30 12036 C 1166.22 2.1964 -2.57961 0
M  V30 12037 C 1164.78 2.73227 -2.5889 0
M  V30 12038 C 1163.93 1.48315 -2.34303 0
M  V30 12039 H 1166.88 0.416162 -1.53146 0
M  V30 12040 H 1166.9 3.02342 -2.31019 0
M  V30 12041 H 1166.41 1.65073 -3.51244 0
M  V30 12042 H 1164.52 3.31782 -1.69563 0
M  V30 12043 H 1164.63 3.18902 -3.57545 0
M  V30 12044 H 1162.99 1.76634 -1.83501 0
M  V30 12045 H 1163.78 0.956427 -3.29708 0
M  V30 12046 N 1166.22 1.31629 0.866686 0
M  V30 12047 C 1167.45 1.24609 1.65793 0
M  V30 12048 C 1167.87 -0.184944 1.87189 0
M  V30 12049 O 1167.23 -1.1322 1.41601 0
M  V30 12050 C 1167.28 1.9988 3.00134 0
M  V30 12051 O 1166.38 1.33838 3.90079 0
M  V30 12052 H 1165.72 0.430051 0.505917 0
M  V30 12053 H 1168.25 1.73752 1.08035 0
M  V30 12054 H 1168.26 2.09599 3.50046 0
M  V30 12055 H 1166.94 3.03947 2.83882 0
M  V30 12056 H 1165.51 1.3259 3.48532 0
M  V30 12057 N 1167.7 -1.08142 1.14644 0
M  V30 12058 C 1168.93 -1.84318 0.939926 0
M  V30 12059 C 1169.34 -1.81735 -0.511636 0
M  V30 12060 O 1168.7 -1.22297 -1.35461 0
M  V30 12061 C 1168.75 -3.31744 1.43625 0
M  V30 12062 O 1168.47 -3.3435 2.83094 0
M  V30 12063 C 1169.97 -4.24717 1.27007 0
M  V30 12064 H 1167.19 -0.581781 0.334323 0
M  V30 12065 H 1169.74 -1.36561 1.52221 0
M  V30 12066 H 1167.89 -3.7688 0.896664 0
M  V30 12067 H 1168.31 -4.26399 3.05425 0
M  V30 12068 H 1169.78 -5.26262 1.66591 0
M  V30 12069 H 1170.26 -4.38682 0.213257 0
M  V30 12070 H 1170.86 -3.85409 1.79833 0
M  V30 12071 N 1169.18 -0.941978 -1.26351 0
M  V30 12072 C 1170.13 -0.443011 -2.28342 0
M  V30 12073 C 1171.12 0.48013 -1.62453 0
M  V30 12074 O 1172.33 0.358255 -1.76399 0
M  V30 12075 H 1168.7 -0.124728 -0.741584 0
M  V30 12076 H 1170.67 -1.31573 -2.67827 0
M  V30 12077 C 1169.42 0.275675 -3.46605 0
M  V30 12078 H 1168.74 -0.425504 -3.97529 0
M  V30 12079 H 1170.18 0.589012 -4.19889 0
M  V30 12080 C 1168.64 1.49376 -3.01974 0
M  V30 12081 O 1169.17 2.59203 -3.06883 0
M  V30 12082 N 1167.38 1.35061 -2.57307 0
M  V30 12083 H 1166.93 0.457045 -2.53513 0
M  V30 12084 H 1166.88 2.16681 -2.27809 0
M  V30 12085 N 1170.66 1.40747 -0.709091 0
M  V30 12086 C 1172.07 1.83955 -0.318968 0
M  V30 12087 C 1172.42 1.59304 1.14527 0
M  V30 12088 O 1171.54 1.07052 1.88066 0
M  V30 12089 C 1172.14 3.33934 -0.572147 0
M  V30 12090 C 1170.7 3.75661 -0.235802 0
M  V30 12091 C 1169.84 2.64024 -0.847743 0
M  V30 12092 H 1172.79 1.30107 -0.908734 0
M  V30 12093 H 1172.82 3.80143 0.164752 0
M  V30 12094 H 1172.33 3.51844 -1.63791 0
M  V30 12095 H 1170.43 3.63348 0.825164 0
M  V30 12096 H 1170.54 4.73955 -0.700263 0
M  V30 12097 H 1168.91 2.53197 -0.276283 0
M  V30 12098 H 1169.69 2.84748 -1.91765 0
M  V30 12099 N 1172.13 0.454803 1.50895 0
M  V30 12100 C 1173.06 -0.337982 2.31041 0
M  V30 12101 C 1174.04 -1.00523 1.37219 0
M  V30 12102 O 1175.23 -1.00553 1.66141 0
M  V30 12103 C 1172.36 -1.42964 3.1651 0
M  V30 12104 C 1171.31 -0.884907 4.18752 0
M  V30 12105 C 1170.64 -2.07363 4.92854 0
M  V30 12106 C 1171.94 0.0926716 5.22218 0
M  V30 12107 H 1173.63 0.33089 2.97566 0
M  V30 12108 H 1171.18 0.160577 1.43102 0
M  V30 12109 H 1173.13 -1.9916 3.71367 0
M  V30 12110 H 1171.86 -2.12705 2.47839 0
M  V30 12111 H 1170.52 -0.345031 3.64973 0
M  V30 12112 H 1170.16 -2.75764 4.2067 0
M  V30 12113 H 1169.86 -1.71545 5.62002 0
M  V30 12114 H 1171.39 -2.6408 5.5054 0
M  V30 12115 H 1172.8 -0.379568 5.72042 0
M  V30 12116 H 1171.2 0.3643 5.98993 0
M  V30 12117 H 1172.27 1.02383 4.73968 0
M  V30 12118 N 1173.61 -1.56489 0.186789 0
M  V30 12119 C 1174.86 -1.97634 -0.454831 0
M  V30 12120 C 1175.19 -1.07334 -1.61843 0
M  V30 12121 O 1174.47 -0.123612 -1.94107 0
M  V30 12122 C 1174.75 -3.48071 -0.922962 0
M  V30 12123 C 1174.6 -4.49149 0.241877 0
M  V30 12124 C 1175.92 -4.01994 -1.79134 0
M  V30 12125 H 1173.04 -0.718555 -0.163854 0
M  V30 12126 H 1175.68 -1.87984 0.27604 0
M  V30 12127 H 1173.83 -3.56425 -1.54575 0
M  V30 12128 H 1175.5 -4.52841 0.87936 0
M  V30 12129 H 1173.75 -4.24468 0.894964 0
M  V30 12130 H 1174.42 -5.51851 -0.128051 0
M  V30 12131 H 1176.89 -3.96367 -1.26618 0
M  V30 12132 H 1175.77 -5.07641 -2.08787 0
M  V30 12133 H 1176.03 -3.46747 -2.74261 0
M  V30 12134 N 1175.09 0.086862 -1.5736 0
M  V30 12135 C 1176.37 0.820984 -1.77537 0
M  V30 12136 C 1176.75 1.96534 -0.770554 0
M  V30 12137 O 1176.09 2.27629 0.199334 0
M  V30 12138 C 1176.3 1.30793 -3.23565 0
M  V30 12139 C 1177.65 1.7474 -3.86977 0
M  V30 12140 O 1178.68 1.40396 -3.27364 0
M  V30 12141 O 1177.54 2.38271 -4.91822 0
M  V30 12142 H 1174.63 0.392228 -0.72807 0
M  V30 12143 H 1177.18 0.0681051 -1.69563 0
M  V30 12144 H 1175.95 0.488409 -3.8824 0
M  V30 12145 H 1175.57 2.12258 -3.36203 0
M  V30 12146 N 1176.57 1.53483 0.357892 0
M  V30 12147 C 1177.5 1.83444 1.44466 0
M  V30 12148 C 1178.48 0.688486 1.55544 0
M  V30 12149 O 1179.66 0.93906 1.69986 0
M  V30 12150 C 1176.79 2.03122 2.81707 0
M  V30 12151 C 1175.75 3.1891 2.85448 0
M  V30 12152 C 1175.07 3.23895 4.25436 0
M  V30 12153 C 1176.37 4.57334 2.52275 0
M  V30 12154 H 1178.07 2.74456 1.19642 0
M  V30 12155 H 1175.61 1.3206 0.574112 0
M  V30 12156 H 1177.57 2.22666 3.57768 0
M  V30 12157 H 1176.29 1.08827 3.07935 0
M  V30 12158 H 1174.95 2.99199 2.11838 0
M  V30 12159 H 1174.6 2.27223 4.48753 0
M  V30 12160 H 1174.3 4.01694 4.28854 0
M  V30 12161 H 1175.82 3.45632 5.0336 0
M  V30 12162 H 1177.24 4.76988 3.1805 0
M  V30 12163 H 1175.63 5.37431 2.66998 0
M  V30 12164 H 1176.7 4.61921 1.47501 0
M  V30 12165 N 1178.05 -0.61812 1.44973 0
M  V30 12166 C 1178.96 -1.7579 1.55355 0
M  V30 12167 C 1179.97 -1.68384 0.438512 0
M  V30 12168 O 1181.15 -1.88928 0.697715 0
M  V30 12169 C 1178.21 -3.1222 1.50729 0
M  V30 12170 C 1177.27 -3.3116 2.73188 0
M  V30 12171 C 1176.51 -4.61082 2.68774 0
M  V30 12172 O 1176.73 -5.42728 1.75507 0
M  V30 12173 O 1175.66 -4.82506 3.59821 0
M  V30 12174 H 1179.49 -1.69983 2.51674 0
M  V30 12175 H 1177.07 -0.780934 1.27365 0
M  V30 12176 H 1178.96 -3.93524 1.5072 0
M  V30 12177 H 1177.63 -3.18541 0.575587 0
M  V30 12178 H 1176.54 -2.49485 2.78762 0
M  V30 12179 H 1177.87 -3.29709 3.65449 0
M  V30 12180 N 1179.52 -1.32087 -0.859693 0
M  V30 12181 C 1180.45 -1.23204 -1.98351 0
M  V30 12182 C 1181.43 -0.116974 -1.69697 0
M  V30 12183 O 1182.62 -0.303301 -1.91817 0
M  V30 12184 C 1179.75 -0.949171 -3.34078 0
M  V30 12185 C 1178.7 -2.02493 -3.77069 0
M  V30 12186 C 1178.03 -1.59455 -5.1037 0
M  V30 12187 C 1179.33 -3.43934 -3.93074 0
M  V30 12188 H 1181.02 -2.17227 -2.0604 0
M  V30 12189 H 1178.57 -1.04577 -0.989931 0
M  V30 12190 H 1180.52 -0.873594 -4.12245 0
M  V30 12191 H 1179.25 0.0267095 -3.26589 0
M  V30 12192 H 1177.91 -2.09057 -3.01149 0
M  V30 12193 H 1177.55 -0.606256 -4.99333 0
M  V30 12194 H 1177.25 -2.31429 -5.40106 0
M  V30 12195 H 1178.78 -1.53325 -5.91036 0
M  V30 12196 H 1180.19 -3.39986 -4.61608 0
M  V30 12197 H 1178.59 -4.14214 -4.3422 0
M  V30 12198 H 1179.66 -3.83965 -2.9614 0
M  V30 12199 N 1181 1.07532 -1.15215 0
M  V30 12200 C 1181.91 2.18222 -0.861192 0
M  V30 12201 C 1182.93 1.73246 0.161798 0
M  V30 12202 O 1184.1 2.01397 -0.0118386 0
M  V30 12203 C 1181.17 3.44902 -0.352601 0
M  V30 12204 C 1180.23 4.04455 -1.43926 0
M  V30 12205 C 1179.46 5.25089 -0.954841 0
M  V30 12206 O 1179.69 5.70048 0.200294 0
M  V30 12207 O 1178.62 5.76269 -1.73774 0
M  V30 12208 H 1182.45 2.45599 -1.78648 0
M  V30 12209 H 1180.03 1.16835 -0.93112 0
M  V30 12210 H 1181.91 4.21333 -0.0753347 0
M  V30 12211 H 1180.59 3.19082 0.544841 0
M  V30 12212 H 1179.49 3.29573 -1.7701 0
M  V30 12213 H 1180.83 4.34544 -2.31155 0
M  V30 12214 N 1182.48 0.948665 1.2585 0
M  V30 12215 C 1183.71 0.616741 1.98018 0
M  V30 12216 C 1184.13 -0.803005 1.70098 0
M  V30 12217 O 1183.49 -1.54208 0.953392 0
M  V30 12218 C 1183.54 0.874429 3.49837 0
M  V30 12219 O 1182.64 -0.0497568 4.1237 0
M  V30 12220 H 1181.98 0.235112 0.620982 0
M  V30 12221 H 1184.51 1.27364 1.60124 0
M  V30 12222 H 1184.52 0.798309 4.00114 0
M  V30 12223 H 1183.2 1.90922 3.69488 0
M  V30 12224 H 1181.77 0.0780591 3.72818 0
M  V30 12225 N 1183.96 -1.40369 0.716545 0
M  V30 12226 C 1185.21 -2.00869 0.256466 0
M  V30 12227 C 1185.53 -1.56816 -1.15061 0
M  V30 12228 O 1184.79 -0.779696 -1.79497 0
M  V30 12229 C 1185.09 -3.56257 0.285583 0
M  V30 12230 C 1184.75 -4.19897 1.64309 0
M  V30 12231 C 1183.42 -4.36994 2.01469 0
M  V30 12232 C 1185.77 -4.55385 2.53524 0
M  V30 12233 C 1183.1 -4.86862 3.27387 0
M  V30 12234 C 1185.45 -5.06653 3.78795 0
M  V30 12235 C 1184.11 -5.21959 4.16071 0
M  V30 12236 H 1183.38 -0.735033 0.0938475 0
M  V30 12237 H 1186.03 -1.67966 0.919765 0
M  V30 12238 H 1184.33 -3.89075 -0.461287 0
M  V30 12239 H 1186.03 -4.00903 -0.0882496 0
M  V30 12240 H 1182.62 -4.06978 1.34413 0
M  V30 12241 H 1186.8 -4.41811 2.2609 0
M  V30 12242 H 1182.06 -4.96897 3.56235 0
M  V30 12243 H 1186.23 -5.33089 4.48095 0
M  V30 12244 H 1183.86 -5.60362 5.1371 0
M  V30 12245 N 1185.44 -0.462799 -1.50652 0
M  V30 12246 C 1186.38 0.335664 -2.28346 0
M  V30 12247 C 1187.35 0.994541 -1.33034 0
M  V30 12248 O 1188.54 1.00857 -1.61964 0
M  V30 12249 C 1185.68 1.41648 -3.1469 0
M  V30 12250 C 1184.79 0.773207 -4.25024 0
M  V30 12251 C 1183.93 1.83121 -4.98638 0
M  V30 12252 C 1182.97 1.16774 -6.00858 0
M  V30 12253 N 1182.1 2.16823 -6.67782 0
M  V30 12254 H 1186.94 -0.333202 -2.96131 0
M  V30 12255 H 1184.48 -0.176166 -1.46041 0
M  V30 12256 H 1186.44 2.05468 -3.63096 0
M  V30 12257 H 1185.07 2.05462 -2.48968 0
M  V30 12258 H 1184.12 0.0226444 -3.80393 0
M  V30 12259 H 1185.43 0.249061 -4.98178 0
M  V30 12260 H 1184.59 2.54543 -5.5072 0
M  V30 12261 H 1183.32 2.38915 -4.25172 0
M  V30 12262 H 1182.33 0.439112 -5.48044 0
M  V30 12263 H 1183.55 0.616809 -6.76293 0
M  V30 12264 H 1181.5 2.71649 -5.97112 0
M  V30 12265 H 1181.42 1.69371 -7.36783 0
M  V30 12266 H 1182.69 2.8765 -7.24484 0
M  V30 12267 N 1186.91 1.56388 -0.195085 0
M  V30 12268 C 1187.86 2.19091 0.725793 0
M  V30 12269 C 1188.83 1.13814 1.20977 0
M  V30 12270 O 1190.02 1.42065 1.27366 0
M  V30 12271 C 1187.16 2.85427 1.93973 0
M  V30 12272 C 1186.27 4.05229 1.49712 0
M  V30 12273 C 1185.4 4.59421 2.66656 0
M  V30 12274 C 1184.44 5.71581 2.19001 0
M  V30 12275 N 1183.58 6.2018 3.29123 0
M  V30 12276 H 1188.42 2.97429 0.184334 0
M  V30 12277 H 1185.96 1.46886 0.0792434 0
M  V30 12278 H 1187.92 3.22057 2.65208 0
M  V30 12279 H 1186.55 2.09652 2.4545 0
M  V30 12280 H 1185.6 3.74261 0.680641 0
M  V30 12281 H 1186.91 4.8635 1.10749 0
M  V30 12282 H 1186.06 4.98357 3.46014 0
M  V30 12283 H 1184.8 3.77407 3.08893 0
M  V30 12284 H 1183.81 5.32174 1.38097 0
M  V30 12285 H 1185.03 6.55413 1.77795 0
M  V30 12286 H 1182.98 5.41088 3.70891 0
M  V30 12287 H 1182.9 6.96353 2.94328 0
M  V30 12288 H 1184.16 6.63769 4.08694 0
M  V30 12289 N 1188.39 -0.0785156 1.57404 0
M  V30 12290 C 1189.67 -0.811557 1.77969 0
M  V30 12291 C 1190.05 -1.96123 0.780966 0
M  V30 12292 O 1189.4 -2.27731 -0.18726 0
M  V30 12293 C 1189.61 -1.29075 3.24254 0
M  V30 12294 C 1190.96 -1.72685 3.87898 0
M  V30 12295 O 1191.98 -1.38658 3.28104 0
M  V30 12296 O 1190.84 -2.3566 4.93079 0
M  V30 12297 H 1187.93 -0.388361 0.73014 0
M  V30 12298 H 1190.48 -0.0591118 1.69597 0
M  V30 12299 H 1189.25 -0.467813 3.88494 0
M  V30 12300 H 1188.87 -2.10472 3.37324 0
M  V30 12301 N 1189.87 -1.5367 -0.349747 0
M  V30 12302 C 1191.28 -1.62135 -0.925704 0
M  V30 12303 C 1191.63 -0.498725 -1.89756 0
M  V30 12304 O 1190.76 0.372481 -2.1317 0
M  V30 12305 C 1191.35 -2.93885 -1.68573 0
M  V30 12306 C 1189.91 -3.04632 -2.2108 0
M  V30 12307 C 1189.06 -2.57541 -1.02801 0
M  V30 12308 H 1192.01 -1.58182 -0.128065 0
M  V30 12309 H 1192.03 -2.82577 -2.54815 0
M  V30 12310 H 1191.54 -3.75571 -0.978153 0
M  V30 12311 H 1189.64 -2.27567 -2.95032 0
M  V30 12312 H 1189.76 -4.09993 -2.47876 0
M  V30 12313 H 1188.12 -2.12798 -1.39962 0
M  V30 12314 H 1188.9 -3.4166 -0.335157 0
M  V30 12315 N 1191.35 0.610423 -1.45298 0
M  V30 12316 C 1192.76 0.930872 -1.29642 0
M  V30 12317 C 1192.96 1.99976 -0.247358 0
M  V30 12318 O 1192.02 2.49925 0.359674 0
M  V30 12319 C 1193.33 1.37449 -2.67448 0
M  V30 12320 C 1194.88 1.48885 -2.75322 0
M  V30 12321 C 1195.36 1.96624 -4.13646 0
M  V30 12322 N 1196.85 2.03862 -4.15926 0
M  V30 12323 C 1197.58 2.42015 -5.19823 0
M  V30 12324 N 1197.08 2.79157 -6.34069 0
M  V30 12325 N 1198.87 2.42329 -5.07181 0
M  V30 12326 H 1191.02 -0.0961259 -2.12182 0
M  V30 12327 H 1193.29 0.0196483 -0.947796 0
M  V30 12328 H 1192.99 0.663276 -3.45389 0
M  V30 12329 H 1192.87 2.34155 -2.95721 0
M  V30 12330 H 1195.25 2.19098 -1.97686 0
M  V30 12331 H 1195.33 0.505006 -2.50765 0
M  V30 12332 H 1194.98 1.26998 -4.91766 0
M  V30 12333 H 1194.91 2.95917 -4.35592 0
M  V30 12334 H 1197.4 1.77759 -3.33482 0
M  V30 12335 H 1197.71 3.07143 -7.09142 0
M  V30 12336 H 1196.06 2.7686 -6.37474 0
M  V30 12337 H 1199.25 2.12717 -4.16976 0
M  V30 12338 H 1199.42 2.71738 -5.88271 0
M  V30 12339 N 1192.83 1.32541 0.852676 0
M  V30 12340 C 1193.76 1.17471 1.96807 0
M  V30 12341 C 1194.77 0.109198 1.62433 0
M  V30 12342 O 1195.96 0.358342 1.74866 0
M  V30 12343 C 1193.06 0.776328 3.29888 0
M  V30 12344 C 1192.23 1.93055 3.9249 0
M  V30 12345 C 1191.29 1.51539 5.03907 0
M  V30 12346 O 1190.32 2.22771 5.23796 0
M  V30 12347 N 1191.52 0.412533 5.79032 0
M  V30 12348 H 1194.29 2.13551 2.10276 0
M  V30 12349 H 1191.85 1.25104 1.02764 0
M  V30 12350 H 1193.84 0.48096 4.01832 0
M  V30 12351 H 1192.41 -0.0933749 3.12461 0
M  V30 12352 H 1191.63 2.39231 3.13309 0
M  V30 12353 H 1192.92 2.70321 4.3105 0
M  V30 12354 H 1192.31 -0.180286 5.65413 0
M  V30 12355 H 1190.87 0.17678 6.5156 0
M  V30 12356 N 1194.3 -1.0692 1.15784 0
M  V30 12357 C 1195.53 -1.83849 0.959903 0
M  V30 12358 C 1195.95 -1.8169 -0.486873 0
M  V30 12359 O 1195.31 -1.21305 -1.34739 0
M  V30 12360 C 1195.36 -3.28642 1.48414 0
M  V30 12361 O 1194.46 -4.0665 0.686249 0
M  V30 12362 H 1193.81 -0.569115 0.342059 0
M  V30 12363 H 1196.34 -1.34851 1.53871 0
M  V30 12364 H 1196.35 -3.7947 1.49888 0
M  V30 12365 H 1195.02 -3.29529 2.53739 0
M  V30 12366 H 1193.6 -3.65453 0.741501 0
M  V30 12367 N 1195.78 -0.955326 -1.25345 0
M  V30 12368 C 1196.71 -0.494145 -2.28211 0
M  V30 12369 C 1197.69 0.459875 -1.63766 0
M  V30 12370 O 1198.88 0.358679 -1.90859 0
M  V30 12371 C 1196.01 0.228228 -3.46549 0
M  V30 12372 C 1194.96 -0.640601 -4.23179 0
M  V30 12373 C 1194.29 0.212553 -5.34277 0
M  V30 12374 C 1195.59 -1.91906 -4.85767 0
M  V30 12375 H 1197.28 -1.35391 -2.67039 0
M  V30 12376 H 1194.83 -0.652462 -1.2837 0
M  V30 12377 H 1196.78 0.561995 -4.17636 0
M  V30 12378 H 1195.51 1.12224 -3.06714 0
M  V30 12379 H 1194.16 -0.957462 -3.53876 0
M  V30 12380 H 1193.81 1.10634 -4.90682 0
M  V30 12381 H 1193.51 -0.365473 -5.86462 0
M  V30 12382 H 1195.04 0.541271 -6.08196 0
M  V30 12383 H 1196.45 -1.65165 -5.48993 0
M  V30 12384 H 1194.85 -2.44279 -5.48131 0
M  V30 12385 H 1195.92 -2.62173 -4.07914 0
M  V30 12386 N 1197.26 1.39987 -0.723979 0
M  V30 12387 C 1198.49 2.05037 -0.27702 0
M  V30 12388 C 1198.9 1.54565 1.08421 0
M  V30 12389 O 1198.26 0.705795 1.683 0
M  V30 12390 C 1198.31 3.60582 -0.25751 0
M  V30 12391 O 1198.03 4.09194 -1.565 0
M  V30 12392 C 1199.53 4.42817 0.206972 0
M  V30 12393 H 1196.75 0.659637 -0.122963 0
M  V30 12394 H 1199.3 1.7924 -0.98454 0
M  V30 12395 H 1197.45 3.85319 0.401037 0
M  V30 12396 H 1197.87 5.03447 -1.47112 0
M  V30 12397 H 1199.34 5.5174 0.16947 0
M  V30 12398 H 1199.82 4.21023 1.25045 0
M  V30 12399 H 1200.42 4.23205 -0.421604 0
M  V30 12400 N 1198.74 0.470782 1.50404 0
M  V30 12401 C 1200.15 0.0155901 1.86693 0
M  V30 12402 C 1200.5 -1.38908 1.38561 0
M  V30 12403 O 1199.63 -2.02971 0.750454 0
M  V30 12404 C 1200.22 0.0215152 3.38793 0
M  V30 12405 C 1198.78 -0.378206 3.74495 0
M  V30 12406 C 1197.93 0.407126 2.74295 0
M  V30 12407 H 1200.88 0.68507 1.43152 0
M  V30 12408 H 1200.9 -0.780717 3.72404 0
M  V30 12409 H 1200.41 1.04397 3.73795 0
M  V30 12410 H 1198.51 -1.40503 3.45094 0
M  V30 12411 H 1198.63 -0.0797643 4.79034 0
M  V30 12412 H 1196.99 -0.139123 2.5432 0
M  V30 12413 H 1197.77 1.42909 3.12141 0
M  V30 12414 N 1200.22 -1.56282 0.203376 0
M  V30 12415 C 1201.45 -2.02198 -0.438572 0
M  V30 12416 C 1201.86 -1.08343 -1.54619 0
M  V30 12417 O 1201.22 -0.0897594 -1.82279 0
M  V30 12418 C 1201.27 -3.4776 -0.987184 0
M  V30 12419 O 1200.99 -4.38034 0.0762552 0
M  V30 12420 C 1202.49 -4.09234 -1.70419 0
M  V30 12421 H 1199.71 -0.662041 -0.109282 0
M  V30 12422 H 1202.25 -2.02067 0.314509 0
M  V30 12423 H 1200.41 -3.48564 -1.69061 0
M  V30 12424 H 1200.82 -5.2344 -0.333322 0
M  V30 12425 H 1202.3 -5.1291 -2.04027 0
M  V30 12426 H 1202.77 -3.53172 -2.61087 0
M  V30 12427 H 1203.38 -4.12226 -1.04641 0
M  V30 12428 N 1201.7 0.070167 -1.57444 0
M  V30 12429 C 1202.65 1.09016 -2.00249 0
M  V30 12430 C 1203.63 1.34387 -0.884809 0
M  V30 12431 O 1204.82 1.34661 -1.14872 0
M  V30 12432 C 1201.95 2.40344 -2.45132 0
M  V30 12433 C 1201.04 2.1824 -3.63637 0
M  V30 12434 N 1201.43 1.6607 -4.7776 0
M  V30 12435 C 1199.73 2.48706 -3.70218 0
M  V30 12436 C 1200.43 1.58819 -5.59599 0
M  V30 12437 N 1199.4 2.04928 -5.03493 0
M  V30 12438 H 1203.2 0.680143 -2.85922 0
M  V30 12439 H 1200.72 0.277212 -1.60017 0
M  V30 12440 H 1202.72 3.1418 -2.74037 0
M  V30 12441 H 1201.38 2.82061 -1.60846 0
M  V30 12442 H 1202.39 1.34911 -5.00019 0
M  V30 12443 H 1199.06 2.93778 -2.96649 0
M  V30 12444 H 1200.45 1.19323 -6.6122 0
M  V30 12445 N 1203.17 1.53854 0.341593 0
M  V30 12446 C 1204.42 1.71447 1.08322 0
M  V30 12447 C 1204.75 0.477289 1.88243 0
M  V30 12448 O 1204.03 -0.525695 1.87261 0
M  V30 12449 C 1204.31 2.97917 2.02281 0
M  V30 12450 C 1204.16 4.31847 1.25809 0
M  V30 12451 C 1205.48 3.20065 3.0207 0
M  V30 12452 H 1202.6 0.623847 0.392408 0
M  V30 12453 H 1205.24 1.86527 0.361594 0
M  V30 12454 H 1203.39 2.85191 2.63815 0
M  V30 12455 H 1205.07 4.56427 0.668737 0
M  V30 12456 H 1203.31 4.30169 0.560119 0
M  V30 12457 H 1203.98 5.16522 1.94704 0
M  V30 12458 H 1206.46 3.32135 2.50651 0
M  V30 12459 H 1205.33 4.09947 3.65013 0
M  V30 12460 H 1205.59 2.36452 3.73554 0
M  V30 12461 N 1204.65 -0.602709 1.4562 0
M  V30 12462 C 1205.88 -1.3881 1.53426 0
M  V30 12463 C 1206.29 -1.88046 0.16851 0
M  V30 12464 O 1205.65 -1.62493 -0.830791 0
M  V30 12465 C 1205.7 -2.58927 2.52268 0
M  V30 12466 O 1205.42 -2.11735 3.83536 0
M  V30 12467 C 1206.92 -3.51728 2.69819 0
M  V30 12468 H 1204.14 -0.424744 0.519455 0
M  V30 12469 H 1206.69 -0.73459 1.90851 0
M  V30 12470 H 1204.84 -3.20309 2.17902 0
M  V30 12471 H 1205.26 -2.89814 4.37159 0
M  V30 12472 H 1206.73 -4.32542 3.42945 0
M  V30 12473 H 1207.21 -4.02383 1.76024 0
M  V30 12474 H 1207.81 -2.96196 3.05202 0
M  V30 12475 N 1206.13 -1.32992 -0.845635 0
M  V30 12476 C 1207.09 -1.22607 -1.9365 0
M  V30 12477 C 1208.09 -0.146812 -1.60128 0
M  V30 12478 O 1209.28 -0.397863 -1.69596 0
M  V30 12479 C 1206.41 -0.887677 -3.2914 0
M  V30 12480 H 1207.61 -2.19563 -2.04285 0
M  V30 12481 H 1205.16 -1.16952 -1.03691 0
M  V30 12482 H 1205.9 0.0796777 -3.24202 0
M  V30 12483 H 1205.68 -1.66808 -3.54849 0
M  V30 12484 H 1207.17 -0.83958 -4.09073 0
M  V30 12485 N 1207.61 1.06304 -1.1635 0
M  V30 12486 C 1208.57 2.11947 -0.872419 0
M  V30 12487 C 1209.57 1.60253 0.132534 0
M  V30 12488 O 1210.76 1.73922 -0.0983441 0
M  V30 12489 C 1207.89 3.39536 -0.304646 0
M  V30 12490 H 1209.09 2.39201 -1.80894 0
M  V30 12491 H 1206.64 1.22367 -0.972419 0
M  V30 12492 H 1207.37 3.17931 0.639565 0
M  V30 12493 H 1207.16 3.78363 -1.02878 0
M  V30 12494 H 1208.65 4.17431 -0.118936 0
M  V30 12495 N 1209.09 0.96196 1.24836 0
M  V30 12496 C 1210.33 0.628484 1.94498 0
M  V30 12497 C 1210.69 -0.820337 1.73593 0
M  V30 12498 O 1211.89 -1.26376 2.37239 0
M  V30 12499 C 1210.16 0.986119 3.43527 0
M  V30 12500 S 1211.72 0.766324 4.32057 0
M  V30 12501 H 1208.54 0.230758 0.672511 0
M  V30 12502 H 1211.14 1.23769 1.51332 0
M  V30 12503 H 1209.84 2.03756 3.56247 0
M  V30 12504 H 1209.38 0.367454 3.9168 0
M  V30 12505 H 1211.39 -0.359227 4.94898 0
M  V30 12506 N 1210.56 -1.39601 0.731392 0
M  V30 12507 C 1211.53 -2.28992 0.0976037 0
M  V30 12508 C 1212.53 -1.46135 -0.670917 0
M  V30 12509 O 1213.72 -1.66856 -0.50047 0
M  V30 12510 C 1210.85 -3.29582 -0.871124 0
M  V30 12511 H 1212.04 -2.86541 0.885112 0
M  V30 12512 H 1209.59 -1.48188 0.497002 0
M  V30 12513 H 1210.33 -2.77082 -1.68512 0
M  V30 12514 H 1210.11 -3.9077 -0.322735 0
M  V30 12515 H 1211.6 -3.96479 -1.31126 0
M  V30 12516 N 1212.04 -0.478751 -1.50152 0
M  V30 12517 C 1213.29 0.073694 -2.02666 0
M  V30 12518 C 1213.62 1.38679 -1.35947 0
M  V30 12519 O 1212.9 1.88286 -0.4877 0
M  V30 12520 C 1213.18 0.249516 -3.59235 0
M  V30 12521 C 1213.03 -1.08514 -4.36514 0
M  V30 12522 C 1214.35 1.00053 -4.28576 0
M  V30 12523 H 1211.47 0.0253082 -0.736565 0
M  V30 12524 H 1214.11 -0.625834 -1.79397 0
M  V30 12525 H 1212.26 0.845343 -3.79192 0
M  V30 12526 H 1213.93 -1.71814 -4.28109 0
M  V30 12527 H 1212.18 -1.67992 -3.99952 0
M  V30 12528 H 1212.85 -0.915676 -5.44352 0
M  V30 12529 H 1215.32 0.495422 -4.1314 0
M  V30 12530 H 1214.2 1.09236 -5.37921 0
M  V30 12531 H 1214.46 2.03896 -3.92274 0
M  V30 12532 N 1213.52 1.56172 -0.211661 0
M  V30 12533 C 1214.75 2.02874 0.430905 0
M  V30 12534 C 1215.17 1.09064 1.53254 0
M  V30 12535 O 1214.53 0.0770408 1.81136 0
M  V30 12536 C 1214.58 3.4789 0.948933 0
M  V30 12537 O 1213.68 3.57213 2.0609 0
M  V30 12538 H 1213.02 0.656614 0.0987607 0
M  V30 12539 H 1215.55 2.01964 -0.327399 0
M  V30 12540 H 1215.56 3.88015 1.2613 0
M  V30 12541 H 1214.24 4.15656 0.142584 0
M  V30 12542 H 1212.81 3.28971 1.75592 0
M  V30 12543 N 1215 -0.0618163 1.57479 0
M  V30 12544 C 1216.41 -0.416827 1.54061 0
M  V30 12545 C 1216.61 -1.78584 0.933277 0
M  V30 12546 O 1215.67 -2.46656 0.54009 0
M  V30 12547 C 1216.98 -0.348728 2.98671 0
M  V30 12548 C 1218.53 -0.428194 3.10057 0
M  V30 12549 C 1219.01 -0.389898 4.56337 0
M  V30 12550 N 1220.5 -0.449677 4.61012 0
M  V30 12551 C 1221.23 -0.442418 5.71691 0
M  V30 12552 N 1220.73 -0.389381 6.91705 0
M  V30 12553 N 1222.52 -0.489719 5.59963 0
M  V30 12554 H 1214.67 0.834487 1.9532 0
M  V30 12555 H 1216.94 0.314149 0.894435 0
M  V30 12556 H 1216.64 0.590738 3.46703 0
M  V30 12557 H 1216.52 -1.15511 3.59078 0
M  V30 12558 H 1218.9 -1.35808 2.61992 0
M  V30 12559 H 1218.98 0.406946 2.52542 0
M  V30 12560 H 1218.63 0.536186 5.05062 0
M  V30 12561 H 1218.56 -1.24271 5.11727 0
M  V30 12562 H 1221.05 -0.49451 3.74651 0
M  V30 12563 H 1221.36 -0.388042 7.71825 0
M  V30 12564 H 1219.71 -0.355918 6.94088 0
M  V30 12565 H 1222.9 -0.528915 4.65102 0
M  V30 12566 H 1223.07 -0.480592 6.46215 0
M  V30 12567 N 1216.48 -1.54033 -0.333429 0
M  V30 12568 C 1217.72 -1.71426 -1.0704 0
M  V30 12569 C 1218.05 -0.485496 -1.8886 0
M  V30 12570 O 1217.32 0.500555 -1.89397 0
M  V30 12571 H 1215.9 -0.632034 -0.398173 0
M  V30 12572 H 1218.56 -1.91312 -0.372252 0
M  V30 12573 H 1217.65 -2.58958 -1.74205 0
M  V30 12574 N 1217.95 0.594978 -1.45938 0
M  V30 12575 C 1218.9 1.69949 -1.51991 0
M  V30 12576 C 1219.89 1.56301 -0.381956 0
M  V30 12577 O 1221.08 1.65423 -0.62961 0
M  V30 12578 C 1218.21 3.08723 -1.5015 0
M  V30 12579 C 1217.3 3.27712 -2.69194 0
M  V30 12580 N 1217.69 3.1691 -3.9421 0
M  V30 12581 C 1215.98 3.58618 -2.65158 0
M  V30 12582 C 1216.69 3.37572 -4.7373 0
M  V30 12583 N 1215.66 3.62154 -4.05395 0
M  V30 12584 H 1219.46 1.60109 -2.46459 0
M  V30 12585 H 1216.98 0.798634 -1.41406 0
M  V30 12586 H 1218.97 3.87978 -1.52573 0
M  V30 12587 H 1217.63 3.19702 -0.567488 0
M  V30 12588 H 1218.65 2.95039 -4.25643 0
M  V30 12589 H 1215.32 3.76358 -1.80724 0
M  V30 12590 H 1216.71 3.34507 -5.82713 0
M  V30 12591 N 1219.43 1.33438 0.838571 0
M  V30 12592 C 1220.85 1.12779 1.12929 0
M  V30 12593 C 1221.05 -0.0811188 2.01337 0
M  V30 12594 O 1220.1 -0.761294 2.4075 0
M  V30 12595 C 1221.42 2.41537 1.7911 0
M  V30 12596 C 1222.97 2.47447 1.91674 0
M  V30 12597 C 1223.44 3.76167 2.6127 0
M  V30 12598 N 1224.93 3.7724 2.68783 0
M  V30 12599 C 1225.67 4.7355 3.23323 0
M  V30 12600 N 1225.16 5.80235 3.78549 0
M  V30 12601 N 1226.96 4.61025 3.21578 0
M  V30 12602 H 1219.11 2.10921 0.250187 0
M  V30 12603 H 1221.37 0.931986 0.17351 0
M  V30 12604 H 1221.08 3.30006 1.21609 0
M  V30 12605 H 1220.95 2.53709 2.79127 0
M  V30 12606 H 1223.34 1.59427 2.48328 0
M  V30 12607 H 1223.42 2.39216 0.906058 0
M  V30 12608 H 1223.06 4.64569 2.05275 0
M  V30 12609 H 1222.99 3.81675 3.62811 0
M  V30 12610 H 1225.48 3.00138 2.29621 0
M  V30 12611 H 1225.8 6.49759 4.1837 0
M  V30 12612 H 1224.14 5.83969 3.76836 0
M  V30 12613 H 1227.33 3.76836 2.77691 0
M  V30 12614 H 1227.5 5.36253 3.63781 0
M  V30 12615 N 1220.91 -1.05686 1.16912 0
M  V30 12616 C 1222.33 -1.30744 0.915327 0
M  V30 12617 C 1222.53 -1.96895 -0.428344 0
M  V30 12618 O 1221.58 -2.23941 -1.16647 0
M  V30 12619 C 1222.9 -2.18209 2.06894 0
M  V30 12620 C 1224.44 -2.31607 2.1054 0
M  V30 12621 C 1224.92 -3.2243 3.25273 0
M  V30 12622 N 1226.41 -3.30015 3.2503 0
M  V30 12623 C 1227.14 -4.00401 4.10447 0
M  V30 12624 N 1226.64 -4.73256 5.05965 0
M  V30 12625 N 1228.43 -3.96514 3.98413 0
M  V30 12626 H 1220.58 -0.611449 2.03409 0
M  V30 12627 H 1222.85 -0.332188 0.887894 0
M  V30 12628 H 1222.55 -1.76887 3.0398 0
M  V30 12629 H 1222.43 -3.18823 2.01573 0
M  V30 12630 H 1224.81 -2.72173 1.14044 0
M  V30 12631 H 1224.9 -1.30639 2.19925 0
M  V30 12632 H 1224.54 -2.82579 4.22032 0
M  V30 12633 H 1224.47 -4.23392 3.13125 0
M  V30 12634 H 1226.96 -2.781 2.55869 0
M  V30 12635 H 1227.27 -5.24509 5.67547 0
M  V30 12636 H 1225.62 -4.72215 5.09939 0
M  V30 12637 H 1228.81 -3.38719 3.2309 0
M  V30 12638 H 1228.98 -4.511 4.65202 0
M  V30 12639 N 1222.39 -0.968567 -1.24324 0
M  V30 12640 C 1223.62 -0.648568 -1.96472 0
M  V30 12641 C 1224.03 0.782168 -1.71836 0
M  V30 12642 O 1223.39 1.5249 -1.00265 0
M  V30 12643 C 1223.44 -0.91482 -3.49733 0
M  V30 12644 O 1223.16 -2.28931 -3.73527 0
M  V30 12645 C 1224.66 -0.609131 -4.39095 0
M  V30 12646 H 1221.88 -0.241921 -0.625872 0
M  V30 12647 H 1224.43 -1.29673 -1.5813 0
M  V30 12648 H 1222.58 -0.31285 -3.86135 0
M  V30 12649 H 1222.99 -2.36998 -4.67902 0
M  V30 12650 H 1224.47 -0.845875 -5.4548 0
M  V30 12651 H 1224.95 0.456625 -4.3682 0
M  V30 12652 H 1225.55 -1.19105 -4.08282 0
M  V30 12653 N 1223.87 1.39211 -0.738786 0
M  V30 12654 C 1225.28 1.83237 -0.357916 0
M  V30 12655 C 1225.63 1.61698 1.11123 0
M  V30 12656 O 1224.75 1.11017 1.85753 0
M  V30 12657 C 1225.35 3.32645 -0.64285 0
M  V30 12658 C 1223.91 3.75076 -0.315432 0
M  V30 12659 C 1223.05 2.62166 -0.903556 0
M  V30 12660 H 1226.01 1.2815 -0.936127 0
M  V30 12661 H 1226.03 3.80407 0.0840812 0
M  V30 12662 H 1225.54 3.4829 -1.71218 0
M  V30 12663 H 1223.64 3.65017 0.747907 0
M  V30 12664 H 1223.75 4.72363 -0.800638 0
M  V30 12665 H 1222.12 2.52554 -0.329927 0
M  V30 12666 H 1222.9 2.80616 -1.97761 0
M  V30 12667 N 1225.34 0.486708 1.49896 0
M  V30 12668 C 1226.57 -0.0622999 2.07306 0
M  V30 12669 C 1226.99 -1.31353 1.3464 0
M  V30 12670 O 1226.35 -1.76861 0.398752 0
M  V30 12671 C 1226.4 -0.313481 3.59235 0
M  V30 12672 O 1225.5 -1.39101 3.88233 0
M  V30 12673 H 1224.85 0.0198885 0.663702 0
M  V30 12674 H 1227.38 0.682232 1.92891 0
M  V30 12675 H 1227.39 -0.549302 4.04285 0
M  V30 12676 H 1226.06 0.600767 4.11538 0
M  V30 12677 H 1224.64 -1.14127 3.55006 0
M  V30 12678 N 1226.82 -1.56058 0.219941 0
M  V30 12679 C 1228.1 -1.90087 -0.46112 0
M  V30 12680 C 1228.48 -1.13705 -1.77861 0
M  V30 12681 O 1227.83 -0.245868 -2.27173 0
M  V30 12682 C 1228.04 -3.42786 -0.655644 0
M  V30 12683 C 1229.39 -4.13517 -0.963803 0
M  V30 12684 O 1230.41 -3.48376 -0.742488 0
M  V30 12685 O 1229.27 -5.28692 -1.38374 0
M  V30 12686 H 1226.36 -0.790311 -0.243595 0
M  V30 12687 H 1228.91 -1.67665 0.262005 0
M  V30 12688 H 1227.68 -3.90341 0.273738 0
M  V30 12689 H 1227.3 -3.70982 -1.43032 0
M  V30 12690 N 1228.3 0.053464 -1.57509 0
M  V30 12691 C 1229.55 0.747622 -1.87763 0
M  V30 12692 C 1229.87 1.77178 -0.814433 0
M  V30 12693 O 1229.14 1.95287 0.154862 0
M  V30 12694 H 1227.72 0.279109 -0.692898 0
M  V30 12695 H 1230.38 0.0252006 -1.94884 0
M  V30 12696 H 1229.48 1.25244 -2.85868 0
M  V30 12697 N 1229.78 1.54207 0.325255 0
M  V30 12698 C 1230.74 1.82757 1.38321 0
M  V30 12699 C 1231.74 0.699312 1.44797 0
M  V30 12700 O 1232.93 0.96762 1.44854 0
M  V30 12701 C 1230.06 1.98608 2.7707 0
M  V30 12702 H 1231.26 2.7728 1.14261 0
M  V30 12703 H 1228.81 1.45899 0.560647 0
M  V30 12704 H 1229.55 1.0629 3.06387 0
M  V30 12705 H 1229.33 2.80707 2.73763 0
M  V30 12706 H 1230.82 2.2215 3.53609 0
M  V30 12707 N 1231.26 -0.58723 1.46251 0
M  V30 12708 C 1232.19 -1.70694 1.5933 0
M  V30 12709 C 1233.17 -1.64208 0.443831 0
M  V30 12710 O 1234.35 -1.82294 0.669516 0
M  V30 12711 C 1231.48 -3.0933 1.579 0
M  V30 12712 C 1230.44 -3.30643 2.7177 0
M  V30 12713 C 1229.76 -4.69761 2.554 0
M  V30 12714 C 1231.06 -3.18916 4.1363 0
M  V30 12715 H 1232.76 -1.60004 2.53059 0
M  V30 12716 H 1230.3 -0.768343 1.21789 0
M  V30 12717 H 1232.26 -3.87479 1.65644 0
M  V30 12718 H 1230.98 -3.20907 0.60712 0
M  V30 12719 H 1229.64 -2.54892 2.63488 0
M  V30 12720 H 1229.29 -4.78098 1.56306 0
M  V30 12721 H 1228.99 -4.84974 3.31774 0
M  V30 12722 H 1230.51 -5.50084 2.65028 0
M  V30 12723 H 1231.93 -3.86915 4.23048 0
M  V30 12724 H 1230.32 -3.45653 4.90555 0
M  V30 12725 H 1231.39 -2.1606 4.34104 0
M  V30 12726 N 1232.74 -1.33881 -0.831482 0
M  V30 12727 C 1233.98 -1.25507 -1.58406 0
M  V30 12728 C 1234.3 0.177137 -1.94194 0
M  V30 12729 O 1233.57 1.10769 -1.61576 0
M  V30 12730 H 1232.15 -0.461551 -0.587349 0
M  V30 12731 H 1234.82 -1.6769 -0.99328 0
M  V30 12732 H 1233.91 -1.85391 -2.51071 0
M  V30 12733 N 1234.21 1.05064 -1.1747 0
M  V30 12734 C 1235.15 2.12842 -0.850344 0
M  V30 12735 C 1236.16 1.62128 0.147796 0
M  V30 12736 O 1237.35 1.78327 -0.0786774 0
M  V30 12737 C 1234.45 3.37995 -0.247486 0
M  V30 12738 C 1233.62 4.17981 -1.28881 0
M  V30 12739 C 1232.68 5.21476 -0.703476 0
M  V30 12740 O 1231.71 5.52327 -1.37561 0
M  V30 12741 N 1232.91 5.78309 0.50387 0
M  V30 12742 H 1235.67 2.41264 -1.77797 0
M  V30 12743 H 1233.23 1.21172 -1.07373 0
M  V30 12744 H 1235.23 4.04394 0.157424 0
M  V30 12745 H 1233.8 3.07097 0.583952 0
M  V30 12746 H 1233.02 3.47054 -1.86942 0
M  V30 12747 H 1234.3 4.6822 -1.99116 0
M  V30 12748 H 1233.7 5.5553 1.06787 0
M  V30 12749 H 1232.26 6.46223 0.850828 0
M  V30 12750 N 1235.69 0.975146 1.23809 0
M  V30 12751 C 1237.11 0.682899 1.44252 0
M  V30 12752 C 1237.31 -0.752739 1.86912 0
M  V30 12753 O 1236.36 -1.52579 2.01186 0
M  V30 12754 C 1237.68 1.67335 2.49839 0
M  V30 12755 C 1239.22 1.6868 2.63659 0
M  V30 12756 C 1239.7 2.66542 3.72451 0
M  V30 12757 N 1241.19 2.65028 3.79887 0
M  V30 12758 C 1241.93 3.37421 4.63611 0
M  V30 12759 N 1241.42 4.19355 5.51465 0
M  V30 12760 N 1243.21 3.2621 4.57759 0
M  V30 12761 H 1235.37 1.9026 0.94418 0
M  V30 12762 H 1237.63 0.819543 0.476502 0
M  V30 12763 H 1237.33 2.69978 2.25399 0
M  V30 12764 H 1237.21 1.45201 3.48133 0
M  V30 12765 H 1239.6 0.667438 2.87453 0
M  V30 12766 H 1239.68 1.94878 1.65699 0
M  V30 12767 H 1239.32 3.68617 3.49405 0
M  V30 12768 H 1239.25 2.3762 4.69941 0
M  V30 12769 H 1241.74 2.05562 3.171 0
M  V30 12770 H 1242.05 4.71461 6.12327 0
M  V30 12771 H 1240.4 4.23447 5.51106 0
M  V30 12772 H 1243.59 2.61656 3.88142 0
M  V30 12773 H 1243.76 3.82889 5.22781 0
M  V30 12774 N 1237.17 -1.38817 0.746158 0
M  V30 12775 C 1238.42 -1.99885 0.298425 0
M  V30 12776 C 1238.74 -1.59518 -1.12156 0
M  V30 12777 O 1238.01 -0.848568 -1.76568 0
M  V30 12778 H 1236.59 -0.739247 0.107347 0
M  V30 12779 H 1239.25 -1.69696 0.9586 0
M  V30 12780 H 1238.35 -3.10067 0.355656 0
M  V30 12781 N 1238.65 -0.49465 -1.49636 0
M  V30 12782 C 1240.06 -0.0452894 -1.86645 0
M  V30 12783 C 1240.41 1.36686 -1.40753 0
M  V30 12784 O 1239.53 2.01751 -0.78265 0
M  V30 12785 C 1240.13 -0.0754115 -3.38716 0
M  V30 12786 C 1238.69 0.318579 -3.75049 0
M  V30 12787 C 1237.84 -0.450712 -2.73613 0
M  V30 12788 H 1240.79 -0.707758 -1.42044 0
M  V30 12789 H 1240.81 0.721372 -3.73599 0
M  V30 12790 H 1240.32 -1.10331 -3.72087 0
M  V30 12791 H 1238.42 1.34995 -3.47285 0
M  V30 12792 H 1238.53 0.00354416 -4.791 0
M  V30 12793 H 1236.9 0.0986455 -2.54509 0
M  V30 12794 H 1237.68 -1.47857 -3.09828 0
M  V30 12795 N 1240.13 1.55939 -0.228214 0
M  V30 12796 C 1241.54 1.84612 0.278417 0
M  V30 12797 C 1241.89 1.14973 1.58983 0
M  V30 12798 O 1241.01 0.421673 2.12252 0
M  V30 12799 C 1241.61 3.3491 0.511935 0
M  V30 12800 C 1240.17 3.63876 0.962861 0
M  V30 12801 C 1239.31 2.77284 0.0296246 0
M  V30 12802 H 1242.26 1.52149 -0.451245 0
M  V30 12803 H 1242.29 3.55477 1.35707 0
M  V30 12804 H 1241.8 3.85567 -0.442697 0
M  V30 12805 H 1239.9 3.18682 1.93062 0
M  V30 12806 H 1240.01 4.71809 0.832659 0
M  V30 12807 H 1238.38 2.48961 0.53763 0
M  V30 12808 H 1239.16 3.30742 -0.920044 0
M  V30 12809 N 1241.6 -0.0451101 1.57535 0
M  V30 12810 C 1242.51 -1.06796 2.08882 0
M  V30 12811 C 1243.53 -1.40682 1.02394 0
M  V30 12812 O 1244.71 -1.50324 1.34033 0
M  V30 12813 C 1241.77 -2.35467 2.54472 0
M  V30 12814 C 1240.83 -2.0831 3.75374 0
M  V30 12815 C 1240.07 -3.30846 4.1878 0
M  V30 12816 O 1240.29 -4.40945 3.61834 0
M  V30 12817 O 1239.22 -3.17488 5.11356 0
M  V30 12818 H 1243.05 -0.661658 2.96405 0
M  V30 12819 H 1240.63 -0.26104 1.47102 0
M  V30 12820 H 1242.52 -3.11143 2.84198 0
M  V30 12821 H 1241.19 -2.75425 1.70068 0
M  V30 12822 H 1240.1 -1.30254 3.50692 0
M  V30 12823 H 1241.43 -1.73218 4.60713 0
M  V30 12824 N 1243.08 -1.54377 -0.317073 0
M  V30 12825 C 1244.49 -1.64062 -0.891105 0
M  V30 12826 C 1244.84 -0.538863 -1.88655 0
M  V30 12827 O 1243.97 0.32718 -2.13912 0
M  V30 12828 C 1244.56 -2.97395 -1.62302 0
M  V30 12829 C 1243.12 -3.09253 -2.14568 0
M  V30 12830 C 1242.27 -2.59664 -0.973146 0
M  V30 12831 H 1245.22 -1.58418 -0.0944829 0
M  V30 12832 H 1245.24 -2.87918 -2.48764 0
M  V30 12833 H 1244.75 -3.77562 -0.898268 0
M  V30 12834 H 1242.86 -2.33774 -2.90139 0
M  V30 12835 H 1242.97 -4.15159 -2.39123 0
M  V30 12836 H 1241.33 -2.15719 -1.35416 0
M  V30 12837 H 1242.12 -3.42294 -0.262611 0
M  V30 12838 N 1244.56 0.579466 -1.4656 0
M  V30 12839 C 1245.52 1.67033 -1.56948 0
M  V30 12840 C 1246.52 1.54481 -0.446361 0
M  V30 12841 O 1247.71 1.5904 -0.710767 0
M  V30 12842 C 1244.85 3.06474 -1.49286 0
M  V30 12843 H 1246.04 1.59179 -2.54169 0
M  V30 12844 H 1243.59 0.797573 -1.34419 0
M  V30 12845 H 1244.33 3.1988 -0.533572 0
M  V30 12846 H 1244.11 3.16993 -2.30776 0
M  V30 12847 H 1245.6 3.85879 -1.59648 0
M  V30 12848 N 1246.04 1.3432 0.824371 0
M  V30 12849 C 1247.29 1.26345 1.57738 0
M  V30 12850 C 1247.61 -0.166836 1.94285 0
M  V30 12851 O 1246.88 -1.09911 1.62162 0
M  V30 12852 H 1245.46 0.46466 0.584893 0
M  V30 12853 H 1248.12 1.68214 0.984373 0
M  V30 12854 H 1247.22 1.8672 2.50084 0
M  V30 12855 N 1247.52 -1.0444 1.18026 0
M  V30 12856 C 1248.47 -2.10671 0.871877 0
M  V30 12857 C 1249.45 -1.60134 -0.156798 0
M  V30 12858 O 1250.64 -1.76938 0.0467129 0
M  V30 12859 C 1247.77 -3.41017 0.395271 0
M  V30 12860 C 1246.86 -3.98331 1.4558 0
M  V30 12861 N 1247.25 -4.29508 2.67127 0
M  V30 12862 C 1245.55 -4.2616 1.31544 0
M  V30 12863 C 1246.25 -4.7532 3.35329 0
M  V30 12864 N 1245.22 -4.75904 2.6271 0
M  V30 12865 H 1249.03 -2.32647 1.79589 0
M  V30 12866 H 1246.54 -1.22158 1.0701 0
M  V30 12867 H 1248.54 -4.16609 0.155861 0
M  V30 12868 H 1247.2 -3.20469 -0.522452 0
M  V30 12869 H 1248.21 -4.19271 3.04027 0
M  V30 12870 H 1244.88 -4.14959 0.459962 0
M  V30 12871 H 1246.27 -5.08493 4.39186 0
M  V30 12872 N 1248.99 -0.981699 -1.2329 0
M  V30 12873 C 1250.24 -0.650015 -1.91361 0
M  V30 12874 C 1250.56 0.819184 -1.76959 0
M  V30 12875 O 1249.83 1.5861 -1.14977 0
M  V30 12876 H 1248.41 -0.237427 -0.708264 0
M  V30 12877 H 1251.08 -1.24579 -1.49887 0
M  V30 12878 H 1250.17 -0.902772 -2.98758 0
M  V30 12879 N 1250.47 1.3842 -0.753509 0
M  V30 12880 C 1251.88 1.82847 -0.377331 0
M  V30 12881 C 1252.23 1.62867 1.09401 0
M  V30 12882 O 1251.36 1.12981 1.84565 0
M  V30 12883 C 1251.95 3.31945 -0.678095 0
M  V30 12884 C 1250.51 3.7472 -0.355196 0
M  V30 12885 C 1249.66 2.61193 -0.931311 0
M  V30 12886 H 1252.61 1.2715 -0.949667 0
M  V30 12887 H 1252.63 3.80475 0.0437292 0
M  V30 12888 H 1252.14 3.46455 -1.74902 0
M  V30 12889 H 1250.25 3.65789 0.70915 0
M  V30 12890 H 1250.36 4.71487 -0.850693 0
M  V30 12891 H 1248.72 2.5219 -0.356695 0
M  V30 12892 H 1249.51 2.78503 -2.00727 0
M  V30 12893 N 1251.95 0.502579 1.49372 0
M  V30 12894 C 1253.2 -0.0412993 2.02058 0
M  V30 12895 C 1253.52 -1.37338 1.38431 0
M  V30 12896 O 1252.79 -1.88305 0.540175 0
M  V30 12897 H 1251.37 -0.0182522 0.746777 0
M  V30 12898 H 1254.03 0.660179 1.83378 0
M  V30 12899 H 1253.13 -0.169812 3.11638 0
M  V30 12900 N 1253.43 -1.55816 0.23648 0
M  V30 12901 C 1254.84 -1.84757 -0.268622 0
M  V30 12902 C 1255.19 -1.15815 -1.58371 0
M  V30 12903 O 1254.32 -0.432923 -2.12025 0
M  V30 12904 C 1254.91 -3.35177 -0.494167 0
M  V30 12905 C 1253.47 -3.64382 -0.943551 0
M  V30 12906 C 1252.62 -2.77296 -0.0149191 0
M  V30 12907 H 1255.57 -1.51908 0.459308 0
M  V30 12908 H 1255.59 -3.56192 -1.3382 0
M  V30 12909 H 1255.1 -3.85327 0.463138 0
M  V30 12910 H 1253.2 -3.19701 -1.91369 0
M  V30 12911 H 1253.31 -4.72244 -0.807626 0
M  V30 12912 H 1251.68 -2.49243 -0.524419 0
M  V30 12913 H 1252.46 -3.30249 0.937571 0
M  V30 12914 N 1254.91 0.036755 -1.57557 0
M  V30 12915 C 1256.32 0.392264 -1.54704 0
M  V30 12916 C 1256.52 1.77076 -0.96157 0
M  V30 12917 O 1255.58 2.45766 -0.579263 0
M  V30 12918 C 1256.89 0.301168 -2.99188 0
M  V30 12919 C 1258.44 0.378813 -3.10699 0
M  V30 12920 C 1258.91 0.317249 -4.569 0
M  V30 12921 N 1260.41 0.376277 -4.61669 0
M  V30 12922 C 1261.14 0.351411 -5.72322 0
M  V30 12923 N 1260.64 0.279288 -6.92237 0
M  V30 12924 N 1262.43 0.400571 -5.60671 0
M  V30 12925 H 1254.58 -0.865455 -1.93968 0
M  V30 12926 H 1256.84 -0.328339 -0.889324 0
M  V30 12927 H 1256.55 -0.64582 -3.4572 0
M  V30 12928 H 1256.42 1.09784 -3.6087 0
M  V30 12929 H 1258.81 1.31623 -2.6412 0
M  V30 12930 H 1258.89 -0.447072 -2.51863 0
M  V30 12931 H 1258.54 -0.616469 -5.04145 0
M  V30 12932 H 1258.47 1.16114 -5.13639 0
M  V30 12933 H 1260.96 0.434843 -3.7539 0
M  V30 12934 H 1261.27 0.265202 -7.72345 0
M  V30 12935 H 1259.61 0.24545 -6.94566 0
M  V30 12936 H 1262.81 0.454854 -4.65885 0
M  V30 12937 H 1262.98 0.377724 -6.46898 0
M  V30 12938 N 1256.39 1.54543 0.308881 0
M  V30 12939 C 1257.66 1.64118 1.06418 0
M  V30 12940 C 1258.04 0.484402 2.05467 0
M  V30 12941 O 1257.39 -0.519752 2.2251 0
M  V30 12942 C 1257.6 3.01776 1.75306 0
M  V30 12943 C 1258.95 3.58324 2.27792 0
M  V30 12944 O 1259.97 3.04177 1.85351 0
M  V30 12945 O 1258.83 4.53113 3.05533 0
M  V30 12946 H 1255.93 0.665172 0.491401 0
M  V30 12947 H 1258.47 1.66889 0.307598 0
M  V30 12948 H 1257.24 3.77407 1.03341 0
M  V30 12949 H 1256.87 3.02748 2.57739 0
M  V30 12950 N 1257.86 -0.571685 1.46866 0
M  V30 12951 C 1258.79 -1.68994 1.61131 0
M  V30 12952 C 1259.77 -1.63728 0.461222 0
M  V30 12953 O 1260.96 -1.81574 0.688813 0
M  V30 12954 C 1258.09 -3.07638 1.61172 0
M  V30 12955 C 1257.04 -3.27742 2.75262 0
M  V30 12956 C 1256.37 -4.67025 2.60368 0
M  V30 12957 C 1257.67 -3.14511 4.16989 0
M  V30 12958 H 1259.36 -1.57311 2.54742 0
M  V30 12959 H 1256.91 -0.755382 1.22597 0
M  V30 12960 H 1258.86 -3.857 1.69744 0
M  V30 12961 H 1257.59 -3.20245 0.641122 0
M  V30 12962 H 1256.25 -2.52083 2.66176 0
M  V30 12963 H 1255.89 -4.76413 1.61368 0
M  V30 12964 H 1255.59 -4.81428 3.36899 0
M  V30 12965 H 1257.12 -5.47242 2.70848 0
M  V30 12966 H 1258.53 -3.82407 4.27128 0
M  V30 12967 H 1256.93 -3.40431 4.94193 0
M  V30 12968 H 1258 -2.11443 4.36371 0
M  V30 12969 N 1259.34 -1.34755 -0.817236 0
M  V30 12970 C 1260.27 -1.29452 -1.94331 0
M  V30 12971 C 1261.25 -0.170902 -1.69239 0
M  V30 12972 O 1262.44 -0.364173 -1.90755 0
M  V30 12973 C 1259.57 -1.05497 -3.30889 0
M  V30 12974 C 1258.52 -2.14386 -3.70436 0
M  V30 12975 C 1257.85 -1.75612 -5.05039 0
M  V30 12976 C 1259.15 -3.56265 -3.81933 0
M  V30 12977 H 1260.84 -2.23672 -1.99025 0
M  V30 12978 H 1258.39 -1.07674 -0.956159 0
M  V30 12979 H 1260.34 -1.0043 -4.09257 0
M  V30 12980 H 1259.06 -0.0772059 -3.26509 0
M  V30 12981 H 1257.72 -2.18532 -2.94345 0
M  V30 12982 H 1257.37 -0.764809 -4.97152 0
M  V30 12983 H 1257.07 -2.48495 -5.3247 0
M  V30 12984 H 1258.6 -1.72051 -5.85859 0
M  V30 12985 H 1260.01 -3.545 -4.50558 0
M  V30 12986 H 1258.41 -4.27818 -4.20822 0
M  V30 12987 H 1259.48 -3.93192 -2.83775 0
M  V30 12988 N 1260.82 1.03812 -1.18578 0
M  V30 12989 C 1262.1 1.74062 -0.892288 0
M  V30 12990 C 1262.48 2.02267 0.604256 0
M  V30 12991 O 1261.82 1.66988 1.55972 0
M  V30 12992 C 1262.03 3.024 -1.74228 0
M  V30 12993 C 1263.38 3.76088 -1.97087 0
M  V30 12994 O 1264.41 3.12305 -1.71302 0
M  V30 12995 O 1263.27 4.90732 -2.40509 0
M  V30 12996 H 1260.36 0.757567 -0.331695 0
M  V30 12997 H 1262.91 1.09855 -1.29345 0
M  V30 12998 H 1261.68 2.77713 -2.75665 0
M  V30 12999 H 1261.3 3.74346 -1.3398 0
M  V30 13000 N 1262.3 0.988223 1.22768 0
M  V30 13001 C 1263.54 0.661461 1.91392 0
M  V30 13002 C 1263.87 -0.805942 1.77016 0
M  V30 13003 O 1263.13 -1.5978 1.12999 0
M  V30 13004 C 1263.43 1.00744 3.42907 0
M  V30 13005 C 1263.09 2.46634 3.77469 0
M  V30 13006 C 1261.75 2.86503 3.86613 0
M  V30 13007 C 1264.11 3.41217 3.9398 0
M  V30 13008 C 1261.43 4.19954 4.09702 0
M  V30 13009 C 1263.79 4.74321 4.18572 0
M  V30 13010 C 1262.45 5.13938 4.25939 0
M  V30 13011 H 1261.72 0.242046 0.700353 0
M  V30 13012 H 1264.37 1.24354 1.45631 0
M  V30 13013 H 1262.67 0.34338 3.90292 0
M  V30 13014 H 1264.37 0.732714 3.94249 0
M  V30 13015 H 1260.96 2.14729 3.70931 0
M  V30 13016 H 1265.14 3.11589 3.86298 0
M  V30 13017 H 1260.4 4.50243 4.13631 0
M  V30 13018 H 1264.57 5.47561 4.30291 0
M  V30 13019 H 1262.2 6.17364 4.43583 0
M  V30 13020 N 1263.78 -1.38018 0.760839 0
M  V30 13021 C 1265.19 -1.82645 0.387022 0
M  V30 13022 C 1265.54 -1.63445 -1.08536 0
M  V30 13023 O 1264.66 -1.13958 -1.83963 0
M  V30 13024 C 1265.26 -3.3158 0.69569 0
M  V30 13025 C 1263.82 -3.74527 0.375063 0
M  V30 13026 C 1262.96 -2.60696 0.94515 0
M  V30 13027 H 1265.91 -1.26644 0.956396 0
M  V30 13028 H 1265.94 -3.80493 -0.0235511 0
M  V30 13029 H 1265.45 -3.45522 1.76737 0
M  V30 13030 H 1263.55 -3.6616 -0.689741 0
M  V30 13031 H 1263.66 -4.71029 0.875685 0
M  V30 13032 H 1262.03 -2.51997 0.370065 0
M  V30 13033 H 1262.81 -2.77434 2.02201 0
M  V30 13034 N 1265.25 -0.510493 -1.49103 0
M  V30 13035 C 1266.67 -0.167061 -1.58723 0
M  V30 13036 C 1266.87 1.32886 -1.51471 0
M  V30 13037 O 1265.93 2.10559 -1.39359 0
M  V30 13038 C 1267.24 -0.752293 -2.91137 0
M  V30 13039 C 1268.79 -0.719258 -3.04624 0
M  V30 13040 C 1269.26 -1.28272 -4.39671 0
M  V30 13041 N 1270.75 -1.24383 -4.46187 0
M  V30 13042 C 1271.49 -1.6499 -5.4915 0
M  V30 13043 N 1270.98 -2.13235 -6.59168 0
M  V30 13044 N 1272.78 -1.56348 -5.39918 0
M  V30 13045 H 1264.93 -1.48296 -1.5206 0
M  V30 13046 H 1267.19 -0.615683 -0.72086 0
M  V30 13047 H 1266.9 -1.80178 -3.02041 0
M  V30 13048 H 1266.77 -0.218152 -3.76569 0
M  V30 13049 H 1269.16 0.321413 -2.93344 0
M  V30 13050 H 1269.24 -1.29065 -2.20852 0
M  V30 13051 H 1268.88 -2.32222 -4.51703 0
M  V30 13052 H 1268.81 -0.687179 -5.22097 0
M  V30 13053 H 1271.3 -0.890446 -3.67259 0
M  V30 13054 H 1271.62 -2.42266 -7.33844 0
M  V30 13055 H 1269.96 -2.17216 -6.60183 0
M  V30 13056 H 1273.15 -1.18469 -4.52861 0
M  V30 13057 H 1273.33 -1.88317 -6.20033 0
M  V30 13058 N 1266.73 1.55688 -0.24474 0
M  V30 13059 C 1267.66 2.24272 0.64995 0
M  V30 13060 C 1268.64 1.22226 1.183 0
M  V30 13061 O 1269.83 1.50873 1.22274 0
M  V30 13062 C 1266.96 2.94053 1.84798 0
M  V30 13063 C 1265.91 4.02769 1.44779 0
M  V30 13064 C 1265.24 4.59965 2.72647 0
M  V30 13065 C 1266.54 5.18601 0.62047 0
M  V30 13066 H 1268.23 2.99298 0.0780654 0
M  V30 13067 H 1265.78 1.43955 0.0361069 0
M  V30 13068 H 1267.73 3.40732 2.47951 0
M  V30 13069 H 1266.45 2.16511 2.44521 0
M  V30 13070 H 1265.11 3.56856 0.839609 0
M  V30 13071 H 1264.76 3.79126 3.30564 0
M  V30 13072 H 1264.46 5.33352 2.46596 0
M  V30 13073 H 1265.99 5.09376 3.36703 0
M  V30 13074 H 1267.4 5.61519 1.15625 0
M  V30 13075 H 1265.8 5.98364 0.456097 0
M  V30 13076 H 1266.87 4.83503 -0.367798 0
M  V30 13077 N 1268.21 -0.0283989 1.57574 0
M  V30 13078 C 1269.62 -0.574912 1.77628 0
M  V30 13079 C 1269.97 -1.75563 0.875903 0
M  V30 13080 O 1269.1 -2.16284 0.0709141 0
M  V30 13081 C 1269.69 -1.04972 3.22128 0
M  V30 13082 C 1268.25 -1.54175 3.43376 0
M  V30 13083 C 1267.4 -0.480127 2.73112 0
M  V30 13084 H 1270.35 0.197826 1.57462 0
M  V30 13085 H 1270.37 -1.91705 3.28678 0
M  V30 13086 H 1269.88 -0.190173 3.87634 0
M  V30 13087 H 1267.98 -2.42313 2.83046 0
M  V30 13088 H 1268.1 -1.58879 4.51989 0
M  V30 13089 H 1266.46 -0.935314 2.36905 0
M  V30 13090 H 1267.24 0.369973 3.41301 0
M  V30 13091 N 1269.69 -1.54705 -0.300681 0
M  V30 13092 C 1270.96 -1.6468 -1.05546 0
M  V30 13093 C 1271.34 -0.495292 -2.05207 0
M  V30 13094 O 1270.69 0.507944 -2.22783 0
M  V30 13095 C 1270.9 -3.02702 -1.73703 0
M  V30 13096 C 1272.25 -3.59527 -2.25888 0
M  V30 13097 O 1273.27 -3.05156 -1.83735 0
M  V30 13098 O 1272.13 -4.54727 -3.03126 0
M  V30 13099 H 1269.23 -0.667769 -0.487867 0
M  V30 13100 H 1271.77 -1.6705 -0.298743 0
M  V30 13101 H 1270.55 -3.7795 -1.01338 0
M  V30 13102 H 1270.17 -3.0411 -2.5613 0
M  V30 13103 N 1271.17 0.563888 -1.47167 0
M  V30 13104 C 1272.58 1.14603 -1.47388 0
M  V30 13105 C 1272.93 1.94907 -0.224916 0
M  V30 13106 O 1272.05 2.05745 0.670672 0
M  V30 13107 C 1272.65 2.08501 -2.67044 0
M  V30 13108 C 1271.21 2.62 -2.70246 0
M  V30 13109 C 1270.35 1.38244 -2.40383 0
M  V30 13110 H 1273.31 0.350833 -1.54774 0
M  V30 13111 H 1273.33 2.92272 -2.43634 0
M  V30 13112 H 1272.84 1.50027 -3.57929 0
M  V30 13113 H 1270.94 3.24292 -1.83482 0
M  V30 13114 H 1271.05 3.0345 -3.70749 0
M  V30 13115 H 1269.42 1.68692 -1.90827 0
M  V30 13116 H 1270.2 0.815726 -3.33468 0
M  V30 13117 N 1272.64 1.35187 0.810078 0
M  V30 13118 C 1273.58 1.23673 1.92971 0
M  V30 13119 C 1274.59 0.160819 1.62004 0
M  V30 13120 O 1275.78 0.413793 1.73638 0
M  V30 13121 C 1272.88 0.880887 3.27252 0
M  V30 13122 C 1272.05 2.05444 3.86149 0
M  V30 13123 C 1271.11 1.67494 4.98831 0
M  V30 13124 O 1270.14 2.39322 5.16443 0
M  V30 13125 N 1271.34 0.596539 5.77427 0
M  V30 13126 H 1274.1 2.20133 2.03376 0
M  V30 13127 H 1271.66 1.2831 0.987322 0
M  V30 13128 H 1273.66 0.608556 4.00098 0
M  V30 13129 H 1272.23 0.00607926 3.12599 0
M  V30 13130 H 1271.45 2.49077 3.05539 0
M  V30 13131 H 1272.73 2.83898 4.22231 0
M  V30 13132 H 1272.13 -0.000312591 5.657 0
M  V30 13133 H 1270.69 0.383979 6.50668 0
M  V30 13134 N 1274.12 -1.03182 1.19127 0
M  V30 13135 C 1275.09 -2.09559 0.928307 0
M  V30 13136 C 1276.09 -1.60548 -0.0899992 0
M  V30 13137 O 1277.28 -1.736 0.144422 0
M  V30 13138 C 1274.41 -3.38609 0.394561 0
M  V30 13139 H 1275.6 -2.34321 1.87173 0
M  V30 13140 H 1273.15 -1.19746 1.00452 0
M  V30 13141 H 1273.89 -3.19515 -0.555046 0
M  V30 13142 H 1273.67 -3.75502 1.12873 0
M  V30 13143 H 1275.16 -4.16969 0.229569 0
M  V30 13144 N 1275.6 -0.99472 -1.22242 0
M  V30 13145 C 1276.53 -0.566499 -2.26524 0
M  V30 13146 C 1277.51 0.407541 -1.65146 0
M  V30 13147 O 1278.7 0.297777 -1.91903 0
M  V30 13148 C 1275.83 0.11786 -3.471 0
M  V30 13149 C 1274.78 -0.774908 -4.20927 0
M  V30 13150 C 1274.11 0.0424687 -5.34683 0
M  V30 13151 C 1275.41 -2.07263 -4.79416 0
M  V30 13152 H 1277.1 -1.43818 -2.62596 0
M  V30 13153 H 1274.65 -0.692971 -1.2623 0
M  V30 13154 H 1276.6 0.428842 -4.19212 0
M  V30 13155 H 1275.32 1.0241 -3.10129 0
M  V30 13156 H 1273.98 -1.06956 -3.50651 0
M  V30 13157 H 1273.63 0.949677 -4.93954 0
M  V30 13158 H 1273.33 -0.551867 -5.85003 0
M  V30 13159 H 1274.85 0.347504 -6.0961 0
M  V30 13160 H 1276.27 -1.82548 -5.4346 0
M  V30 13161 H 1274.67 -2.61594 -5.40082 0
M  V30 13162 H 1275.74 -2.75017 -3.99366 0
M  V30 13163 N 1277.08 1.37613 -0.768148 0
M  V30 13164 C 1278.33 1.99779 -0.330841 0
M  V30 13165 C 1278.65 1.60978 1.09162 0
M  V30 13166 O 1277.91 0.845778 1.7648 0
M  V30 13167 C 1278.21 3.54952 -0.417608 0
M  V30 13168 C 1277.87 4.13509 -1.7978 0
M  V30 13169 C 1276.54 4.29216 -2.17549 0
M  V30 13170 C 1278.89 4.45662 -2.7025 0
M  V30 13171 C 1276.22 4.74376 -3.45231 0
M  V30 13172 C 1278.57 4.92245 -3.97338 0
M  V30 13173 C 1277.23 5.06157 -4.35157 0
M  V30 13174 H 1276.5 0.731044 -0.121063 0
M  V30 13175 H 1279.15 1.64437 -0.98147 0
M  V30 13176 H 1277.45 3.90519 0.316567 0
M  V30 13177 H 1279.15 4.00954 -0.0606037 0
M  V30 13178 H 1275.74 4.01709 -1.49425 0
M  V30 13179 H 1279.92 4.33116 -2.42332 0
M  V30 13180 H 1275.18 4.83333 -3.74431 0
M  V30 13181 H 1279.35 5.16091 -4.67572 0
M  V30 13182 H 1276.98 5.4091 -5.34154 0
M  V30 13183 N 1278.56 0.518393 1.4883 0
M  V30 13184 C 1279.97 0.0749773 1.86549 0
M  V30 13185 C 1280.32 -1.34429 1.4291 0
M  V30 13186 O 1279.44 -2.00481 0.814648 0
M  V30 13187 C 1280.04 0.129289 3.38553 0
M  V30 13188 C 1278.6 -0.258871 3.75509 0
M  V30 13189 C 1277.74 0.494185 2.72861 0
M  V30 13190 H 1280.7 0.730266 1.409 0
M  V30 13191 H 1280.72 -0.661844 3.747 0
M  V30 13192 H 1280.23 1.16237 3.70285 0
M  V30 13193 H 1278.33 -1.29453 3.49389 0
M  V30 13194 H 1278.44 0.0726769 4.79045 0
M  V30 13195 H 1276.81 -0.0581428 2.54634 0
M  V30 13196 H 1277.59 1.52767 3.07436 0
M  V30 13197 N 1280.03 -1.55556 0.252993 0
M  V30 13198 C 1281 -2.20351 -0.630705 0
M  V30 13199 C 1282 -1.17461 -1.09816 0
M  V30 13200 O 1283.19 -1.42505 -1.00189 0
M  V30 13201 C 1280.32 -2.85192 -1.86757 0
M  V30 13202 H 1281.51 -2.99829 -0.0652939 0
M  V30 13203 H 1279.07 -1.563 0.00347982 0
M  V30 13204 H 1279.8 -2.09669 -2.47406 0
M  V30 13205 H 1279.59 -3.60569 -1.54053 0
M  V30 13206 H 1281.08 -3.34762 -2.49648 0
M  V30 13207 N 1281.51 0.0200419 -1.57587 0
M  V30 13208 C 1282.93 0.375834 -1.55112 0
M  V30 13209 C 1283.13 1.76047 -0.980297 0
M  V30 13210 O 1282.18 2.45138 -0.605297 0
M  V30 13211 C 1283.5 0.269418 -2.99491 0
M  V30 13212 C 1285.05 0.345838 -3.11084 0
M  V30 13213 C 1285.52 0.268771 -4.57211 0
M  V30 13214 N 1287.01 0.32729 -4.62042 0
M  V30 13215 C 1287.75 0.290688 -5.72663 0
M  V30 13216 N 1287.24 0.205851 -6.92494 0
M  V30 13217 N 1289.04 0.341082 -5.61064 0
M  V30 13218 H 1281.19 -0.885979 -1.93039 0
M  V30 13219 H 1283.45 -0.337753 -0.885792 0
M  V30 13220 H 1283.16 -0.682452 -3.45015 0
M  V30 13221 H 1283.03 1.0595 -3.62014 0
M  V30 13222 H 1285.42 1.28814 -2.65501 0
M  V30 13223 H 1285.5 -0.47376 -2.51375 0
M  V30 13224 H 1285.14 -0.669906 -5.03463 0
M  V30 13225 H 1285.07 1.10659 -5.14842 0
M  V30 13226 H 1287.56 0.395004 -3.7583 0
M  V30 13227 H 1287.88 0.18327 -7.72583 0
M  V30 13228 H 1286.22 0.171768 -6.94788 0
M  V30 13229 H 1289.41 0.405415 -4.66341 0
M  V30 13230 H 1289.58 0.309091 -6.47262 0
M  V30 13231 N 1282.99 1.54862 0.292472 0
M  V30 13232 C 1284.41 1.46267 0.638611 0
M  V30 13233 C 1284.61 0.660824 1.90356 0
M  V30 13234 O 1283.66 0.171909 2.51914 0
M  V30 13235 C 1284.98 2.90309 0.783675 0
M  V30 13236 C 1286.52 3.00404 0.879004 0
M  V30 13237 C 1287 4.4566 1.056 0
M  V30 13238 N 1288.49 4.49406 1.122 0
M  V30 13239 C 1289.22 5.5899 1.2774 0
M  V30 13240 N 1288.72 6.78482 1.40123 0
M  V30 13241 N 1290.51 5.46695 1.30696 0
M  V30 13242 H 1282.66 2.0546 -0.538521 0
M  V30 13243 H 1284.93 0.930879 -0.179354 0
M  V30 13244 H 1284.63 3.5162 -0.0750437 0
M  V30 13245 H 1284.51 3.38215 1.67004 0
M  V30 13246 H 1286.89 2.39201 1.7282 0
M  V30 13247 H 1286.98 2.55781 -0.0315624 0
M  V30 13248 H 1286.62 5.07459 0.211535 0
M  V30 13249 H 1286.55 4.87921 1.98092 0
M  V30 13250 H 1289.04 3.63322 1.03948 0
M  V30 13251 H 1289.35 7.57752 1.5176 0
M  V30 13252 H 1287.7 6.81331 1.37163 0
M  V30 13253 H 1290.89 4.52288 1.20638 0
M  V30 13254 H 1291.06 6.32146 1.42463 0
M  V30 13255 N 1284.47 -0.556076 1.47464 0
M  V30 13256 C 1285.88 -0.882115 1.33007 0
M  V30 13257 C 1286.08 -1.9892 0.321407 0
M  V30 13258 O 1285.14 -2.51088 -0.266668 0
M  V30 13259 C 1286.45 -1.27428 2.72365 0
M  V30 13260 C 1288 -1.38564 2.80658 0
M  V30 13261 C 1288.48 -1.81136 4.20659 0
M  V30 13262 N 1289.97 -1.88284 4.23206 0
M  V30 13263 C 1290.7 -2.22555 5.28447 0
M  V30 13264 N 1290.2 -2.55432 6.43993 0
M  V30 13265 N 1291.99 -2.23339 5.15826 0
M  V30 13266 H 1284.14 0.17481 2.11679 0
M  V30 13267 H 1286.41 0.0155421 0.947873 0
M  V30 13268 H 1286.11 -0.53463 3.47613 0
M  V30 13269 H 1285.99 -2.23019 3.04208 0
M  V30 13270 H 1288.37 -2.1161 2.05682 0
M  V30 13271 H 1288.45 -0.411588 2.52467 0
M  V30 13272 H 1288.1 -1.08659 4.96141 0
M  V30 13273 H 1288.03 -2.79546 4.46275 0
M  V30 13274 H 1290.52 -1.65259 3.3985 0
M  V30 13275 H 1290.83 -2.80612 7.20053 0
M  V30 13276 H 1289.18 -2.5301 6.47311 0
M  V30 13277 H 1292.37 -1.97094 4.24584 0
M  V30 13278 H 1292.54 -2.49717 5.97951 0
M  V30 13279 N 1285.95 -1.35615 -0.802897 0
M  V30 13280 C 1287.36 -1.26062 -1.37715 0
M  V30 13281 C 1287.71 0.105411 -1.95917 0
M  V30 13282 O 1286.83 1.00648 -1.91569 0
M  V30 13283 C 1287.43 -2.28261 -2.50365 0
M  V30 13284 C 1285.99 -2.22437 -3.03642 0
M  V30 13285 C 1285.14 -2.1377 -1.76629 0
M  V30 13286 H 1288.09 -1.46689 -0.605631 0
M  V30 13287 H 1288.11 -1.91122 -3.29017 0
M  V30 13288 H 1287.62 -3.27671 -2.07975 0
M  V30 13289 H 1285.72 -1.2645 -3.50487 0
M  V30 13290 H 1285.83 -3.14558 -3.61373 0
M  V30 13291 H 1284.2 -1.59806 -1.98328 0
M  V30 13292 H 1284.98 -3.15046 -1.36385 0
M  V30 13293 N 1287.43 1.02549 -1.19673 0
M  V30 13294 C 1288.84 1.57454 -1.00325 0
M  V30 13295 C 1289.19 1.91136 0.442889 0
M  V30 13296 O 1288.31 1.7126 1.32284 0
M  V30 13297 C 1288.91 2.86091 -1.81486 0
M  V30 13298 C 1287.47 3.37557 -1.6653 0
M  V30 13299 C 1286.61 2.1096 -1.79975 0
M  V30 13300 H 1289.56 0.850364 -1.33994 0
M  V30 13301 H 1289.59 3.5713 -1.31296 0
M  V30 13302 H 1289.1 2.61546 -2.86733 0
M  V30 13303 H 1287.2 3.67083 -0.638834 0
M  V30 13304 H 1287.31 4.1036 -2.47269 0
M  V30 13305 H 1285.68 2.22993 -1.23071 0
M  V30 13306 H 1286.46 1.88852 -2.86688 0
M  V30 13307 N 1288.9 1.00119 1.21713 0
M  V30 13308 C 1289.81 0.567582 2.27631 0
M  V30 13309 C 1290.83 -0.387593 1.69628 0
M  V30 13310 O 1292.01 -0.252372 1.99813 0
M  V30 13311 C 1289.07 -0.102745 3.46548 0
M  V30 13312 C 1288.13 0.896433 4.19836 0
M  V30 13313 C 1287.36 0.258 5.33076 0
M  V30 13314 O 1287.59 -0.946118 5.62499 0
M  V30 13315 O 1286.52 0.967021 5.94081 0
M  V30 13316 H 1290.35 1.44898 2.66905 0
M  V30 13317 H 1287.93 0.769862 1.28037 0
M  V30 13318 H 1289.81 -0.477846 4.18682 0
M  V30 13319 H 1288.49 -0.958576 3.09181 0
M  V30 13320 H 1287.4 1.32262 3.49939 0
M  V30 13321 H 1288.73 1.72173 4.61104 0
M  V30 13322 N 1290.38 -1.37203 0.775435 0
M  V30 13323 C 1291.63 -1.99601 0.341431 0
M  V30 13324 C 1291.96 -1.61555 -1.08306 0
M  V30 13325 O 1291.21 -0.855126 -1.76029 0
M  V30 13326 C 1291.51 -3.54725 0.436426 0
M  V30 13327 C 1291.18 -4.1255 1.8197 0
M  V30 13328 C 1289.84 -4.28056 2.19822 0
M  V30 13329 C 1292.19 -4.44222 2.7261 0
M  V30 13330 C 1289.52 -4.72538 3.47742 0
M  V30 13331 C 1291.87 -4.90131 3.99943 0
M  V30 13332 C 1290.53 -5.03842 4.37835 0
M  V30 13333 H 1289.8 -0.730391 0.124938 0
M  V30 13334 H 1292.45 -1.63914 0.990177 0
M  V30 13335 H 1290.76 -3.90681 -0.295852 0
M  V30 13336 H 1292.45 -4.00916 0.0818664 0
M  V30 13337 H 1289.04 -4.00911 1.51553 0
M  V30 13338 H 1293.23 -4.31824 2.44625 0
M  V30 13339 H 1288.48 -4.81341 3.76989 0
M  V30 13340 H 1292.66 -5.13604 4.70302 0
M  V30 13341 H 1290.28 -5.3807 5.37015 0
M  V30 13342 N 1291.86 -0.526279 -1.48553 0
M  V30 13343 C 1293.27 -0.0848694 -1.86507 0
M  V30 13344 C 1293.62 1.3367 -1.43621 0
M  V30 13345 O 1292.75 2.00046 -0.825268 0
M  V30 13346 C 1293.34 -0.147241 -3.3848 0
M  V30 13347 C 1291.9 0.238954 -3.75641 0
M  V30 13348 C 1291.05 -0.508648 -2.72595 0
M  V30 13349 H 1294 -0.737728 -1.40511 0
M  V30 13350 H 1294.02 0.641964 -3.75045 0
M  V30 13351 H 1293.53 -1.18199 -3.69663 0
M  V30 13352 H 1291.63 1.27598 -3.50071 0
M  V30 13353 H 1291.75 -0.0980808 -4.79 0
M  V30 13354 H 1290.11 0.0446382 -2.54661 0
M  V30 13355 H 1290.89 -1.54395 -3.06622 0
M  V30 13356 N 1293.34 1.5542 -0.261239 0
M  V30 13357 C 1294.59 1.9889 0.358777 0
M  V30 13358 C 1294.91 1.15092 1.57413 0
M  V30 13359 O 1294.18 0.237095 1.9446 0
M  V30 13360 H 1292.76 0.734599 0.13555 0
M  V30 13361 H 1295.42 1.91483 -0.363357 0
M  V30 13362 H 1294.51 3.05082 0.658142 0
M  V30 13363 N 1294.82 -0.0116844 1.57596 0
M  V30 13364 C 1296.23 -0.367602 1.55309 0
M  V30 13365 C 1296.43 -1.75524 0.98962 0
M  V30 13366 O 1295.49 -2.44813 0.618289 0
M  V30 13367 C 1296.8 -0.253532 2.99629 0
M  V30 13368 C 1298.35 -0.329335 3.11263 0
M  V30 13369 C 1298.82 -0.24452 4.57347 0
M  V30 13370 N 1300.31 -0.302782 4.62209 0
M  V30 13371 C 1301.05 -0.260315 5.72809 0
M  V30 13372 N 1300.55 -0.169124 6.92594 0
M  V30 13373 N 1302.34 -0.311323 5.61237 0
M  V30 13374 H 1294.49 0.896204 1.92567 0
M  V30 13375 H 1296.75 0.342445 0.883988 0
M  V30 13376 H 1296.46 0.70074 3.44648 0
M  V30 13377 H 1296.33 -1.04029 3.62571 0
M  V30 13378 H 1298.72 -1.27405 2.66181 0
M  V30 13379 H 1298.8 0.487084 2.5112 0
M  V30 13380 H 1298.44 0.696597 5.031 0
M  V30 13381 H 1298.37 -1.07927 5.15421 0
M  V30 13382 H 1300.87 -0.375067 3.76034 0
M  V30 13383 H 1301.18 -0.142296 7.72669 0
M  V30 13384 H 1299.52 -0.134919 6.94869 0
M  V30 13385 H 1302.71 -0.380678 4.6655 0
M  V30 13386 H 1302.89 -0.274761 6.47417 0
M  V30 13387 N 1296.29 -1.55015 -0.284256 0
M  V30 13388 C 1297.7 -1.65915 -0.856104 0
M  V30 13389 C 1298.06 -0.578758 -1.8747 0
M  V30 13390 O 1297.18 0.281733 -2.14558 0
M  V30 13391 C 1297.78 -3.0077 -1.55957 0
M  V30 13392 C 1296.33 -3.13735 -2.0796 0
M  V30 13393 C 1295.48 -2.61669 -0.917849 0
M  V30 13394 H 1298.43 -1.58583 -0.0608587 0
M  V30 13395 H 1298.45 -2.9313 -2.42601 0
M  V30 13396 H 1297.97 -3.79382 -0.81798 0
M  V30 13397 H 1296.07 -2.39875 -2.85115 0
M  V30 13398 H 1296.18 -4.20138 -2.30263 0
M  V30 13399 H 1294.54 -2.18542 -1.3081 0
M  V30 13400 H 1295.33 -3.42774 -0.189946 0
M  V30 13401 N 1297.77 0.548248 -1.47757 0
M  V30 13402 C 1299 1.3302 -1.58472 0
M  V30 13403 C 1299.41 1.87292 -0.238186 0
M  V30 13404 O 1298.77 1.65465 0.76991 0
M  V30 13405 C 1298.82 2.49386 -2.61704 0
M  V30 13406 O 1298.54 1.97355 -3.9113 0
M  V30 13407 C 1300.04 3.41471 -2.82688 0
M  V30 13408 H 1297.26 0.405172 -0.534861 0
M  V30 13409 H 1299.81 0.663251 -1.93446 0
M  V30 13410 H 1297.96 3.12001 -2.29639 0
M  V30 13411 H 1298.38 2.7339 -4.47614 0
M  V30 13412 H 1299.85 4.19516 -3.58762 0
M  V30 13413 H 1300.33 3.95573 -1.90837 0
M  V30 13414 H 1300.93 2.84664 -3.15985 0
M  V30 13415 N 1299.25 1.36039 0.795694 0
M  V30 13416 C 1300.48 1.33059 1.58439 0
M  V30 13417 C 1300.89 -0.0895496 1.88588 0
M  V30 13418 O 1300.25 -1.04466 1.49643 0
M  V30 13419 C 1300.3 2.14594 2.90915 0
M  V30 13420 O 1300.02 3.51072 2.62069 0
M  V30 13421 C 1301.52 2.19324 3.85242 0
M  V30 13422 H 1298.74 0.456668 0.491625 0
M  V30 13423 H 1301.29 1.79048 0.988035 0
M  V30 13424 H 1299.44 1.72177 3.47036 0
M  V30 13425 H 1299.86 3.93545 3.46732 0
M  V30 13426 H 1301.33 2.80744 4.75276 0
M  V30 13427 H 1301.81 1.19496 4.22631 0
M  V30 13428 H 1302.41 2.6195 3.35056 0
M  V30 13429 N 1300.73 -1.01913 1.20215 0
M  V30 13430 C 1301.66 -2.12282 0.97256 0
M  V30 13431 C 1302.64 -1.6982 -0.0975709 0
M  V30 13432 O 1303.82 -1.94109 0.0594307 0
M  V30 13433 C 1300.95 -3.43369 0.521085 0
M  V30 13434 C 1299.91 -3.99559 1.53417 0
M  V30 13435 C 1299.23 -5.26383 0.93942 0
M  V30 13436 C 1300.53 -4.33241 2.91718 0
M  V30 13437 H 1302.23 -2.31746 1.89563 0
M  V30 13438 H 1299.77 -1.1137 0.912841 0
M  V30 13439 H 1301.73 -4.19963 0.347713 0
M  V30 13440 H 1300.45 -3.23655 -0.437605 0
M  V30 13441 H 1299.11 -3.25069 1.69486 0
M  V30 13442 H 1298.76 -5.02993 -0.0271236 0
M  V30 13443 H 1298.46 -5.64942 1.616 0
M  V30 13444 H 1299.98 -6.05635 0.777059 0
M  V30 13445 H 1301.4 -5.00734 2.79175 0
M  V30 13446 H 1299.79 -4.82907 3.56259 0
M  V30 13447 H 1300.86 -3.42118 3.43633 0
M  V30 13448 N 1302.21 -1.00763 -1.2118 0
M  V30 13449 C 1303.43 -0.710746 -1.94309 0
M  V30 13450 C 1303.85 0.727103 -1.74237 0
M  V30 13451 O 1303.21 1.49223 -1.05065 0
M  V30 13452 C 1303.26 -1.02562 -3.46646 0
M  V30 13453 O 1302.98 -2.40699 -3.66054 0
M  V30 13454 C 1304.48 -0.748517 -4.36935 0
M  V30 13455 H 1301.7 -0.26171 -0.617858 0
M  V30 13456 H 1304.24 -1.34639 -1.53924 0
M  V30 13457 H 1302.4 -0.435537 -3.84944 0
M  V30 13458 H 1302.81 -2.51764 -4.60125 0
M  V30 13459 H 1304.29 -1.01899 -5.42513 0
M  V30 13460 H 1304.76 0.317423 -4.38051 0
M  V30 13461 H 1305.37 -1.32033 -4.04286 0
M  V30 13462 N 1303.68 1.3679 -0.7827 0
M  V30 13463 C 1304.93 1.99417 -0.352011 0
M  V30 13464 C 1305.26 1.62127 1.07448 0
M  V30 13465 O 1304.51 0.864449 1.75573 0
M  V30 13466 C 1304.81 3.54489 -0.455232 0
M  V30 13467 C 1304.48 4.11579 -1.84156 0
M  V30 13468 C 1303.14 4.26884 -2.22089 0
M  V30 13469 C 1305.49 4.4277 -2.74962 0
M  V30 13470 C 1302.82 4.70688 -3.50243 0
M  V30 13471 C 1305.17 4.88003 -4.02537 0
M  V30 13472 C 1303.84 5.01513 -4.40501 0
M  V30 13473 H 1303.11 0.729718 -0.12881 0
M  V30 13474 H 1305.75 1.63386 -0.998856 0
M  V30 13475 H 1304.06 3.90833 0.275129 0
M  V30 13476 H 1305.76 4.00867 -0.103127 0
M  V30 13477 H 1302.35 4.00102 -1.53677 0
M  V30 13478 H 1306.53 4.30521 -2.46912 0
M  V30 13479 H 1301.79 4.79335 -3.79537 0
M  V30 13480 H 1305.96 5.11102 -4.73019 0
M  V30 13481 H 1303.59 5.35214 -5.39861 0
M  V30 13482 N 1305.16 0.53415 1.48272 0
M  V30 13483 C 1306.13 -0.215641 2.28183 0
M  V30 13484 C 1307.13 -0.863966 1.35618 0
M  V30 13485 O 1308.32 -0.723375 1.58471 0
M  V30 13486 C 1305.45 -1.31251 3.1462 0
M  V30 13487 H 1306.64 0.486014 2.95936 0
M  V30 13488 H 1304.19 0.290237 1.53582 0
M  V30 13489 H 1304.93 -2.04729 2.51508 0
M  V30 13490 H 1304.71 -0.852706 3.82716 0
M  V30 13491 H 1306.2 -1.83978 3.74889 0
M  V30 13492 N 1306.64 -1.55279 0.269478 0
M  V30 13493 C 1308.05 -1.85286 -0.229372 0
M  V30 13494 C 1308.4 -1.19148 -1.55879 0
M  V30 13495 O 1307.53 -0.4778 -2.11059 0
M  V30 13496 C 1308.12 -3.3615 -0.42296 0
M  V30 13497 C 1306.68 -3.66301 -0.866047 0
M  V30 13498 C 1305.83 -2.77265 0.0439028 0
M  V30 13499 H 1308.78 -1.509 0.491427 0
M  V30 13500 H 1308.8 -3.5895 -1.26234 0
M  V30 13501 H 1308.31 -3.84258 0.544768 0
M  V30 13502 H 1306.41 -3.23688 -1.84545 0
M  V30 13503 H 1306.53 -4.73851 -0.707274 0
M  V30 13504 H 1304.89 -2.50299 -0.471433 0
M  V30 13505 H 1305.67 -3.28186 1.00741 0
M  V30 13506 N 1308.12 0.00332656 -1.576 0
M  V30 13507 C 1309.53 0.359361 -1.55502 0
M  V30 13508 C 1309.73 1.74997 -0.998914 0
M  V30 13509 O 1308.79 2.44482 -0.631263 0
M  V30 13510 C 1310.1 0.237638 -2.9976 0
M  V30 13511 C 1311.65 0.312824 -3.11433 0
M  V30 13512 C 1312.13 0.220262 -4.5747 0
M  V30 13513 N 1313.62 0.278265 -4.62363 0
M  V30 13514 C 1314.35 0.229933 -5.72939 0
M  V30 13515 N 1313.85 0.132391 -6.92673 0
M  V30 13516 N 1315.64 0.281555 -5.61394 0
M  V30 13517 H 1307.79 -0.906404 -1.92089 0
M  V30 13518 H 1310.06 -0.347129 -0.88216 0
M  V30 13519 H 1309.76 -0.719007 -3.44272 0
M  V30 13520 H 1309.64 1.02105 -3.63118 0
M  V30 13521 H 1312.02 1.25991 -2.66852 0
M  V30 13522 H 1312.1 -0.500395 -2.50858 0
M  V30 13523 H 1311.75 -0.723267 -5.02724 0
M  V30 13524 H 1311.68 1.05192 -5.15987 0
M  V30 13525 H 1314.17 0.35512 -3.76228 0
M  V30 13526 H 1314.48 0.101317 -7.72734 0
M  V30 13527 H 1312.83 0.0980665 -6.94931 0
M  V30 13528 H 1316.02 0.355931 -4.66745 0
M  V30 13529 H 1316.19 0.240423 -6.47554 0
M  V30 13530 N 1309.6 1.55164 0.276031 0
M  V30 13531 C 1311.01 1.66367 0.847293 0
M  V30 13532 C 1311.36 0.588692 1.8716 0
M  V30 13533 O 1310.48 -0.27035 2.14705 0
M  V30 13534 C 1311.08 3.01593 1.5436 0
M  V30 13535 C 1309.64 3.14833 2.06293 0
M  V30 13536 C 1308.78 2.62152 0.903959 0
M  V30 13537 H 1311.74 1.58613 0.0524478 0
M  V30 13538 H 1311.76 2.94412 2.41043 0
M  V30 13539 H 1311.27 3.7981 0.797849 0
M  V30 13540 H 1309.37 2.41384 2.83839 0
M  V30 13541 H 1309.48 4.21353 2.28032 0
M  V30 13542 H 1307.85 2.19233 1.29649 0
M  V30 13543 H 1308.63 3.4287 0.171765 0
M  V30 13544 N 1311.07 -0.540404 1.48045 0
M  V30 13545 C 1312.49 -0.867958 1.33935 0
M  V30 13546 C 1312.69 -1.98568 0.342488 0
M  V30 13547 O 1311.75 -2.51357 -0.240022 0
M  V30 13548 C 1313.06 -1.24532 2.73701 0
M  V30 13549 C 1314.61 -1.3558 2.82112 0
M  V30 13550 C 1315.08 -1.76664 4.22556 0
M  V30 13551 N 1316.57 -1.83785 4.25179 0
M  V30 13552 C 1317.31 -2.16938 5.30778 0
M  V30 13553 N 1316.8 -2.48587 6.46666 0
M  V30 13554 N 1318.6 -2.17855 5.18166 0
M  V30 13555 H 1310.75 0.197251 2.11482 0
M  V30 13556 H 1313.01 0.0255947 0.947654 0
M  V30 13557 H 1312.72 -0.497731 3.4816 0
M  V30 13558 H 1312.59 -2.19779 3.06556 0
M  V30 13559 H 1314.98 -2.09417 2.07915 0
M  V30 13560 H 1315.06 -0.384787 2.52889 0
M  V30 13561 H 1314.7 -1.03391 4.97265 0
M  V30 13562 H 1314.63 -2.74797 4.49215 0
M  V30 13563 H 1317.12 -1.61645 3.41583 0
M  V30 13564 H 1317.44 -2.72959 7.22989 0
M  V30 13565 H 1315.78 -2.4613 6.49958 0
M  V30 13566 H 1318.97 -1.9258 4.2665 0
M  V30 13567 H 1319.15 -2.43361 6.00566 0
M  V30 13568 N 1312.55 -1.36459 -0.788468 0
M  V30 13569 C 1313.96 -1.27515 -1.3637 0
M  V30 13570 C 1314.31 0.0846251 -1.96017 0
M  V30 13571 O 1313.44 0.98611 -1.92626 0
M  V30 13572 C 1314.03 -2.30903 -2.4793 0
M  V30 13573 C 1312.59 -2.25645 -3.01266 0
M  V30 13574 C 1311.74 -2.15631 -1.74352 0
M  V30 13575 H 1314.69 -1.47324 -0.590039 0
M  V30 13576 H 1314.71 -1.94601 -3.26972 0
M  V30 13577 H 1314.22 -3.29858 -2.04487 0
M  V30 13578 H 1312.33 -1.3016 -3.49126 0
M  V30 13579 H 1312.44 -3.18373 -3.58016 0
M  V30 13580 H 1310.8 -1.61901 -1.96622 0
M  V30 13581 H 1311.59 -3.16475 -1.33036 0
M  V30 13582 N 1314.03 1.01274 -1.20754 0
M  V30 13583 C 1314.99 2.08056 -0.961528 0
M  V30 13584 C 1315.99 1.60671 0.0644461 0
M  V30 13585 O 1317.18 1.73349 -0.172022 0
M  V30 13586 C 1314.32 3.37938 -0.448381 0
M  V30 13587 H 1315.51 2.31314 -1.90877 0
M  V30 13588 H 1313.06 1.18133 -1.02344 0
M  V30 13589 H 1313.8 3.20357 0.504144 0
M  V30 13590 H 1313.58 3.73659 -1.18833 0
M  V30 13591 H 1315.07 4.16551 -0.295876 0
M  V30 13592 N 1315.51 1.01404 1.20644 0
M  V30 13593 C 1316.47 0.586941 2.21557 0
M  V30 13594 C 1317.47 -0.341543 1.57131 0
M  V30 13595 O 1318.66 -0.130585 1.7371 0
M  V30 13596 C 1315.79 -0.143248 3.40599 0
M  V30 13597 H 1316.99 1.47964 2.60858 0
M  V30 13598 H 1314.54 0.803551 1.34063 0
M  V30 13599 H 1315.28 -1.05097 3.06798 0
M  V30 13600 H 1315.06 0.523716 3.88587 0
M  V30 13601 H 1316.55 -0.429504 4.15385 0
M  V30 13602 N 1316.99 -1.36373 0.789944 0
M  V30 13603 C 1318.21 -2.04011 0.373396 0
M  V30 13604 C 1318.64 -1.59171 -1.00231 0
M  V30 13605 O 1318 -0.760431 -1.64582 0
M  V30 13606 C 1318.04 -3.5783 0.446083 0
M  V30 13607 O 1317.15 -4.08759 -0.54678 0
M  V30 13608 H 1316.49 -0.644807 0.158495 0
M  V30 13609 H 1319.02 -1.74317 1.0712 0
M  V30 13610 H 1319.03 -4.06822 0.309877 0
M  V30 13611 H 1317.7 -3.89819 1.44962 0
M  V30 13612 H 1316.28 -3.71038 -0.372192 0
M  V30 13613 N 1318.47 -0.542005 -1.47987 0
M  V30 13614 C 1319.88 -0.200691 -1.58333 0
M  V30 13615 C 1320.08 1.29643 -1.54256 0
M  V30 13616 O 1319.14 2.07556 -1.43794 0
M  V30 13617 C 1320.45 -0.813878 -2.89476 0
M  V30 13618 C 1322 -0.783711 -3.0303 0
M  V30 13619 C 1322.47 -1.37569 -4.36851 0
M  V30 13620 N 1323.96 -1.33819 -4.43449 0
M  V30 13621 C 1324.7 -1.76602 -5.45527 0
M  V30 13622 N 1324.2 -2.27169 -6.54497 0
M  V30 13623 N 1325.99 -1.67765 -5.3648 0
M  V30 13624 H 1318.14 -1.51488 -1.4888 0
M  V30 13625 H 1320.4 -0.630835 -0.707638 0
M  V30 13626 H 1320.11 -1.86544 -2.98151 0
M  V30 13627 H 1319.98 -0.297978 -3.76021 0
M  V30 13628 H 1322.37 0.259118 -2.9396 0
M  V30 13629 H 1322.45 -1.33721 -2.18065 0
M  V30 13630 H 1322.09 -2.41751 -4.46675 0
M  V30 13631 H 1322.02 -0.797769 -5.20522 0
M  V30 13632 H 1324.52 -0.968147 -3.65288 0
M  V30 13633 H 1324.83 -2.57777 -7.2854 0
M  V30 13634 H 1323.17 -2.31171 -6.55427 0
M  V30 13635 H 1326.36 -1.28048 -4.50246 0
M  V30 13636 H 1326.54 -2.01426 -6.15899 0
M  V30 13637 N 1319.94 1.55134 -0.277709 0
M  V30 13638 C 1321.35 1.85405 0.219543 0
M  V30 13639 C 1321.71 1.19973 1.55245 0
M  V30 13640 O 1320.83 0.488986 2.10803 0
M  V30 13641 C 1321.43 3.36369 0.405127 0
M  V30 13642 C 1319.98 3.66755 0.846609 0
M  V30 13643 C 1319.13 2.77238 -0.0586063 0
M  V30 13644 H 1322.08 1.50637 -0.499422 0
M  V30 13645 H 1322.1 3.59615 1.24329 0
M  V30 13646 H 1321.62 3.83963 -0.565138 0
M  V30 13647 H 1319.72 3.24662 1.82825 0
M  V30 13648 H 1319.83 4.74219 0.682135 0
M  V30 13649 H 1318.19 2.50546 0.458153 0
M  V30 13650 H 1318.98 3.27647 -1.0248 0
M  V30 13651 N 1321.42 0.00503138 1.57599 0
M  V30 13652 C 1322.84 -0.351109 1.5569 0
M  V30 13653 C 1323.04 -1.74465 1.00818 0
M  V30 13654 O 1322.09 -2.44144 0.64422 0
M  V30 13655 C 1323.41 -0.221738 2.99881 0
M  V30 13656 C 1324.95 -0.296303 3.11594 0
M  V30 13657 C 1325.43 -0.195998 4.5758 0
M  V30 13658 N 1326.92 -0.253741 4.62504 0
M  V30 13659 C 1327.66 -0.199546 5.73053 0
M  V30 13660 N 1327.15 -0.0956553 6.92734 0
M  V30 13661 N 1328.94 -0.251779 5.61536 0
M  V30 13662 H 1321.1 0.916578 1.91605 0
M  V30 13663 H 1323.36 0.351802 0.880306 0
M  V30 13664 H 1323.06 0.737255 3.43886 0
M  V30 13665 H 1322.94 -1.00178 3.63654 0
M  V30 13666 H 1325.33 -1.24574 2.67517 0
M  V30 13667 H 1325.41 0.513692 2.50589 0
M  V30 13668 H 1325.05 0.749918 5.02333 0
M  V30 13669 H 1324.98 -1.02455 5.16537 0
M  V30 13670 H 1327.47 -0.335163 3.76411 0
M  V30 13671 H 1327.78 -0.0603357 7.72776 0
M  V30 13672 H 1326.13 -0.0612113 6.94973 0
M  V30 13673 H 1329.32 -0.331173 4.66927 0
M  V30 13674 H 1329.49 -0.206078 6.47672 0
M  V30 13675 N 1322.9 -1.55308 -0.267798 0
M  V30 13676 C 1323.83 -1.91555 -1.33525 0
M  V30 13677 C 1324.81 -0.778001 -1.51265 0
M  V30 13678 O 1326 -1.03657 -1.64222 0
M  V30 13679 C 1323.13 -2.19201 -2.69385 0
M  V30 13680 C 1322.08 -3.3501 -2.66369 0
M  V30 13681 C 1321.41 -3.48148 -4.05829 0
M  V30 13682 C 1322.71 -4.71265 -2.25182 0
M  V30 13683 H 1324.4 -2.80965 -1.03437 0
M  V30 13684 H 1321.95 -1.35183 -0.496141 0
M  V30 13685 H 1323.9 -2.43146 -3.44177 0
M  V30 13686 H 1322.62 -1.26596 -3.01067 0
M  V30 13687 H 1321.28 -3.11041 -1.94034 0
M  V30 13688 H 1320.93 -2.53 -4.34741 0
M  V30 13689 H 1320.63 -4.26014 -4.04704 0
M  V30 13690 H 1322.15 -3.74391 -4.82352 0
M  V30 13691 H 1323.57 -4.94719 -2.89699 0
M  V30 13692 H 1321.96 -5.52084 -2.3521 0
M  V30 13693 H 1323.03 -4.69735 -1.20319 0
M  V30 13694 N 1324.38 0.532545 -1.4833 0
M  V30 13695 C 1325.65 1.29371 -1.46705 0
M  V30 13696 C 1326.03 2.10354 -0.177329 0
M  V30 13697 O 1325.38 2.12462 0.840968 0
M  V30 13698 C 1325.59 2.17733 -2.72751 0
M  V30 13699 C 1326.94 2.77956 -3.20976 0
M  V30 13700 O 1327.96 2.28022 -2.7365 0
M  V30 13701 O 1326.82 3.68779 -4.03317 0
M  V30 13702 H 1323.92 0.58378 -0.585773 0
M  V30 13703 H 1326.46 0.549411 -1.6056 0
M  V30 13704 H 1325.24 1.57659 -3.58133 0
M  V30 13705 H 1324.86 2.99415 -2.61603 0
M  V30 13706 N 1325.86 1.36875 0.78122 0
M  V30 13707 C 1327.27 1.28236 1.35692 0
M  V30 13708 C 1327.62 -0.0742286 1.9606 0
M  V30 13709 O 1326.74 -0.97588 1.93146 0
M  V30 13710 C 1327.34 2.32215 2.46702 0
M  V30 13711 C 1325.9 2.2724 3.00065 0
M  V30 13712 C 1325.04 2.16553 1.73206 0
M  V30 13713 H 1327.99 1.47634 0.582217 0
M  V30 13714 H 1328.02 1.96333 3.25935 0
M  V30 13715 H 1327.53 3.30938 2.02735 0
M  V30 13716 H 1325.63 1.3201 3.48431 0
M  V30 13717 H 1325.74 3.20267 3.56323 0
M  V30 13718 H 1324.11 1.62941 1.95761 0
M  V30 13719 H 1324.89 3.17176 1.31356 0
M  V30 13720 N 1327.33 -1.00632 1.21289 0
M  V30 13721 C 1328.58 -1.74749 1.04089 0
M  V30 13722 C 1328.93 -1.8773 -0.421349 0
M  V30 13723 O 1328.23 -1.39958 -1.30852 0
M  V30 13724 C 1328.42 -3.1598 1.67007 0
M  V30 13725 C 1328.25 -3.1677 3.19197 0
M  V30 13726 C 1327.02 -3.23425 3.88233 0
M  V30 13727 C 1329.22 -3.01991 4.163 0
M  V30 13728 N 1327.2 -3.13827 5.27623 0
M  V30 13729 C 1328.57 -3.00276 5.42433 0
M  V30 13730 C 1330.63 -2.86284 4.07365 0
M  V30 13731 C 1329.33 -2.84463 6.60661 0
M  V30 13732 C 1331.36 -2.71827 5.25228 0
M  V30 13733 C 1330.72 -2.70787 6.50272 0
M  V30 13734 H 1326.82 -0.649702 0.435213 0
M  V30 13735 H 1329.4 -1.19617 1.53622 0
M  V30 13736 H 1327.57 -3.69384 1.20042 0
M  V30 13737 H 1329.3 -3.78584 1.43025 0
M  V30 13738 H 1326.06 -3.30566 3.3915 0
M  V30 13739 H 1326.48 -3.12374 6.00626 0
M  V30 13740 H 1331.12 -2.85894 3.11487 0
M  V30 13741 H 1328.84 -2.836 7.56701 0
M  V30 13742 H 1332.43 -2.60675 5.20134 0
M  V30 13743 H 1331.31 -2.59732 7.39938 0
M  V30 13744 N 1328.81 -1.02043 -1.20104 0
M  V30 13745 C 1329.76 -0.593945 -2.23027 0
M  V30 13746 C 1330.73 0.387931 -1.61506 0
M  V30 13747 O 1331.91 0.286504 -1.88637 0
M  V30 13748 C 1329.05 0.0577309 -3.45052 0
M  V30 13749 C 1328.17 -0.969169 -4.20988 0
M  V30 13750 C 1327.3 -0.288143 -5.30418 0
M  V30 13751 C 1326.34 -1.30154 -5.98102 0
M  V30 13752 N 1325.48 -0.646912 -6.99113 0
M  V30 13753 H 1330.32 -1.47623 -2.58866 0
M  V30 13754 H 1327.85 -0.738901 -1.27195 0
M  V30 13755 H 1329.81 0.452726 -4.14736 0
M  V30 13756 H 1328.44 0.90364 -3.09894 0
M  V30 13757 H 1327.49 -1.48229 -3.50332 0
M  V30 13758 H 1328.81 -1.73972 -4.67477 0
M  V30 13759 H 1327.96 0.162149 -6.06483 0
M  V30 13760 H 1326.7 0.514683 -4.84977 0
M  V30 13761 H 1325.7 -1.76218 -5.20795 0
M  V30 13762 H 1326.93 -2.10571 -6.45629 0
M  V30 13763 H 1324.88 0.135976 -6.55859 0
M  V30 13764 H 1324.79 -1.35548 -7.43749 0
M  V30 13765 H 1326.06 -0.220339 -7.79189 0
M  V30 13766 N 1330.29 1.35952 -0.797165 0
M  V30 13767 C 1331.22 2.32506 -0.215277 0
M  V30 13768 C 1332.2 1.57023 0.654046 0
M  V30 13769 O 1333.39 1.85139 0.586268 0
M  V30 13770 C 1330.52 3.41266 0.644557 0
M  V30 13771 C 1329.47 4.27816 -0.125501 0
M  V30 13772 C 1328.8 5.27813 0.855428 0
M  V30 13773 C 1330.1 5.05367 -1.31913 0
M  V30 13774 H 1331.79 2.8142 -1.02193 0
M  V30 13775 H 1329.34 1.35303 -0.492862 0
M  V30 13776 H 1331.29 4.07808 1.06163 0
M  V30 13777 H 1330.01 2.90938 1.484 0
M  V30 13778 H 1328.67 3.62841 -0.523639 0
M  V30 13779 H 1328.32 4.73755 1.69011 0
M  V30 13780 H 1328.02 5.86589 0.344566 0
M  V30 13781 H 1329.54 5.97227 1.2709 0
M  V30 13782 H 1330.96 5.64907 -0.977418 0
M  V30 13783 H 1329.36 5.73593 -1.76382 0
M  V30 13784 H 1330.43 4.36558 -2.11057 0
M  V30 13785 N 1331.77 0.549846 1.47697 0
M  V30 13786 C 1333.01 0.0230845 2.02787 0
M  V30 13787 C 1333.35 -1.32035 1.42409 0
M  V30 13788 O 1332.62 -1.85745 0.576978 0
M  V30 13789 C 1332.91 -0.0778363 3.60016 0
M  V30 13790 C 1332.76 1.29217 4.3084 0
M  V30 13791 C 1334.08 -0.794909 4.32862 0
M  V30 13792 H 1331.2 0.00986307 0.736934 0
M  V30 13793 H 1333.84 0.710714 1.76207 0
M  V30 13794 H 1331.99 -0.663464 3.82793 0
M  V30 13795 H 1333.66 1.92044 4.19424 0
M  V30 13796 H 1331.9 1.86883 3.91481 0
M  V30 13797 H 1332.57 1.17435 5.39364 0
M  V30 13798 H 1335.05 -0.297743 4.15033 0
M  V30 13799 H 1333.93 -0.834466 5.4252 0
M  V30 13800 H 1334.19 -1.84948 4.01555 0
M  V30 13801 N 1333.25 -1.54984 0.285932 0
M  V30 13802 C 1334.47 -2.04699 -0.333621 0
M  V30 13803 C 1334.9 -1.16252 -1.47875 0
M  V30 13804 O 1334.25 -0.163376 -1.80562 0
M  V30 13805 C 1334.3 -3.52022 -0.78187 0
M  V30 13806 O 1333.41 -3.66639 -1.88812 0
M  V30 13807 H 1332.75 -0.660579 -0.0673203 0
M  V30 13808 H 1335.28 -2.00171 0.423386 0
M  V30 13809 H 1335.29 -3.93591 -1.07473 0
M  V30 13810 H 1333.96 -4.15862 0.055893 0
M  V30 13811 H 1332.54 -3.36974 -1.59696 0
M  V30 13812 N 1334.72 -0.0133892 -1.57594 0
M  V30 13813 C 1335.97 0.668634 -1.91143 0
M  V30 13814 C 1336.3 1.7303 -0.888299 0
M  V30 13815 O 1335.55 1.95418 0.105056 0
M  V30 13816 C 1335.85 1.33729 -3.31438 0
M  V30 13817 C 1335.52 0.407527 -4.49055 0
M  V30 13818 C 1334.18 0.151573 -4.80961 0
M  V30 13819 C 1336.53 -0.231835 -5.20684 0
M  V30 13820 C 1333.86 -0.751812 -5.81863 0
M  V30 13821 C 1336.21 -1.12318 -6.22549 0
M  V30 13822 C 1334.88 -1.38818 -6.52906 0
M  V30 13823 H 1334.15 0.24467 -0.699441 0
M  V30 13824 H 1336.79 -0.0717876 -1.91365 0
M  V30 13825 H 1335.1 2.15209 -3.27403 0
M  V30 13826 H 1336.8 1.87128 -3.5466 0
M  V30 13827 H 1333.39 0.617192 -4.24133 0
M  V30 13828 H 1337.57 -0.0471268 -4.96278 0
M  V30 13829 H 1332.83 -0.964991 -6.03737 0
M  V30 13830 H 1337 -1.62488 -6.77179 0
M  V30 13831 H 1334.63 -2.08986 -7.3091 0
M  V30 13832 N 1336.2 1.55448 0.259558 0
M  V30 13833 C 1337.45 1.76337 0.987396 0
M  V30 13834 C 1337.77 0.57505 1.86328 0
M  V30 13835 O 1337.04 -0.409621 1.9157 0
M  V30 13836 H 1335.62 0.650312 0.367565 0
M  V30 13837 H 1338.28 1.9287 0.280551 0
M  V30 13838 H 1337.38 2.66975 1.61651 0
M  V30 13839 N 1337.68 -0.524672 1.4861 0
M  V30 13840 C 1339.1 -0.853703 1.34848 0
M  V30 13841 C 1339.3 -1.98194 0.363529 0
M  V30 13842 O 1338.35 -2.51597 -0.213348 0
M  V30 13843 C 1339.67 -1.21622 2.75006 0
M  V30 13844 C 1341.21 -1.3258 2.83534 0
M  V30 13845 C 1341.69 -1.72172 4.24406 0
M  V30 13846 N 1343.18 -1.79265 4.27105 0
M  V30 13847 C 1343.91 -2.11296 5.33049 0
M  V30 13848 N 1343.41 -2.41714 6.49266 0
M  V30 13849 N 1345.2 -2.12347 5.20447 0
M  V30 13850 H 1337.35 0.219671 2.11261 0
M  V30 13851 H 1339.62 0.0356444 0.94733 0
M  V30 13852 H 1339.32 -0.460776 3.48669 0
M  V30 13853 H 1339.2 -2.16516 3.0887 0
M  V30 13854 H 1341.58 -2.072 2.10124 0
M  V30 13855 H 1341.67 -0.357943 2.53283 0
M  V30 13856 H 1341.31 -0.981108 4.98334 0
M  V30 13857 H 1341.24 -2.70017 4.52104 0
M  V30 13858 H 1343.73 -1.58013 3.43279 0
M  V30 13859 H 1344.04 -2.65276 7.25843 0
M  V30 13860 H 1342.39 -2.39222 6.52532 0
M  V30 13861 H 1345.58 -1.88044 4.28669 0
M  V30 13862 H 1345.75 -2.36978 6.03113 0
M  V30 13863 N 1339.16 -1.37287 -0.77395 0
M  V30 13864 C 1340.39 -1.35563 -1.56302 0
M  V30 13865 C 1340.8 0.0595356 -1.88706 0
M  V30 13866 O 1340.16 1.02072 -1.51286 0
M  V30 13867 C 1340.21 -2.19195 -2.87464 0
M  V30 13868 O 1339.93 -3.55197 -2.5645 0
M  V30 13869 C 1341.43 -2.25425 -3.81704 0
M  V30 13870 H 1338.65 -0.464431 -0.484298 0
M  V30 13871 H 1341.2 -1.80597 -0.959425 0
M  V30 13872 H 1339.35 -1.77676 -3.44253 0
M  V30 13873 H 1339.76 -3.99011 -3.40427 0
M  V30 13874 H 1341.24 -2.8827 -4.70749 0
M  V30 13875 H 1341.72 -1.26205 -4.20677 0
M  V30 13876 H 1342.32 -2.67247 -3.30846 0
M  V30 13877 N 1340.64 0.999871 -1.21821 0
M  V30 13878 C 1341.57 2.10708 -1.00621 0
M  V30 13879 C 1342.55 1.69954 0.0705417 0
M  V30 13880 O 1343.73 1.9399 -0.0903042 0
M  V30 13881 C 1340.86 3.42496 -0.575646 0
M  V30 13882 C 1339.82 3.97068 -1.59754 0
M  V30 13883 C 1339.14 5.24822 -1.02304 0
M  V30 13884 C 1340.44 4.28545 -2.98574 0
M  V30 13885 H 1342.14 2.28701 -1.93226 0
M  V30 13886 H 1339.68 1.09903 -0.930443 0
M  V30 13887 H 1341.64 4.19357 -0.414481 0
M  V30 13888 H 1340.36 3.2431 0.386059 0
M  V30 13889 H 1339.02 3.22332 -1.74636 0
M  V30 13890 H 1338.67 5.02972 -0.0529016 0
M  V30 13891 H 1338.37 5.62299 -1.70567 0
M  V30 13892 H 1339.89 6.04322 -0.873312 0
M  V30 13893 H 1341.3 4.96229 -2.87106 0
M  V30 13894 H 1339.7 4.77178 -3.63897 0
M  V30 13895 H 1340.77 3.36607 -3.49032 0
M  V30 13896 N 1342.11 1.02678 1.19562 0
M  V30 13897 C 1343.34 0.741569 1.93154 0
M  V30 13898 C 1343.76 -0.699292 1.75372 0
M  V30 13899 O 1343.11 -1.47533 1.07426 0
M  V30 13900 C 1343.17 1.08064 3.4497 0
M  V30 13901 O 1342.89 2.46492 3.62179 0
M  V30 13902 C 1344.39 0.817935 4.35689 0
M  V30 13903 H 1341.61 0.271506 0.613617 0
M  V30 13904 H 1344.15 1.3707 1.51763 0
M  V30 13905 H 1342.31 0.496723 3.84202 0
M  V30 13906 H 1342.72 2.59053 4.56061 0
M  V30 13907 H 1344.19 1.10517 5.40823 0
M  V30 13908 H 1344.67 -0.247693 4.38501 0
M  V30 13909 H 1345.28 1.38449 4.02134 0
M  V30 13910 N 1343.59 -1.35528 0.804364 0
M  V30 13911 C 1344.84 -1.98084 0.380196 0
M  V30 13912 C 1345.15 -1.64531 -1.05778 0
M  V30 13913 O 1346.36 -2.20435 -1.58495 0
M  V30 13914 C 1344.82 -3.54364 0.628848 0
M  V30 13915 C 1344.42 -3.96828 2.07921 0
M  V30 13916 C 1346.17 -4.23641 0.269927 0
M  V30 13917 C 1344.08 -5.45944 2.27374 0
M  V30 13918 H 1343.01 -0.741185 0.138422 0
M  V30 13919 H 1345.66 -1.54624 0.988107 0
M  V30 13920 H 1344.04 -3.9597 -0.0489837 0
M  V30 13921 H 1345.21 -3.6638 2.79467 0
M  V30 13922 H 1343.53 -3.40433 2.39779 0
M  V30 13923 H 1346.12 -5.33251 0.393344 0
M  V30 13924 H 1346.47 -4.08858 -0.783644 0
M  V30 13925 H 1347 -3.87448 0.901588 0
M  V30 13926 H 1343.74 -5.65693 3.31168 0
M  V30 13927 H 1343.26 -5.77969 1.6035 0
M  V30 13928 H 1344.94 -6.12376 2.08817 0
M  V30 13929 N 1345.07 -0.557671 -1.47404 0
M  V30 13930 C 1346.3 -0.0366797 -2.07368 0
M  V30 13931 C 1346.72 1.2478 -1.40754 0
M  V30 13932 O 1346.08 1.74757 -0.48268 0
M  V30 13933 C 1346.13 0.141728 -3.60321 0
M  V30 13934 O 1345.23 1.20419 -3.94427 0
M  V30 13935 H 1344.57 -0.0515319 -0.661997 0
M  V30 13936 H 1347.1 -0.773485 -1.89416 0
M  V30 13937 H 1347.11 0.355787 -4.06446 0
M  V30 13938 H 1345.79 -0.796433 -4.08203 0
M  V30 13939 H 1344.36 0.970589 -3.60047 0
M  V30 13940 N 1346.55 1.54831 -0.294147 0
M  V30 13941 C 1347.96 1.85627 0.199866 0
M  V30 13942 C 1348.31 1.21613 1.53964 0
M  V30 13943 O 1347.44 0.511317 2.10272 0
M  V30 13944 C 1348.03 3.3678 0.369428 0
M  V30 13945 C 1346.59 3.67633 0.807663 0
M  V30 13946 C 1345.74 2.7716 -0.0880078 0
M  V30 13947 H 1348.69 1.50099 -0.515371 0
M  V30 13948 H 1348.71 3.60913 1.20508 0
M  V30 13949 H 1348.22 3.83342 -0.605831 0
M  V30 13950 H 1346.32 3.26583 1.79372 0
M  V30 13951 H 1346.44 4.74916 0.631799 0
M  V30 13952 H 1344.8 2.51017 0.431553 0
M  V30 13953 H 1345.58 3.26542 -1.0595 0
M  V30 13954 N 1348.03 0.0217466 1.57585 0
M  V30 13955 C 1349.44 -0.51811 1.79367 0
M  V30 13956 C 1349.79 -1.72688 0.931313 0
M  V30 13957 O 1348.91 -2.15949 0.139687 0
M  V30 13958 C 1349.51 -0.946711 3.25304 0
M  V30 13959 C 1348.07 -1.43173 3.48107 0
M  V30 13960 C 1347.22 -0.392996 2.74501 0
M  V30 13961 H 1350.17 0.247822 1.56753 0
M  V30 13962 H 1350.19 -1.81152 3.34611 0
M  V30 13963 H 1349.7 -0.0667536 3.88043 0
M  V30 13964 H 1347.8 -2.33186 2.90612 0
M  V30 13965 H 1347.91 -1.44419 4.56815 0
M  V30 13966 H 1346.28 -0.859471 2.39761 0
M  V30 13967 H 1347.06 0.478368 3.39951 0
M  V30 13968 N 1349.51 -1.55583 -0.251311 0
M  V30 13969 C 1350.73 -1.81597 -1.00186 0
M  V30 13970 C 1351.16 -0.598216 -1.78334 0
M  V30 13971 O 1350.51 0.452667 -1.75558 0
M  V30 13972 C 1350.56 -3.05301 -1.91895 0
M  V30 13973 O 1349.67 -2.81907 -3.01002 0
M  V30 13974 H 1349.01 -0.599578 -0.285311 0
M  V30 13975 H 1351.54 -2.02762 -0.273638 0
M  V30 13976 H 1351.55 -3.34616 -2.33444 0
M  V30 13977 H 1350.22 -3.93574 -1.34433 0
M  V30 13978 H 1348.8 -2.63747 -2.63613 0
M  V30 13979 N 1350.98 0.516783 -1.48886 0
M  V30 13980 C 1352.4 0.84654 -1.35299 0
M  V30 13981 C 1352.6 1.97998 -0.374035 0
M  V30 13982 O 1351.66 2.51707 0.200003 0
M  V30 13983 C 1352.97 1.20162 -2.75648 0
M  V30 13984 C 1354.52 1.31074 -2.84233 0
M  V30 13985 C 1354.99 1.69919 -4.25313 0
M  V30 13986 N 1356.48 1.76998 -4.28049 0
M  V30 13987 C 1357.22 2.08466 -5.34162 0
M  V30 13988 N 1356.71 2.38268 -6.50538 0
M  V30 13989 N 1358.51 2.09584 -5.21566 0
M  V30 13990 H 1350.66 -0.230871 -2.11142 0
M  V30 13991 H 1352.92 -0.0406678 -0.947127 0
M  V30 13992 H 1352.63 0.442278 -3.48908 0
M  V30 13993 H 1352.5 2.14875 -3.10014 0
M  V30 13994 H 1354.89 2.06083 -2.1122 0
M  V30 13995 H 1354.97 0.344506 -2.5347 0
M  V30 13996 H 1354.61 0.954667 -4.98847 0
M  V30 13997 H 1354.54 2.67616 -4.5353 0
M  V30 13998 H 1357.03 1.56191 -3.44112 0
M  V30 13999 H 1357.35 2.61423 -7.2724 0
M  V30 14000 H 1355.69 2.35758 -6.53791 0
M  V30 14001 H 1358.88 1.85768 -4.2966 0
M  V30 14002 H 1359.06 2.33776 -6.04362 0
M  V30 14003 N 1352.46 1.37696 0.766659 0
M  V30 14004 C 1353.87 1.29668 1.34324 0
M  V30 14005 C 1354.22 -0.0534297 1.96127 0
M  V30 14006 O 1353.35 -0.95534 1.94171 0
M  V30 14007 C 1353.94 2.34818 2.44225 0
M  V30 14008 C 1352.5 2.3041 2.97638 0
M  V30 14009 C 1351.65 2.18378 1.70899 0
M  V30 14010 H 1354.6 1.48244 0.566526 0
M  V30 14011 H 1354.62 1.99778 3.23835 0
M  V30 14012 H 1354.13 3.3307 1.99214 0
M  V30 14013 H 1352.23 1.35698 3.47011 0
M  V30 14014 H 1352.35 3.24028 3.52906 0
M  V30 14015 H 1350.71 1.65008 1.94021 0
M  V30 14016 H 1351.49 3.18551 1.27985 0
M  V30 14017 N 1353.94 -0.993397 1.22349 0
M  V30 14018 C 1355.22 -1.7063 0.956275 0
M  V30 14019 C 1355.6 -2.0437 -0.52877 0
M  V30 14020 O 1354.94 -1.72662 -1.49667 0
M  V30 14021 C 1355.15 -2.95725 1.85331 0
M  V30 14022 C 1356.5 -3.68514 2.10909 0
M  V30 14023 O 1357.53 -3.05732 1.82775 0
M  V30 14024 O 1356.39 -4.81468 2.58556 0
M  V30 14025 H 1353.48 -0.744734 0.359583 0
M  V30 14026 H 1356.03 -1.04979 1.33333 0
M  V30 14027 H 1354.8 -2.6729 2.85782 0
M  V30 14028 H 1354.42 -3.69116 1.47781 0
M  V30 14029 N 1355.42 -1.03311 -1.19015 0
M  V30 14030 C 1356.65 -0.751802 -1.92758 0
M  V30 14031 C 1357.06 0.689982 -1.7574 0
M  V30 14032 O 1356.42 1.46961 -1.08207 0
M  V30 14033 C 1356.47 -1.09892 -3.44392 0
M  V30 14034 O 1356.19 -2.48409 -3.60866 0
M  V30 14035 C 1357.69 -0.841029 -4.35249 0
M  V30 14036 H 1354.91 -0.274757 -0.612168 0
M  V30 14037 H 1357.45 -1.37873 -1.51034 0
M  V30 14038 H 1355.61 -0.517092 -3.83933 0
M  V30 14039 H 1356.02 -2.61468 -4.54681 0
M  V30 14040 H 1357.5 -1.13383 -5.4023 0
M  V30 14041 H 1357.97 0.224434 -4.38626 0
M  V30 14042 H 1358.58 -1.40579 -4.01395 0
M  V30 14043 N 1356.9 1.35099 -0.81154 0
M  V30 14044 C 1358.31 1.81082 -0.454543 0
M  V30 14045 C 1358.66 1.67361 1.02395 0
M  V30 14046 O 1357.78 1.20707 1.79607 0
M  V30 14047 C 1358.38 3.2877 -0.818274 0
M  V30 14048 C 1356.94 3.72877 -0.513808 0
M  V30 14049 C 1356.08 2.57008 -1.04125 0
M  V30 14050 H 1359.03 1.23007 -1.00274 0
M  V30 14051 H 1359.06 3.80318 -0.117683 0
M  V30 14052 H 1358.57 3.38725 -1.89439 0
M  V30 14053 H 1356.67 3.68468 0.553368 0
M  V30 14054 H 1356.78 4.67455 -1.0499 0
M  V30 14055 H 1355.15 2.5045 -0.463337 0
M  V30 14056 H 1355.93 2.69738 -2.12358 0
M  V30 14057 N 1358.37 0.56548 1.47106 0
M  V30 14058 C 1359.28 -0.180488 2.33905 0
M  V30 14059 C 1360.3 -0.90355 1.48701 0
M  V30 14060 O 1361.48 -0.870595 1.81611 0
M  V30 14061 C 1358.54 -1.19212 3.2556 0
M  V30 14062 C 1357.6 -0.475589 4.26658 0
M  V30 14063 C 1356.83 -1.43902 5.13934 0
M  V30 14064 O 1357.06 -2.67443 5.03816 0
M  V30 14065 O 1355.99 -0.958998 5.94211 0
M  V30 14066 H 1359.82 0.531726 2.99009 0
M  V30 14067 H 1357.4 0.32602 1.45799 0
M  V30 14068 H 1359.28 -1.77586 3.82153 0
M  V30 14069 H 1357.96 -1.8861 2.63074 0
M  V30 14070 H 1356.87 0.149561 3.73801 0
M  V30 14071 H 1358.2 0.177103 4.91881 0
M  V30 14072 N 1359.85 -1.54672 0.302354 0
M  V30 14073 C 1361.08 -2.05041 -0.311891 0
M  V30 14074 C 1361.5 -1.17814 -1.46634 0
M  V30 14075 O 1360.86 -0.182517 -1.80379 0
M  V30 14076 C 1360.91 -3.52831 -0.744489 0
M  V30 14077 O 1360.01 -3.68621 -1.84913 0
M  V30 14078 H 1359.35 -0.661255 -0.0603102 0
M  V30 14079 H 1361.88 -1.99711 0.444593 0
M  V30 14080 H 1361.89 -3.94708 -1.03293 0
M  V30 14081 H 1360.57 -4.1578 0.0999976 0
M  V30 14082 H 1359.15 -3.38649 -1.56113 0
M  V30 14083 N 1361.33 -0.0301034 -1.57571 0
M  V30 14084 C 1362.74 0.508591 -1.79639 0
M  V30 14085 C 1363.09 1.72191 -0.940458 0
M  V30 14086 O 1362.22 2.15872 -0.151138 0
M  V30 14087 C 1362.81 0.929446 -3.25802 0
M  V30 14088 C 1361.37 1.41325 -3.48861 0
M  V30 14089 C 1360.52 0.378433 -2.74706 0
M  V30 14090 H 1363.47 -0.256131 -1.56619 0
M  V30 14091 H 1363.49 1.79374 -3.35567 0
M  V30 14092 H 1363 0.0461738 -3.88073 0
M  V30 14093 H 1361.1 2.31641 -2.91844 0
M  V30 14094 H 1361.22 1.41995 -4.57574 0
M  V30 14095 H 1359.58 0.846744 -2.40213 0
M  V30 14096 H 1360.36 -0.49639 -3.39692 0
M  V30 14097 N 1362.81 1.55714 0.243056 0
M  V30 14098 C 1364.06 1.77375 0.968638 0
M  V30 14099 C 1364.38 0.594781 1.85708 0
M  V30 14100 O 1363.65 -0.38928 1.91993 0
M  V30 14101 H 1362.23 0.654174 0.360646 0
M  V30 14102 H 1364.89 1.93157 0.260079 0
M  V30 14103 H 1363.99 2.68674 1.5881 0
M  V30 14104 N 1364.29 -0.50888 1.49158 0
M  V30 14105 C 1365.7 -1.09054 1.51539 0
M  V30 14106 C 1366.05 -1.93938 0.297099 0
M  V30 14107 O 1365.17 -2.08092 -0.593849 0
M  V30 14108 C 1365.77 -1.98447 2.74599 0
M  V30 14109 C 1364.33 -2.5179 2.79783 0
M  V30 14110 C 1363.47 -1.29227 2.45348 0
M  V30 14111 H 1366.43 -0.293148 1.55969 0
M  V30 14112 H 1366.45 -2.83028 2.54314 0
M  V30 14113 H 1365.96 -1.3664 3.63251 0
M  V30 14114 H 1364.06 -3.17258 1.95392 0
M  V30 14115 H 1364.17 -2.89481 3.81756 0
M  V30 14116 H 1362.54 -1.61494 1.96957 0
M  V30 14117 H 1363.32 -0.6914 3.36266 0
M  V30 14118 N 1365.76 -1.381 -0.759346 0
M  V30 14119 C 1367.18 -1.30379 -1.33635 0
M  V30 14120 C 1367.53 0.0430279 -1.96153 0
M  V30 14121 O 1366.65 0.945029 -1.94675 0
M  V30 14122 C 1367.25 -2.3611 -2.42976 0
M  V30 14123 C 1365.81 -2.31985 -2.96412 0
M  V30 14124 C 1364.95 -2.19281 -1.69739 0
M  V30 14125 H 1367.9 -1.48542 -0.558656 0
M  V30 14126 H 1367.92 -2.01493 -3.22771 0
M  V30 14127 H 1367.44 -3.34122 -1.97445 0
M  V30 14128 H 1365.54 -1.37536 -3.46287 0
M  V30 14129 H 1365.65 -3.25895 -3.51183 0
M  V30 14130 H 1364.01 -1.66035 -1.93144 0
M  V30 14131 H 1364.8 -3.19225 -1.26293 0
M  V30 14132 N 1367.24 0.986894 -1.22875 0
M  V30 14133 C 1368.47 1.768 -1.08427 0
M  V30 14134 C 1368.89 1.84612 0.360555 0
M  V30 14135 O 1368.25 1.30299 1.26063 0
M  V30 14136 C 1368.3 3.17638 -1.70701 0
M  V30 14137 O 1367.4 4.00957 -0.964752 0
M  V30 14138 H 1366.74 0.544199 -0.380451 0
M  V30 14139 H 1369.27 1.23931 -1.62795 0
M  V30 14140 H 1369.28 3.68243 -1.75672 0
M  V30 14141 H 1367.96 3.11267 -2.75837 0
M  V30 14142 H 1366.54 3.59477 -0.991493 0
M  V30 14143 N 1368.72 1.0394 1.18466 0
M  V30 14144 C 1369.97 0.743141 1.88694 0
M  V30 14145 C 1370.3 -0.727211 1.8007 0
M  V30 14146 O 1369.57 -1.53058 1.20014 0
M  V30 14147 C 1369.86 1.20829 3.39223 0
M  V30 14148 C 1369.71 2.74064 3.56664 0
M  V30 14149 C 1371.03 0.797348 4.32817 0
M  V30 14150 H 1368.15 0.271437 0.685194 0
M  V30 14151 H 1370.79 1.29119 1.39386 0
M  V30 14152 H 1368.94 0.742033 3.81348 0
M  V30 14153 H 1370.61 3.28717 3.2364 0
M  V30 14154 H 1368.86 3.1395 2.99362 0
M  V30 14155 H 1369.53 3.01668 4.62277 0
M  V30 14156 H 1372 1.19854 3.98465 0
M  V30 14157 H 1370.88 1.15057 5.36706 0
M  V30 14158 H 1371.14 -0.299601 4.41084 0
M  V30 14159 N 1370.2 -1.34667 0.818693 0
M  V30 14160 C 1371.13 -2.28368 0.195126 0
M  V30 14161 C 1372.14 -1.50836 -0.612562 0
M  V30 14162 O 1373.33 -1.72917 -0.442936 0
M  V30 14163 C 1370.43 -3.30601 -0.745411 0
M  V30 14164 C 1369.61 -4.37396 0.0185308 0
M  V30 14165 C 1368.66 -5.19415 -0.842298 0
M  V30 14166 O 1367.69 -5.68467 -0.288821 0
M  V30 14167 N 1368.89 -5.38709 -2.1627 0
M  V30 14168 H 1371.66 -2.8252 1.00013 0
M  V30 14169 H 1369.22 -1.47146 0.675262 0
M  V30 14170 H 1371.21 -3.82367 -1.3258 0
M  V30 14171 H 1369.78 -2.76875 -1.45118 0
M  V30 14172 H 1369 -3.86402 0.780205 0
M  V30 14173 H 1370.29 -5.05877 0.544575 0
M  V30 14174 H 1369.69 -5.00523 -2.63616 0
M  V30 14175 H 1368.24 -5.9361 -2.69204 0
M  V30 14176 N 1371.68 -0.573274 -1.46804 0
M  V30 14177 C 1373.09 -0.144162 -1.86143 0
M  V30 14178 C 1373.44 1.29033 -1.47801 0
M  V30 14179 O 1372.56 1.97319 -0.888494 0
M  V30 14180 C 1373.16 -0.254851 -3.3784 0
M  V30 14181 C 1371.72 0.119325 -3.76211 0
M  V30 14182 C 1370.86 -0.595115 -2.70839 0
M  V30 14183 H 1373.82 -0.782057 -1.38093 0
M  V30 14184 H 1373.84 0.522321 -3.76898 0
M  V30 14185 H 1373.35 -1.29899 -3.65715 0
M  V30 14186 H 1371.45 1.16396 -3.53953 0
M  V30 14187 H 1371.56 -0.250421 -4.78445 0
M  V30 14188 H 1369.93 -0.0364028 -2.54674 0
M  V30 14189 H 1370.71 -1.64072 -3.01555 0
M  V30 14190 N 1373.15 1.5451 -0.310553 0
M  V30 14191 C 1374.38 2.04739 0.29824 0
M  V30 14192 C 1374.8 1.18737 1.46788 0
M  V30 14193 O 1374.15 0.215114 1.81228 0
M  V30 14194 C 1374.21 3.53734 0.745274 0
M  V30 14195 O 1373.93 4.36468 -0.377826 0
M  V30 14196 C 1375.43 4.20001 1.41823 0
M  V30 14197 H 1372.65 0.667997 0.0634159 0
M  V30 14198 H 1375.19 1.9942 -0.452961 0
M  V30 14199 H 1373.35 3.59383 1.44648 0
M  V30 14200 H 1373.76 5.24492 -0.0280567 0
M  V30 14201 H 1375.23 5.25747 1.68209 0
M  V30 14202 H 1375.71 3.70319 2.36137 0
M  V30 14203 H 1376.32 4.18455 0.759951 0
M  V30 14204 N 1374.63 0.0384594 1.57553 0
M  V30 14205 C 1375.56 -0.938444 2.13812 0
M  V30 14206 C 1376.54 -1.33307 1.05657 0
M  V30 14207 O 1377.73 -1.41003 1.33535 0
M  V30 14208 C 1374.86 -2.21764 2.67279 0
M  V30 14209 C 1373.81 -1.96347 3.80305 0
M  V30 14210 C 1373.14 -3.30612 4.20238 0
M  V30 14211 C 1374.44 -1.2952 5.05986 0
M  V30 14212 H 1376.13 -0.469887 2.9569 0
M  V30 14213 H 1373.68 -0.224576 1.42238 0
M  V30 14214 H 1375.63 -2.90493 3.05273 0
M  V30 14215 H 1374.36 -2.70802 1.82576 0
M  V30 14216 H 1373.02 -1.30033 3.42764 0
M  V30 14217 H 1372.66 -3.77427 3.32502 0
M  V30 14218 H 1372.36 -3.14409 4.96408 0
M  V30 14219 H 1373.89 -4.00594 4.60822 0
M  V30 14220 H 1375.3 -1.88264 5.41507 0
M  V30 14221 H 1373.7 -1.23685 5.87216 0
M  V30 14222 H 1374.77 -0.269439 4.84151 0
M  V30 14223 N 1376.11 -1.55841 -0.234795 0
M  V30 14224 C 1377.04 -1.94344 -1.29432 0
M  V30 14225 C 1378.02 -0.809912 -1.49581 0
M  V30 14226 O 1379.21 -1.07117 -1.61986 0
M  V30 14227 C 1376.34 -2.24866 -2.64675 0
M  V30 14228 C 1375.29 -3.40584 -2.59203 0
M  V30 14229 C 1374.62 -3.56678 -3.98353 0
M  V30 14230 C 1375.92 -4.75935 -2.15135 0
M  V30 14231 H 1377.61 -2.83096 -0.97454 0
M  V30 14232 H 1375.16 -1.36205 -0.467355 0
M  V30 14233 H 1377.11 -2.50392 -3.38942 0
M  V30 14234 H 1375.83 -1.32953 -2.98314 0
M  V30 14235 H 1374.49 -3.15087 -1.87393 0
M  V30 14236 H 1374.14 -2.62164 -4.29277 0
M  V30 14237 H 1373.84 -4.34503 -3.95577 0
M  V30 14238 H 1375.37 -3.84538 -4.74302 0
M  V30 14239 H 1376.78 -5.00753 -2.7914 0
M  V30 14240 H 1375.18 -5.56949 -2.23446 0
M  V30 14241 H 1376.25 -4.72182 -1.10328 0
M  V30 14242 N 1377.59 0.500963 -1.49426 0
M  V30 14243 C 1378.87 1.26231 -1.49416 0
M  V30 14244 C 1379.25 2.0993 -0.221908 0
M  V30 14245 O 1378.59 2.14198 0.795712 0
M  V30 14246 C 1378.8 2.11899 -2.77308 0
M  V30 14247 C 1380.15 2.71086 -3.26799 0
M  V30 14248 O 1381.18 2.22166 -2.78425 0
M  V30 14249 O 1380.04 3.60141 -4.11049 0
M  V30 14250 H 1377.13 0.571224 -0.598024 0
M  V30 14251 H 1379.68 0.51523 -1.61689 0
M  V30 14252 H 1378.45 1.50027 -3.61397 0
M  V30 14253 H 1378.07 2.93799 -2.67896 0
M  V30 14254 N 1379.07 1.38501 0.752011 0
M  V30 14255 C 1380 1.30236 1.87387 0
M  V30 14256 C 1380.98 0.179099 1.61611 0
M  V30 14257 O 1382.16 0.356686 1.85095 0
M  V30 14258 C 1379.29 1.01829 3.2303 0
M  V30 14259 C 1378.34 2.16114 3.67691 0
M  V30 14260 S 1379.17 3.78266 3.79044 0
M  V30 14261 C 1380.32 3.5205 5.17505 0
M  V30 14262 H 1380.56 2.25185 1.94111 0
M  V30 14263 H 1378.09 1.24356 0.915152 0
M  V30 14264 H 1380.05 0.861231 4.01364 0
M  V30 14265 H 1378.71 0.0859612 3.13982 0
M  V30 14266 H 1377.9 1.91788 4.66083 0
M  V30 14267 H 1377.5 2.27936 2.96515 0
M  V30 14268 H 1379.8 3.08262 6.03308 0
M  V30 14269 H 1380.74 4.49842 5.46853 0
M  V30 14270 H 1381.15 2.86528 4.86377 0
M  V30 14271 N 1380.55 -0.980364 1.23396 0
M  V30 14272 C 1381.82 -1.69607 0.974319 0
M  V30 14273 C 1382.2 -2.0492 -0.507064 0
M  V30 14274 O 1381.55 -1.74239 -1.47827 0
M  V30 14275 C 1381.76 -2.93743 1.88457 0
M  V30 14276 C 1383.11 -3.66256 2.14806 0
M  V30 14277 O 1384.13 -3.03776 1.86007 0
M  V30 14278 O 1382.99 -4.78698 2.63648 0
M  V30 14279 H 1380.09 -0.740878 0.367462 0
M  V30 14280 H 1382.63 -1.03558 1.34439 0
M  V30 14281 H 1381.4 -2.64244 2.88601 0
M  V30 14282 H 1381.03 -3.67528 1.51688 0
M  V30 14283 N 1382.02 -1.04567 -1.17913 0
M  V30 14284 C 1382.96 -0.585519 -2.2056 0
M  V30 14285 C 1383.93 0.382581 -1.58035 0
M  V30 14286 O 1385.12 0.295692 -1.86166 0
M  V30 14287 C 1382.25 0.14396 -3.38394 0
M  V30 14288 C 1381.29 -0.778174 -4.19341 0
M  V30 14289 S 1382.12 -2.26385 -4.85294 0
M  V30 14290 C 1383.28 -1.54537 -6.06522 0
M  V30 14291 H 1383.51 -1.4552 -2.59251 0
M  V30 14292 H 1381.05 -0.857075 -1.28427 0
M  V30 14293 H 1383 0.558661 -4.06681 0
M  V30 14294 H 1381.67 0.989593 -2.98104 0
M  V30 14295 H 1380.86 -0.214053 -5.03545 0
M  V30 14296 H 1380.46 -1.13195 -3.56459 0
M  V30 14297 H 1382.75 -0.841199 -6.72257 0
M  V30 14298 H 1383.7 -2.36465 -6.6745 0
M  V30 14299 H 1384.1 -1.03551 -5.54921 0
M  V30 14300 N 1383.5 1.34231 -0.825823 0
M  V30 14301 C 1384.41 2.33245 -0.251803 0
M  V30 14302 C 1385.43 1.62756 0.615334 0
M  V30 14303 O 1386.6 1.94503 0.522547 0
M  V30 14304 C 1383.67 3.41908 0.574456 0
M  V30 14305 C 1382.73 4.2814 -0.315422 0
M  V30 14306 C 1381.96 5.31613 0.471496 0
M  V30 14307 O 1382.19 5.44337 1.70449 0
M  V30 14308 O 1381.12 6.01719 -0.147691 0
M  V30 14309 H 1384.95 2.84174 -1.07139 0
M  V30 14310 H 1382.53 1.37341 -0.588032 0
M  V30 14311 H 1384.41 4.08252 1.04444 0
M  V30 14312 H 1383.09 2.93217 1.37132 0
M  V30 14313 H 1381.99 3.64709 -0.832963 0
M  V30 14314 H 1383.33 4.80279 -1.07672 0
M  V30 14315 N 1384.98 0.581051 1.46498 0
M  V30 14316 C 1386.23 0.0658652 2.01993 0
M  V30 14317 C 1386.55 -1.29807 1.45516 0
M  V30 14318 O 1385.82 -1.85177 0.639233 0
M  V30 14319 H 1384.4 0.0213584 0.746695 0
M  V30 14320 H 1387.06 0.756456 1.79621 0
M  V30 14321 H 1386.16 -0.00438128 3.121 0
M  V30 14322 N 1386.46 -1.54343 0.318742 0
M  V30 14323 C 1387.39 -2.21652 -0.583351 0
M  V30 14324 C 1388.4 -1.21494 -1.08366 0
M  V30 14325 O 1389.59 -1.4799 -0.998064 0
M  V30 14326 C 1386.69 -2.86349 -1.81266 0
M  V30 14327 C 1385.86 -4.12601 -1.45186 0
M  V30 14328 C 1384.92 -4.60937 -2.53818 0
M  V30 14329 O 1383.95 -5.25731 -2.18164 0
M  V30 14330 N 1385.15 -4.34755 -3.84667 0
M  V30 14331 H 1387.92 -2.99699 -0.00703539 0
M  V30 14332 H 1385.48 -1.61278 0.141728 0
M  V30 14333 H 1387.47 -3.15611 -2.53321 0
M  V30 14334 H 1386.04 -2.12037 -2.29693 0
M  V30 14335 H 1385.26 -3.90157 -0.563143 0
M  V30 14336 H 1386.55 -4.94774 -1.18642 0
M  V30 14337 H 1385.95 -3.82883 -4.16434 0
M  V30 14338 H 1384.5 -4.68683 -4.52967 0
M  V30 14339 N 1387.94 -0.0468143 -1.5753 0
M  V30 14340 C 1388.88 0.946945 -2.12452 0
M  V30 14341 C 1389.88 1.32515 -1.05527 0
M  V30 14342 O 1391.08 1.30532 -1.23941 0
M  V30 14343 H 1387.46 0.323223 -0.678993 0
M  V30 14344 H 1389.43 0.45858 -2.94855 0
M  V30 14345 C 1388.18 2.21402 -2.68098 0
M  V30 14346 H 1387.5 1.93178 -3.50032 0
M  V30 14347 H 1388.94 2.89105 -3.10152 0
M  V30 14348 C 1387.4 2.95576 -1.61668 0
M  V30 14349 O 1387.93 3.88353 -1.02689 0
M  V30 14350 N 1386.14 2.58228 -1.33291 0
M  V30 14351 H 1385.68 1.82858 -1.8144 0
M  V30 14352 H 1385.64 3.08164 -0.623092 0
M  V30 14353 N 1389.41 1.55964 0.226527 0
M  V30 14354 C 1390.35 1.88487 1.30405 0
M  V30 14355 C 1391.36 0.772723 1.43293 0
M  V30 14356 O 1392.55 1.05099 1.44279 0
M  V30 14357 C 1389.65 2.074 2.68027 0
M  V30 14358 C 1388.82 3.38389 2.77149 0
M  V30 14359 C 1387.88 3.46795 3.95752 0
M  V30 14360 O 1386.91 4.19862 3.84323 0
M  V30 14361 N 1388.11 2.77573 5.09836 0
M  V30 14362 H 1390.87 2.81506 1.02833 0
M  V30 14363 H 1388.43 1.56449 0.416581 0
M  V30 14364 H 1390.43 2.10344 3.45742 0
M  V30 14365 H 1389 1.2103 2.8822 0
M  V30 14366 H 1388.22 3.47586 1.8595 0
M  V30 14367 H 1389.5 4.24688 2.8021 0
M  V30 14368 H 1388.9 2.17979 5.22017 0
M  V30 14369 H 1387.46 2.86185 5.85612 0
M  V30 14370 N 1390.89 -0.493031 1.4969 0
M  V30 14371 C 1392.17 -1.25436 1.50084 0
M  V30 14372 C 1392.55 -2.0981 0.233038 0
M  V30 14373 O 1391.9 -2.14617 -0.784342 0
M  V30 14374 C 1392.11 -2.10425 2.78428 0
M  V30 14375 C 1393.46 -2.69349 3.28232 0
M  V30 14376 O 1394.48 -2.20686 2.796 0
M  V30 14377 O 1393.34 -3.57956 4.12953 0
M  V30 14378 H 1390.43 -0.568044 0.601045 0
M  V30 14379 H 1392.98 -0.506648 1.6196 0
M  V30 14380 H 1391.75 -1.48108 3.62187 0
M  V30 14381 H 1391.37 -2.92374 2.6945 0
M  V30 14382 N 1392.37 -1.38898 -0.744656 0
M  V30 14383 C 1393.6 -1.3903 -1.53901 0
M  V30 14384 C 1394.02 0.0156607 -1.88093 0
M  V30 14385 O 1393.38 1.00012 -1.51219 0
M  V30 14386 C 1393.43 -2.2609 -2.80919 0
M  V30 14387 O 1392.53 -1.68414 -3.76444 0
M  V30 14388 H 1391.87 -0.473854 -0.465144 0
M  V30 14389 H 1394.4 -1.82773 -0.919525 0
M  V30 14390 H 1394.41 -2.40264 -3.29754 0
M  V30 14391 H 1393.09 -3.28271 -2.55364 0
M  V30 14392 H 1391.66 -1.63431 -3.35179 0
M  V30 14393 N 1393.85 0.973806 -1.23914 0
M  V30 14394 C 1395.08 1.75107 -1.10206 0
M  V30 14395 C 1395.49 1.85604 0.345935 0
M  V30 14396 O 1394.85 1.33996 1.239 0
M  V30 14397 C 1394.9 3.17466 -1.72909 0
M  V30 14398 O 1394.62 3.07504 -3.12047 0
M  V30 14399 C 1396.12 4.11557 -1.6473 0
M  V30 14400 H 1393.34 0.549318 -0.385345 0
M  V30 14401 H 1395.89 1.22301 -1.63898 0
M  V30 14402 H 1394.04 3.67277 -1.23234 0
M  V30 14403 H 1394.45 3.97169 -3.42575 0
M  V30 14404 H 1395.93 5.09126 -2.13295 0
M  V30 14405 H 1396.41 4.3498 -0.607352 0
M  V30 14406 H 1397.01 3.67653 -2.13802 0
M  V30 14407 N 1395.33 1.05191 1.17357 0
M  V30 14408 C 1396.57 0.763113 1.87895 0
M  V30 14409 C 1396.91 -0.708071 1.80831 0
M  V30 14410 O 1396.18 -1.51777 1.21631 0
M  V30 14411 C 1396.46 1.2442 3.37923 0
M  V30 14412 C 1396.32 2.77832 3.53737 0
M  V30 14413 C 1397.64 0.843209 4.31947 0
M  V30 14414 H 1394.75 0.27869 0.682276 0
M  V30 14415 H 1397.4 1.3059 1.38008 0
M  V30 14416 H 1395.55 0.782438 3.80539 0
M  V30 14417 H 1397.22 3.32131 3.20135 0
M  V30 14418 H 1395.46 3.17108 2.96015 0
M  V30 14419 H 1396.13 3.06555 4.59052 0
M  V30 14420 H 1398.61 1.24073 3.97171 0
M  V30 14421 H 1397.48 1.20743 5.35455 0
M  V30 14422 H 1397.75 -0.252802 4.41377 0
M  V30 14423 N 1396.8 -1.33791 0.83293 0
M  V30 14424 C 1398.22 -1.80336 0.483294 0
M  V30 14425 C 1398.57 -1.68969 -0.997195 0
M  V30 14426 O 1397.69 -1.23549 -1.77664 0
M  V30 14427 C 1398.29 -3.27427 0.870475 0
M  V30 14428 C 1396.85 -3.72012 0.573064 0
M  V30 14429 C 1395.99 -2.55319 1.08201 0
M  V30 14430 H 1398.94 -1.21396 1.02218 0
M  V30 14431 H 1398.96 -3.80083 0.178173 0
M  V30 14432 H 1398.48 -3.35668 1.94804 0
M  V30 14433 H 1396.58 -3.69302 -0.494678 0
M  V30 14434 H 1396.69 -4.65725 1.12414 0
M  V30 14435 H 1395.05 -2.49681 0.503123 0
M  V30 14436 H 1395.84 -2.66326 2.16623 0
M  V30 14437 N 1398.28 -0.588812 -1.46187 0
M  V30 14438 C 1399.21 0.128595 -2.33146 0
M  V30 14439 C 1400.19 0.877608 -1.45712 0
M  V30 14440 O 1401.38 0.851866 -1.74519 0
M  V30 14441 C 1398.51 1.13886 -3.28096 0
M  V30 14442 C 1397.46 0.504296 -4.25019 0
M  V30 14443 C 1396.79 1.62147 -5.09522 0
M  V30 14444 C 1398.09 -0.562466 -5.19263 0
M  V30 14445 H 1399.78 -0.597455 -2.93378 0
M  V30 14446 H 1397.33 -0.288764 -1.41075 0
M  V30 14447 H 1399.28 1.64916 -3.8779 0
M  V30 14448 H 1398.01 1.89527 -2.65983 0
M  V30 14449 H 1396.66 0.0150325 -3.66597 0
M  V30 14450 H 1396.31 2.36769 -4.4379 0
M  V30 14451 H 1396.01 1.20249 -5.75164 0
M  V30 14452 H 1397.54 2.13441 -5.7208 0
M  V30 14453 H 1398.95 -0.137003 -5.73136 0
M  V30 14454 H 1397.35 -0.902115 -5.93281 0
M  V30 14455 H 1398.42 -1.4464 -4.62825 0
M  V30 14456 N 1399.76 1.54172 -0.326923 0
M  V30 14457 C 1401 2.02539 0.275192 0
M  V30 14458 C 1401.36 1.2099 1.49082 0
M  V30 14459 O 1402.57 1.59176 2.16602 0
M  V30 14460 C 1400.84 3.52366 0.597767 0
M  V30 14461 S 1402.4 4.22663 1.17906 0
M  V30 14462 H 1399.21 0.706135 0.0830286 0
M  V30 14463 H 1401.82 1.89991 -0.460826 0
M  V30 14464 H 1400.52 4.09338 -0.295052 0
M  V30 14465 H 1400.05 3.69001 1.36389 0
M  V30 14466 H 1402.07 4.30601 2.46571 0
M  V30 14467 N 1401.24 0.0551678 1.57503 0
M  V30 14468 C 1402.49 -0.6165 1.92467 0
M  V30 14469 C 1402.81 -1.71147 0.934552 0
M  V30 14470 O 1402.08 -1.9589 -0.0199649 0
M  V30 14471 H 1400.66 -0.230714 0.710479 0
M  V30 14472 H 1403.32 0.109111 1.94594 0
M  V30 14473 H 1402.42 -1.05254 2.93816 0
M  V30 14474 N 1402.72 -1.56081 -0.218252 0
M  V30 14475 C 1403.68 -1.91851 -1.25402 0
M  V30 14476 C 1404.68 -0.797399 -1.39636 0
M  V30 14477 O 1405.87 -1.06511 -1.37844 0
M  V30 14478 C 1403 -2.17223 -2.6273 0
M  V30 14479 H 1404.19 -2.84493 -0.948882 0
M  V30 14480 H 1401.75 -1.49414 -0.458809 0
M  V30 14481 H 1402.48 -1.27144 -2.98337 0
M  V30 14482 H 1402.27 -2.98899 -2.53775 0
M  V30 14483 H 1403.76 -2.45981 -3.37466 0
M  V30 14484 N 1404.2 0.485086 -1.49949 0
M  V30 14485 C 1405.15 1.58207 -1.64179 0
M  V30 14486 C 1406.13 1.53037 -0.496844 0
M  V30 14487 O 1407.32 1.60297 -0.750582 0
M  V30 14488 C 1404.45 2.96735 -1.72637 0
M  V30 14489 C 1403.54 3.06841 -2.92762 0
M  V30 14490 N 1403.93 2.86795 -4.16632 0
M  V30 14491 C 1402.23 3.37961 -2.91029 0
M  V30 14492 C 1402.93 3.01502 -4.97465 0
M  V30 14493 N 1401.9 3.31085 -4.31142 0
M  V30 14494 H 1405.7 1.41387 -2.57657 0
M  V30 14495 H 1403.22 0.691542 -1.4694 0
M  V30 14496 H 1405.22 3.75592 -1.80932 0
M  V30 14497 H 1403.88 3.14612 -0.803072 0
M  V30 14498 H 1404.89 2.62653 -4.46356 0
M  V30 14499 H 1401.56 3.61915 -2.08143 0
M  V30 14500 H 1402.95 2.90361 -6.05921 0
M  V30 14501 N 1405.67 1.39291 0.737279 0
M  V30 14502 C 1406.92 1.36121 1.49384 0
M  V30 14503 C 1407.24 -0.0429406 1.94953 0
M  V30 14504 O 1406.51 -0.993756 1.68823 0
M  V30 14505 H 1405.09 0.500916 0.554159 0
M  V30 14506 H 1407.75 1.74134 0.875402 0
M  V30 14507 H 1406.85 2.02246 2.37704 0
M  V30 14508 N 1407.15 -0.967221 1.24429 0
M  V30 14509 C 1408.38 -1.75053 1.11226 0
M  V30 14510 C 1408.8 -1.85162 -0.331139 0
M  V30 14511 O 1408.16 -1.32288 -1.23974 0
M  V30 14512 C 1408.21 -3.14882 1.75733 0
M  V30 14513 O 1407.31 -3.99371 1.02842 0
M  V30 14514 H 1406.65 -0.538078 0.389061 0
M  V30 14515 H 1409.18 -1.21325 1.64746 0
M  V30 14516 H 1409.19 -3.65402 1.81509 0
M  V30 14517 H 1407.87 -3.06839 2.80754 0
M  V30 14518 H 1406.44 -3.57854 1.04856 0
M  V30 14519 N 1408.63 -1.05812 -1.16797 0
M  V30 14520 C 1409.58 -0.634669 -2.18988 0
M  V30 14521 C 1410.56 0.332122 -1.57435 0
M  V30 14522 O 1411.76 0.148346 -1.76377 0
M  V30 14523 C 1408.88 -0.0174742 -3.43296 0
M  V30 14524 C 1407.97 -1.00847 -4.11935 0
M  V30 14525 N 1408.36 -2.18223 -4.56303 0
M  V30 14526 C 1406.66 -0.838325 -4.3805 0
M  V30 14527 C 1407.36 -2.80967 -5.09345 0
M  V30 14528 N 1406.34 -2.08725 -5.01931 0
M  V30 14529 H 1410.14 -1.52888 -2.51003 0
M  V30 14530 H 1407.65 -0.929125 -1.33195 0
M  V30 14531 H 1409.65 0.303692 -4.15792 0
M  V30 14532 H 1408.31 0.872052 -3.1277 0
M  V30 14533 H 1409.32 -2.56025 -4.5019 0
M  V30 14534 H 1406 -0.000376066 -4.175 0
M  V30 14535 H 1407.39 -3.80541 -5.53749 0
M  V30 14536 O 1410.15 1.28774 -0.974656 0
M  V30 14537 H 1410.84 1.83629 -0.616457 0
M  V30 END ATOM
M  V30 BEGIN BOND
M  V30 END BOND
M  V30 END CTAB
M  END
$$$$
