drugbank_target|Q02768 Cytochrome b (DB01117)
 OpenBabel12092120533D

  0  0  0     0  0            999 V3000
M  V30 BEGIN CTAB
M  V30 COUNTS 6215 6325 0 0 0
M  V30 BEGIN ATOM
M  V30 1 H -0.908 1.98254 -0.117106 0
M  V30 2 N 0 1.576 0 0
M  V30 3 C 0.933 2.03868 1.02534 0
M  V30 4 C 1.911 0.928543 1.3348 0
M  V30 5 O 3.095 1.19667 1.45644 0
M  V30 6 C 0.222 2.43627 2.35294 0
M  V30 7 C -0.732 3.65373 2.2001 0
M  V30 8 S 0.101 5.13292 1.52614 0
M  V30 9 C 1.257 5.56322 2.86805 0
M  V30 10 H 1.49 2.90518 0.631377 0
M  V30 11 H -0.977 1.52953 0.210867 0
M  V30 12 H 0.981 2.67203 3.11629 0
M  V30 13 H -0.358 1.57376 2.7183 0
M  V30 14 H -1.165 3.90944 3.18086 0
M  V30 15 H -1.563 3.418 1.51819 0
M  V30 16 H 0.729 5.58782 3.83104 0
M  V30 17 H 1.672 6.56266 2.65933 0
M  V30 18 H 2.08 4.83886 2.90714 0
M  V30 19 N 1.4781 -0.272755 1.55222 0
M  V30 20 C 2.4261 -1.35705 1.88909 0
M  V30 21 C 3.4201 -1.5112 0.765456 0
M  V30 22 O 4.6261 -1.52901 0.949802 0
M  V30 23 H 1.0011 -0.453868 0.59959 0
M  V30 24 H 2.9721 -1.04544 2.79487 0
M  V30 25 C 1.7211 -2.71049 2.17779 0
M  V30 26 H 1.0441 -2.59979 3.03728 0
M  V30 27 H 2.4841 -3.45858 2.45272 0
M  V30 28 C 0.9431 -3.22165 0.985473 0
M  V30 29 O 1.4731 -4.01096 0.220233 0
M  V30 30 N -0.3209 -2.7985 0.783108 0
M  V30 31 H -0.7739 -2.15775 1.40708 0
M  V30 32 H -0.8159 -3.14397 -0.0130392 0
M  V30 33 N 2.9562 -1.48159 -0.537278 0
M  V30 34 C 4.2032 -1.55804 -1.29349 0
M  V30 35 C 4.5312 -0.228802 -1.9315 0
M  V30 36 O 3.7862 0.780242 -1.79473 0
M  V30 37 C 4.0852 -2.63956 -2.40961 0
M  V30 38 C 3.7512 -4.0662 -1.94861 0
M  V30 39 C 2.4132 -4.45452 -1.82006 0
M  V30 40 C 4.7652 -4.96055 -1.59933 0
M  V30 41 C 2.0932 -5.71531 -1.32547 0
M  V30 42 C 4.4452 -6.22617 -1.11939 0
M  V30 43 C 3.1092 -6.60312 -0.976951 0
M  V30 44 H 2.3792 -0.570129 -0.473322 0
M  V30 45 H 5.0262 -1.81845 -0.600372 0
M  V30 46 H 3.3312 -2.31747 -3.15912 0
M  V30 47 H 5.0282 -2.67089 -2.99107 0
M  V30 48 H 1.6182 -3.75949 -2.05815 0
M  V30 49 H 5.8022 -4.66738 -1.68728 0
M  V30 50 H 1.0582 -5.99468 -1.202 0
M  V30 51 H 5.2322 -6.91318 -0.839811 0
M  V30 52 H 2.8592 -7.57895 -0.591501 0
M  V30 53 N 4.4343 0.785586 -1.36625 0
M  V30 54 C 5.6643 1.5722 -1.34036 0
M  V30 55 C 6.0723 1.89033 0.0795062 0
M  V30 56 O 5.4153 1.50881 1.04789 0
M  V30 57 C 5.4773 2.91759 -2.10041 0
M  V30 58 C 5.1413 2.82654 -3.59104 0
M  V30 59 C 6.1383 2.54634 -4.53274 0
M  V30 60 C 3.8233 3.01111 -4.02042 0
M  V30 61 C 5.8173 2.45177 -5.88359 0
M  V30 62 C 3.5043 2.91276 -5.37216 0
M  V30 63 C 4.5023 2.63348 -6.30188 0
M  V30 64 O 4.1903 2.53514 -7.6288 0
M  V30 65 H 3.9223 0.494177 -0.461265 0
M  V30 66 H 6.4763 0.982632 -1.8037 0
M  V30 67 H 4.7063 3.52781 -1.58375 0
M  V30 68 H 6.3953 3.53059 -2.00261 0
M  V30 69 H 7.1613 2.40073 -4.21414 0
M  V30 70 H 3.0403 3.21854 -3.30047 0
M  V30 71 H 6.5843 2.23299 -6.60896 0
M  V30 72 H 2.4813 3.054 -5.68684 0
M  V30 73 H 3.2493 2.68967 -7.73045 0
M  V30 74 N 5.9124 1.20967 1.01018 0
M  V30 75 C 7.1374 1.0503 1.78839 0
M  V30 76 C 7.5624 -0.395752 1.8389 0
M  V30 77 O 6.9204 -1.28529 1.27867 0
M  V30 78 C 6.9684 1.64602 3.2084 0
M  V30 79 O 6.0724 0.887988 4.02726 0
M  V30 80 H 5.4134 0.369987 0.551367 0
M  V30 81 H 7.9434 1.60399 1.27018 0
M  V30 82 H 7.9534 1.68607 3.71532 0
M  V30 83 H 6.6284 2.69841 3.16479 0
M  V30 84 H 5.2054 0.922648 3.61305 0
M  V30 85 N 7.3905 -1.2043 1.01659 0
M  V30 86 C 8.6395 -1.89118 0.701237 0
M  V30 87 C 8.9525 -1.79705 -0.772358 0
M  V30 88 O 10.1585 -2.43528 -1.20026 0
M  V30 89 C 8.6145 -3.39168 1.20388 0
M  V30 90 C 8.2225 -3.57166 2.70438 0
M  V30 91 C 9.9665 -4.1341 0.963953 0
M  V30 92 C 7.8735 -5.01042 3.14183 0
M  V30 93 H 6.8035 -0.708267 0.2586 0
M  V30 94 H 9.4545 -1.36239 1.22927 0
M  V30 95 H 7.8365 -3.91369 0.603824 0
M  V30 96 H 9.0105 -3.15351 3.35992 0
M  V30 97 H 7.3255 -2.96294 2.92572 0
M  V30 98 H 9.9225 -5.19491 1.26621 0
M  V30 99 H 10.2655 -4.16181 -0.099578 0
M  V30 100 H 10.7985 -3.67309 1.52738 0
M  V30 101 H 7.5375 -5.03426 4.19812 0
M  V30 102 H 7.0575 -5.43668 2.53348 0
M  V30 103 H 8.7365 -5.69623 3.0682 0
M  V30 104 N 8.8686 -0.792821 -1.36206 0
M  V30 105 C 9.8166 -0.181555 -2.3189 0
M  V30 106 C 10.8106 0.661025 -1.55971 0
M  V30 107 O 12.0166 0.555728 -1.71206 0
M  V30 108 H 8.3916 -0.0399382 -0.750939 0
M  V30 109 H 10.3626 -1.00394 -2.81005 0
M  V30 110 C 9.1116 0.666444 -3.41253 0
M  V30 111 H 8.4346 0.0274489 -3.99791 0
M  V30 112 H 9.8746 1.06076 -4.10517 0
M  V30 113 C 8.3336 1.82614 -2.83114 0
M  V30 114 O 8.8636 2.9229 -2.75553 0
M  V30 115 N 7.0696 1.63333 -2.40356 0
M  V30 116 H 6.6166 0.741217 -2.46706 0
M  V30 117 H 6.5746 2.41087 -2.01803 0
M  V30 118 N 10.3467 1.47872 -0.545128 0
M  V30 119 C 11.2767 2.32661 0.197793 0
M  V30 120 C 12.2577 1.43041 0.920504 0
M  V30 121 O 13.4427 1.71912 0.90333 0
M  V30 122 C 10.5727 3.24569 1.23582 0
M  V30 123 C 9.5267 4.23333 0.630323 0
M  V30 124 C 8.8527 5.0448 1.77211 0
M  V30 125 C 10.1527 5.20704 -0.407974 0
M  V30 126 H 11.8467 2.95024 -0.510045 0
M  V30 127 H 9.3927 1.4187 -0.246731 0
M  V30 128 H 11.3457 3.8272 1.76362 0
M  V30 129 H 10.0697 2.60236 1.97344 0
M  V30 130 H 8.7287 3.6639 0.123922 0
M  V30 131 H 8.3767 4.36561 2.49847 0
M  V30 132 H 8.0767 5.71339 1.37281 0
M  V30 133 H 9.6007 5.65487 2.3034 0
M  V30 134 H 11.0147 5.7329 0.033305 0
M  V30 135 H 9.4117 5.95699 -0.725486 0
M  V30 136 H 10.4817 4.66917 -1.30828 0
M  V30 137 N 11.8248 0.280983 1.55075 0
M  V30 138 C 13.0708 -0.33461 2.00021 0
M  V30 139 C 13.4038 -1.55063 1.16915 0
M  V30 140 O 12.6788 -1.93006 0.240646 0
M  V30 141 C 12.9618 -0.711007 3.53011 0
M  V30 142 C 12.8148 0.512766 4.46868 0
M  V30 143 C 14.1338 -1.54522 4.12081 0
M  V30 144 H 11.2528 -0.120147 0.727141 0
M  V30 145 H 13.8948 0.389097 1.85973 0
M  V30 146 H 12.0448 -1.32761 3.65112 0
M  V30 147 H 13.7168 1.15131 4.46702 0
M  V30 148 H 11.9598 1.14975 4.18286 0
M  V30 149 H 12.6308 0.205556 5.51617 0
M  V30 150 H 15.1068 -1.02442 4.03293 0
M  V30 151 H 13.9828 -1.77739 5.19327 0
M  V30 152 H 14.2438 -2.52813 3.62682 0
M  V30 153 N 13.3029 -1.57598 0.00835791 0
M  V30 154 C 14.2499 -2.08945 -0.980346 0
M  V30 155 C 15.2199 -0.986738 -1.33614 0
M  V30 156 O 16.4049 -1.25968 -1.43306 0
M  V30 157 C 13.5449 -2.60425 -2.26435 0
M  V30 158 C 12.6579 -3.84628 -1.96685 0
M  V30 159 C 11.7929 -4.24579 -3.19228 0
M  V30 160 C 10.8319 -5.41596 -2.85202 0
M  V30 161 N 9.9689 -5.768 -4.00307 0
M  V30 162 H 14.8089 -2.93148 -0.535551 0
M  V30 163 H 12.3459 -1.44912 -0.252776 0
M  V30 164 H 14.3039 -2.88354 -3.01509 0
M  V30 165 H 12.9339 -1.79083 -2.68568 0
M  V30 166 H 11.9859 -3.63556 -1.11942 0
M  V30 167 H 13.2979 -4.69796 -1.67611 0
M  V30 168 H 12.4519 -4.53834 -4.02641 0
M  V30 169 H 11.1909 -3.38137 -3.51447 0
M  V30 170 H 10.1959 -5.12056 -2.00198 0
M  V30 171 H 11.4209 -6.29721 -2.54222 0
M  V30 172 H 9.3669 -4.93316 -4.32407 0
M  V30 173 H 9.2839 -6.5656 -3.74786 0
M  V30 174 H 10.5519 -6.10652 -4.84484 0
M  V30 175 N 14.781 0.264519 -1.55364 0
M  V30 176 C 15.744 1.31046 -1.88042 0
M  V30 177 C 16.744 1.41943 -0.755569 0
M  V30 178 O 17.934 1.40947 -1.02369 0
M  V30 179 C 15.066 2.69067 -2.09323 0
M  V30 180 H 16.259 1.03297 -2.81549 0
M  V30 181 H 13.812 0.502989 -1.47986 0
M  V30 182 H 14.547 3.01982 -1.18226 0
M  V30 183 H 14.332 2.62542 -2.91229 0
M  V30 184 H 15.822 3.44623 -2.35848 0
M  V30 185 N 16.2591 1.48442 0.529413 0
M  V30 186 C 17.2091 1.59407 1.63014 0
M  V30 187 C 18.1931 0.451166 1.54445 0
M  V30 188 O 19.3851 0.702635 1.62456 0
M  V30 189 C 16.5141 1.63746 3.01732 0
M  V30 190 C 15.6001 2.83518 3.15402 0
M  V30 191 N 15.9911 4.07929 2.99045 0
M  V30 192 C 14.2891 2.80862 3.46457 0
M  V30 193 C 14.9901 4.8829 3.16146 0
M  V30 194 N 13.9661 4.21117 3.43746 0
M  V30 195 H 17.7681 2.53343 1.48978 0
M  V30 196 H 15.2821 1.44821 0.734885 0
M  V30 197 H 17.2791 1.69695 3.80801 0
M  V30 198 H 15.9391 0.709264 3.16859 0
M  V30 199 H 16.9501 4.38357 2.75796 0
M  V30 200 H 13.6271 1.97301 3.67938 0
M  V30 201 H 15.0171 5.97028 3.08232 0
M  V30 202 N 17.7372 -0.778329 1.37039 0
M  V30 203 C 18.6672 -1.90546 1.34962 0
M  V30 204 C 19.6482 -1.68681 0.219274 0
M  V30 205 O 20.8332 -1.89634 0.418624 0
M  V30 206 C 17.9632 -3.27734 1.14925 0
M  V30 207 C 16.9172 -3.64147 2.24902 0
M  V30 208 C 16.2432 -4.99806 1.89996 0
M  V30 209 C 17.5432 -3.71579 3.67051 0
M  V30 210 H 19.2372 -1.92541 2.29277 0
M  V30 211 H 16.7832 -0.924948 1.10366 0
M  V30 212 H 18.7362 -4.06215 1.12104 0
M  V30 213 H 17.4602 -3.26154 0.170631 0
M  V30 214 H 16.1192 -2.8797 2.26868 0
M  V30 215 H 15.7672 -4.94759 0.906796 0
M  V30 216 H 15.4672 -5.25139 2.63634 0
M  V30 217 H 16.9912 -5.80694 1.88749 0
M  V30 218 H 18.4052 -4.40227 3.67251 0
M  V30 219 H 16.8022 -4.08405 4.39688 0
M  V30 220 H 17.8722 -2.72404 4.01154 0
M  V30 221 N 19.2153 -1.21501 -1.00376 0
M  V30 222 C 20.4643 -1.02718 -1.73586 0
M  V30 223 C 20.7773 0.439589 -1.90596 0
M  V30 224 O 21.9833 0.746848 -2.61026 0
M  V30 225 C 20.4393 -1.78929 -3.1227 0
M  V30 226 C 20.0473 -3.29783 -3.03228 0
M  V30 227 C 21.7913 -1.68557 -3.89601 0
M  V30 228 C 19.6983 -3.98479 -4.36999 0
M  V30 229 H 18.6283 -0.380733 -0.650814 0
M  V30 230 H 21.2793 -1.45248 -1.1214 0
M  V30 231 H 19.6613 -1.29192 -3.74333 0
M  V30 232 H 20.8353 -3.86832 -2.50395 0
M  V30 233 H 19.1503 -3.40711 -2.39385 0
M  V30 234 H 21.7473 -2.17211 -4.88593 0
M  V30 235 H 22.0903 -0.644021 -4.11288 0
M  V30 236 H 22.6233 -2.15778 -3.34193 0
M  V30 237 H 19.3623 -5.02841 -4.20513 0
M  V30 238 H 18.8823 -3.46219 -4.89788 0
M  V30 239 H 20.5613 -4.03462 -5.05794 0
M  V30 240 N 20.6934 1.19889 -1.02296 0
M  V30 241 C 21.6414 2.24938 -0.592081 0
M  V30 242 C 22.6354 1.65257 0.372357 0
M  V30 243 O 23.8414 1.78371 0.241583 0
M  V30 244 H 20.2164 0.731787 -0.173182 0
M  V30 245 H 22.1874 2.58603 -1.48885 0
M  V30 246 C 20.9364 3.47668 0.047351 0
M  V30 247 H 20.2594 3.93875 -0.685772 0
M  V30 248 H 21.6994 4.22852 0.311862 0
M  V30 249 C 20.1584 3.11136 1.29212 0
M  V30 250 O 20.6884 3.2325 2.38479 0
M  V30 251 N 18.8944 2.65625 1.17863 0
M  V30 252 H 18.4414 2.55968 0.289493 0
M  V30 253 H 18.3994 2.41553 2.01245 0
M  V30 254 N 22.1715 0.800033 1.35784 0
M  V30 255 C 23.4015 0.389041 2.02904 0
M  V30 256 C 23.8095 -1.0027 1.60445 0
M  V30 257 O 23.1525 -1.65633 0.794453 0
M  V30 258 C 23.2145 0.385495 3.57427 0
M  V30 259 C 22.8785 1.72662 4.23127 0
M  V30 260 C 23.8755 2.68385 4.4527 0
M  V30 261 C 21.5605 2.00883 4.60381 0
M  V30 262 C 23.5545 3.90517 5.03761 0
M  V30 263 C 21.2415 3.2328 5.18588 0
M  V30 264 C 22.2395 4.17915 5.40218 0
M  V30 265 O 21.9275 5.38153 5.97199 0
M  V30 266 H 21.6595 0.157032 0.657508 0
M  V30 267 H 24.2135 1.08311 1.74522 0
M  V30 268 H 22.4435 -0.365128 3.84972 0
M  V30 269 H 24.1325 -0.00228296 4.059 0
M  V30 270 H 24.8985 2.47872 4.16874 0
M  V30 271 H 20.7775 1.28037 4.42863 0
M  V30 272 H 24.3215 4.64395 5.2056 0
M  V30 273 H 20.2185 3.43667 5.4641 0
M  V30 274 H 20.9865 5.3936 6.15656 0
M  V30 275 N 23.6496 -1.47581 0.552962 0
M  V30 276 C 25.0606 -1.86324 0.118463 0
M  V30 277 C 25.4116 -1.46006 -1.3106 0
M  V30 278 O 24.5366 -0.861182 -1.98526 0
M  V30 279 C 25.1316 -3.3816 0.20821 0
M  V30 280 C 23.6906 -3.7601 -0.171226 0
M  V30 281 C 22.8376 -2.71634 0.557686 0
M  V30 282 H 25.7886 -1.39159 0.762928 0
M  V30 283 H 25.8096 -3.76141 -0.574278 0
M  V30 284 H 25.3216 -3.67473 1.24841 0
M  V30 285 H 23.4226 -3.52313 -1.21269 0
M  V30 286 H 23.5356 -4.78745 0.184379 0
M  V30 287 H 21.8996 -2.547 0.00125792 0
M  V30 288 H 22.6826 -3.0379 1.59896 0
M  V30 289 N 25.1277 -0.289203 -1.54924 0
M  V30 290 C 26.3677 0.324536 -2.01807 0
M  V30 291 C 26.7317 1.5199 -1.17316 0
M  V30 292 O 27.9327 2.20422 -1.53843 0
M  V30 293 C 26.2037 0.683578 -3.50802 0
M  V30 294 S 27.7627 1.28185 -4.19659 0
M  V30 295 H 24.5807 0.100236 -0.703899 0
M  V30 296 H 27.1827 -0.414325 -1.91059 0
M  V30 297 H 25.8867 -0.195073 -4.09936 0
M  V30 298 H 25.4177 1.45354 -3.65562 0
M  V30 299 H 27.4327 2.57006 -4.24456 0
M  V30 300 N 26.6058 1.57591 -0.0167156 0
M  V30 301 C 28.0168 1.79201 0.523834 0
M  V30 302 C 28.3678 0.925796 1.72984 0
M  V30 303 O 27.4928 0.132792 2.15992 0
M  V30 304 C 28.0878 3.25 0.957091 0
M  V30 305 C 26.6468 3.47648 1.44283 0
M  V30 306 C 25.7938 2.74374 0.401757 0
M  V30 307 H 28.7448 1.56831 -0.242816 0
M  V30 308 H 28.7658 3.34031 1.82219 0
M  V30 309 H 28.2778 3.88019 0.0791415 0
M  V30 310 H 26.3788 2.89866 2.34113 0
M  V30 311 H 26.4918 4.56352 1.45877 0
M  V30 312 H 24.8558 2.39485 0.867121 0
M  V30 313 H 25.6388 3.40102 -0.467513 0
M  V30 314 N 28.0839 -0.256276 1.55502 0
M  V30 315 C 29.0139 -1.32102 1.92539 0
M  V30 316 C 29.9949 -1.50684 0.789194 0
M  V30 317 O 31.1799 -1.63449 1.04872 0
M  V30 318 C 28.3099 -2.67752 2.21192 0
M  V30 319 C 27.2639 -2.63878 3.36975 0
M  V30 320 C 26.5899 -4.03236 3.51147 0
M  V30 321 C 27.8899 -2.21682 4.72921 0
M  V30 322 H 29.5839 -1.01351 2.81724 0
M  V30 323 H 27.1299 -0.486105 1.35547 0
M  V30 324 H 29.0829 -3.42365 2.45691 0
M  V30 325 H 27.8069 -3.0012 1.28824 0
M  V30 326 H 26.4659 -1.91722 3.12471 0
M  V30 327 H 26.1139 -4.32854 2.56216 0
M  V30 328 H 25.8139 -4.01535 4.29003 0
M  V30 329 H 27.3379 -4.79563 3.77957 0
M  V30 330 H 28.7519 -2.86023 4.96854 0
M  V30 331 H 27.1489 -2.3111 5.53812 0
M  V30 332 H 28.2189 -1.16833 4.70615 0
M  V30 333 N 29.562 -1.4872 -0.521534 0
M  V30 334 C 30.51 -1.64328 -1.64618 0
M  V30 335 C 31.504 -0.50953 -1.61555 0
M  V30 336 O 32.71 -0.688525 -1.66311 0
M  V30 337 H 29.085 -0.517805 -0.545328 0
M  V30 338 H 31.056 -2.58767 -1.48601 0
M  V30 339 C 29.805 -1.70805 -3.02855 0
M  V30 340 H 29.128 -2.5741 -3.05909 0
M  V30 341 H 30.568 -1.85766 -3.81139 0
M  V30 342 C 29.027 -0.448479 -3.33902 0
M  V30 343 O 29.557 0.434928 -3.99339 0
M  V30 344 N 27.763 -0.317616 -2.88859 0
M  V30 345 H 27.31 -1.03748 -2.35784 0
M  V30 346 H 27.268 0.524113 -3.10001 0
M  V30 347 N 31.0401 0.771051 -1.3745 0
M  V30 348 C 32.2891 1.52491 -1.3202 0
M  V30 349 C 32.6021 1.9538 0.0927347 0
M  V30 350 O 33.8081 2.70159 0.269503 0
M  V30 351 C 32.2641 2.75366 -2.31736 0
M  V30 352 C 31.8721 2.39573 -3.78562 0
M  V30 353 C 33.6161 3.53307 -2.35318 0
M  V30 354 C 31.5231 3.58954 -4.70007 0
M  V30 355 H 30.4531 0.572506 -0.490666 0
M  V30 356 H 33.1041 0.844474 -1.62914 0
M  V30 357 H 31.4861 3.45303 -1.93861 0
M  V30 358 H 32.6601 1.77415 -4.25277 0
M  V30 359 H 30.9751 1.74805 -3.77932 0
M  V30 360 H 33.5721 4.42039 -3.00842 0
M  V30 361 H 33.9151 3.93217 -1.36698 0
M  V30 362 H 34.4481 2.90367 -2.71904 0
M  V30 363 H 31.1871 3.24125 -5.69757 0
M  V30 364 H 30.7071 4.20214 -4.27996 0
M  V30 365 H 32.3861 4.25758 -4.87175 0
M  V30 366 N 32.5182 1.22032 0.997298 0
M  V30 367 C 33.4662 0.983634 2.10778 0
M  V30 368 C 34.4602 -0.0717564 1.69248 0
M  V30 369 O 35.6662 0.080304 1.79821 0
M  V30 370 H 32.0412 0.300877 0.689186 0
M  V30 371 H 34.0122 1.92606 2.27916 0
M  V30 372 C 32.7612 0.57326 3.42942 0
M  V30 373 H 32.0842 1.37702 3.75338 0
M  V30 374 H 33.5242 0.447031 4.21637 0
M  V30 375 C 31.9832 -0.7167 3.29188 0
M  V30 376 O 32.5132 -1.77027 3.60589 0
M  V30 377 N 30.7192 -0.686167 2.82383 0
M  V30 378 H 30.2662 0.171507 2.57028 0
M  V30 379 H 30.2242 -1.54955 2.73562 0
M  V30 380 N 33.9963 -1.19345 1.0293 0
M  V30 381 C 35.2433 -1.89038 0.726008 0
M  V30 382 C 35.5713 -1.79649 -0.745427 0
M  V30 383 O 34.8263 -1.18354 -1.55855 0
M  V30 384 C 35.1253 -3.39292 1.12319 0
M  V30 385 C 34.7913 -3.68885 2.59297 0
M  V30 386 C 33.4533 -3.76671 2.99453 0
M  V30 387 C 35.8053 -3.82178 3.54386 0
M  V30 388 C 33.1333 -3.9522 4.33611 0
M  V30 389 C 35.4853 -4.0224 4.88248 0
M  V30 390 C 34.1493 -4.08259 5.28092 0
M  V30 391 H 33.4193 -0.691739 0.265665 0
M  V30 392 H 36.0663 -1.41328 1.29223 0
M  V30 393 H 34.3713 -3.88903 0.475584 0
M  V30 394 H 36.0683 -3.91536 0.866037 0
M  V30 395 H 32.6583 -3.63433 2.27189 0
M  V30 396 H 36.8423 -3.75505 3.24514 0
M  V30 397 H 32.0983 -3.98119 4.64016 0
M  V30 398 H 36.2723 -4.11468 5.61843 0
M  V30 399 H 33.8993 -4.22384 6.32057 0
M  V30 400 N 35.4744 -0.807222 -1.35358 0
M  V30 401 C 36.4044 -0.232509 -2.3234 0
M  V30 402 C 37.3854 0.642386 -1.57504 0
M  V30 403 O 38.5704 0.572526 -1.85569 0
M  V30 404 C 35.7004 0.619238 -3.41735 0
M  V30 405 C 34.6544 -0.157215 -4.27711 0
M  V30 406 C 33.9804 0.816273 -5.28433 0
M  V30 407 C 35.2804 -1.35656 -5.04376 0
M  V30 408 H 36.9744 -1.04276 -2.80654 0
M  V30 409 H 34.5204 -0.50288 -1.34934 0
M  V30 410 H 36.4734 1.03137 -4.08584 0
M  V30 411 H 35.1974 1.46239 -2.92031 0
M  V30 412 H 33.8564 -0.550525 -3.62443 0
M  V30 413 H 33.5044 1.65494 -4.74996 0
M  V30 414 H 33.2044 0.301067 -5.86828 0
M  V30 415 H 34.7284 1.22659 -5.98153 0
M  V30 416 H 36.1424 -1.01927 -5.64166 0
M  V30 417 H 34.5394 -1.8063 -5.7227 0
M  V30 418 H 35.6094 -2.14288 -4.34981 0
M  V30 419 N 36.9525 1.47285 -0.560781 0
M  V30 420 C 38.1985 2.03347 -0.0463654 0
M  V30 421 C 38.5535 1.42702 1.2905 0
M  V30 422 O 37.8465 0.574619 1.8278 0
M  V30 423 C 38.0405 3.57258 0.100784 0
M  V30 424 C 37.8695 4.32827 -1.22027 0
M  V30 425 C 36.6395 4.72588 -1.78854 0
M  V30 426 C 38.8375 4.67739 -2.13834 0
M  V30 427 N 36.8195 5.32816 -3.04927 0
M  V30 428 C 38.1905 5.28307 -3.24487 0
M  V30 429 C 40.2455 4.49667 -2.13784 0
M  V30 430 C 38.9485 5.72711 -4.35194 0
M  V30 431 C 40.9745 4.95073 -3.23506 0
M  V30 432 C 40.3365 5.55693 -4.32879 0
M  V30 433 H 36.4355 0.779755 -0.0592166 0
M  V30 434 H 39.0195 1.79723 -0.748857 0
M  V30 435 H 37.1905 3.80642 0.772404 0
M  V30 436 H 38.9225 3.9996 0.617589 0
M  V30 437 H 35.6775 4.54656 -1.32609 0
M  V30 438 H 36.1015 5.67471 -3.69197 0
M  V30 439 H 40.7435 4.02154 -1.30507 0
M  V30 440 H 38.4615 6.19214 -5.1923 0
M  V30 441 H 42.0475 4.82859 -3.24559 0
M  V30 442 H 40.9275 5.90188 -5.1638 0
M  V30 443 N 38.4306 0.297415 1.54768 0
M  V30 444 C 39.3786 -0.596051 2.24833 0
M  V30 445 C 40.3726 -1.13992 1.25308 0
M  V30 446 O 41.5786 -1.09098 1.4317 0
M  V30 447 H 37.9536 -0.210814 0.721846 0
M  V30 448 H 39.9246 0.0174667 2.98395 0
M  V30 449 C 38.6736 -1.75818 2.99972 0
M  V30 450 H 37.9966 -1.3489 3.76357 0
M  V30 451 H 39.4366 -2.35949 3.52284 0
M  V30 452 C 37.8956 -2.66014 2.06732 0
M  V30 453 O 38.4256 -3.67009 1.63302 0
M  V30 454 N 36.6316 -2.33669 1.72763 0
M  V30 455 H 36.1786 -1.51586 2.08277 0
M  V30 456 H 36.1366 -2.94285 1.10652 0
M  V30 457 N 39.9087 -1.5758 0.0250728 0
M  V30 458 C 41.1387 -1.95646 -0.663783 0
M  V30 459 C 41.5467 -0.899935 -1.66427 0
M  V30 460 O 40.8897 0.127191 -1.83259 0
M  V30 461 C 40.9517 -3.29835 -1.43 0
M  V30 462 C 40.6157 -4.53197 -0.588305 0
M  V30 463 C 41.6127 -5.19726 0.13469 0
M  V30 464 C 39.2977 -4.99529 -0.526897 0
M  V30 465 C 41.2917 -6.30902 0.90781 0
M  V30 466 C 38.9787 -6.10589 0.24993 0
M  V30 467 C 39.9767 -6.76134 0.965994 0
M  V30 468 O 39.6647 -7.85062 1.7301 0
M  V30 469 H 39.3967 -0.649282 -0.188174 0
M  V30 470 H 41.9507 -2.05245 0.0799006 0
M  V30 471 H 40.1807 -3.16716 -2.21873 0
M  V30 472 H 41.8697 -3.52833 -2.00658 0
M  V30 473 H 42.6357 -4.84904 0.0965562 0
M  V30 474 H 38.5147 -4.48319 -1.07381 0
M  V30 475 H 42.0587 -6.81995 1.46724 0
M  V30 476 H 37.9557 -6.44849 0.289795 0
M  V30 477 H 38.7237 -8.01708 1.64944 0
M  V30 478 N 41.3868 0.248026 -1.55636 0
M  V30 479 C 42.6348 0.974295 -1.77065 0
M  V30 480 C 42.9558 1.85897 -0.588849 0
M  V30 481 O 42.2258 1.91868 0.395407 0
M  V30 482 H 40.8058 0.362733 -0.653019 0
M  V30 483 H 43.4678 0.266244 -1.93073 0
M  V30 484 H 42.5638 1.59667 -2.68166 0
M  V30 485 N 42.8649 1.48995 0.513639 0
M  V30 486 C 44.1119 1.57843 1.26854 0
M  V30 487 C 44.4399 0.259501 1.92761 0
M  V30 488 O 43.6949 -0.75159 1.80692 0
M  V30 489 C 43.9939 2.67756 2.36731 0
M  V30 490 C 43.6599 4.09669 1.88368 0
M  V30 491 C 42.3219 4.48291 1.74896 0
M  V30 492 C 44.6739 4.98537 1.52021 0
M  V30 493 C 42.0019 5.73568 1.23438 0
M  V30 494 C 44.3539 6.24319 1.0202 0
M  V30 495 C 43.0179 6.61783 0.871778 0
M  V30 496 H 42.2879 0.577587 0.464192 0
M  V30 497 H 44.9349 1.82778 0.571366 0
M  V30 498 H 43.2399 2.36743 3.12185 0
M  V30 499 H 44.9369 2.71813 2.9482 0
M  V30 500 H 41.5269 3.79176 1.99808 0
M  V30 501 H 45.7109 4.69363 1.61281 0
M  V30 502 H 40.9669 6.01304 1.10648 0
M  V30 503 H 45.1409 6.92566 0.729722 0
M  V30 504 H 42.7679 7.5874 0.470852 0
M  V30 505 N 44.343 -0.763751 1.37857 0
M  V30 506 C 45.273 -1.89103 1.36975 0
M  V30 507 C 46.254 -1.68439 0.237152 0
M  V30 508 O 47.439 -1.8918 0.438713 0
M  V30 509 C 44.569 -3.26496 1.18395 0
M  V30 510 C 43.523 -3.61741 2.28751 0
M  V30 511 C 42.849 -4.97762 1.95286 0
M  V30 512 C 44.149 -3.67665 3.70972 0
M  V30 513 H 45.843 -1.90099 2.31307 0
M  V30 514 H 43.389 -0.91319 1.11341 0
M  V30 515 H 45.342 -4.05003 1.16406 0
M  V30 516 H 44.066 -3.25955 0.205215 0
M  V30 517 H 42.725 -2.85547 2.29909 0
M  V30 518 H 42.373 -4.93769 0.959221 0
M  V30 519 H 42.073 -5.22313 2.69189 0
M  V30 520 H 43.597 -5.7866 1.94898 0
M  V30 521 H 45.011 -4.36307 3.719 0
M  V30 522 H 43.408 -4.03718 4.43995 0
M  V30 523 H 44.478 -2.68134 4.0402 0
M  V30 524 N 45.8211 -1.22559 -0.990812 0
M  V30 525 C 46.7511 -1.0218 -2.09956 0
M  V30 526 C 47.7321 0.0579394 -1.70001 0
M  V30 527 O 48.9171 -0.104684 -1.93918 0
M  V30 528 C 46.0471 -0.601023 -3.4206 0
M  V30 529 C 45.0011 -1.62694 -3.95872 0
M  V30 530 C 44.3271 -1.06193 -5.24049 0
M  V30 531 C 45.6271 -3.01743 -4.2632 0
M  V30 532 H 47.3211 -1.94916 -2.27262 0
M  V30 533 H 44.8671 -0.938566 -1.09211 0
M  V30 534 H 46.8201 -0.445561 -4.19038 0
M  V30 535 H 45.5441 0.362005 -3.24588 0
M  V30 536 H 44.2031 -1.77021 -3.21028 0
M  V30 537 H 43.8511 -0.0901903 -5.02919 0
M  V30 538 H 43.5511 -1.74732 -5.61019 0
M  V30 539 H 45.0751 -0.918092 -6.03658 0
M  V30 540 H 46.4891 -2.90777 -4.94087 0
M  V30 541 H 44.8861 -3.67425 -4.74467 0
M  V30 542 H 45.9561 -3.51518 -3.34011 0
M  V30 543 N 47.2992 1.18797 -1.03562 0
M  V30 544 C 48.5472 1.88278 -0.734569 0
M  V30 545 C 48.8682 1.8043 0.739586 0
M  V30 546 O 48.1382 1.21925 1.53333 0
M  V30 547 H 46.7182 0.696991 -0.268725 0
M  V30 548 H 49.3802 1.44192 -1.31129 0
M  V30 549 H 48.4762 2.94443 -1.03489 0
M  V30 550 N 48.7773 0.814389 1.34928 0
M  V30 551 C 50.0263 0.394871 1.97797 0
M  V30 552 C 50.3393 -1.04555 1.65311 0
M  V30 553 O 51.5453 -1.56856 2.21604 0
M  V30 554 C 50.0013 0.655103 3.53888 0
M  V30 555 C 49.6093 2.10858 3.95276 0
M  V30 556 C 51.3533 0.301329 4.23429 0
M  V30 557 C 49.2603 2.31415 5.44244 0
M  V30 558 H 48.1903 0.143913 0.740139 0
M  V30 559 H 50.8413 0.999544 1.53888 0
M  V30 560 H 49.2233 -0.0196253 3.95995 0
M  V30 561 H 50.3973 2.82176 3.64298 0
M  V30 562 H 48.7123 2.42297 3.38646 0
M  V30 563 H 51.3093 0.432869 5.32945 0
M  V30 564 H 51.6523 -0.75331 4.09428 0
M  V30 565 H 52.1853 0.930288 3.86769 0
M  V30 566 H 48.9243 3.35353 5.63222 0
M  V30 567 H 48.4443 1.6463 5.76764 0
M  V30 568 H 50.1233 2.13352 6.10811 0
M  V30 569 N 50.2554 -1.46986 0.568584 0
M  V30 570 C 51.5044 -2.01646 0.0465894 0
M  V30 571 C 51.8174 -1.44721 -1.31587 0
M  V30 572 O 53.0234 -1.91113 -1.92842 0
M  V30 573 C 51.4794 -3.59885 0.032752 0
M  V30 574 C 51.0874 -4.25804 1.39266 0
M  V30 575 C 52.8314 -4.22255 -0.436038 0
M  V30 576 C 50.7384 -5.76081 1.33732 0
M  V30 577 H 49.6684 -0.753876 0.013647 0
M  V30 578 H 52.3194 -1.68864 0.718131 0
M  V30 579 H 50.7014 -3.8968 -0.704669 0
M  V30 580 H 51.8754 -4.07637 2.1487 0
M  V30 581 H 50.1904 -3.7547 1.80032 0
M  V30 582 H 52.7874 -5.32394 -0.49602 0
M  V30 583 H 53.1304 -3.90212 -1.45053 0
M  V30 584 H 53.6634 -3.97033 0.246877 0
M  V30 585 H 50.4024 -6.12761 2.32817 0
M  V30 586 H 49.9224 -5.96553 0.623267 0
M  V30 587 H 51.6014 -6.38518 1.0442 0
M  V30 588 N 51.7335 -0.305618 -1.54608 0
M  V30 589 C 52.9805 0.302298 -2.00231 0
M  V30 590 C 53.3085 1.5354 -1.19398 0
M  V30 591 O 52.5635 1.93973 -0.259423 0
M  V30 592 C 52.8625 0.698983 -3.50498 0
M  V30 593 C 52.5285 -0.432903 -4.48817 0
M  V30 594 C 51.1905 -0.743622 -4.75419 0
M  V30 595 C 53.5425 -1.19409 -5.07337 0
M  V30 596 C 50.8705 -1.81857 -5.57804 0
M  V30 597 C 53.2225 -2.25899 -5.90891 0
M  V30 598 C 51.8865 -2.57572 -6.15803 0
M  V30 599 H 51.1565 0.110619 -0.732697 0
M  V30 600 H 53.8035 -0.425674 -1.86709 0
M  V30 601 H 52.1085 1.50711 -3.61654 0
M  V30 602 H 53.8055 1.1806 -3.83227 0
M  V30 603 H 50.3955 -0.18063 -4.28219 0
M  V30 604 H 54.5795 -0.967295 -4.86782 0
M  V30 605 H 49.8355 -2.06864 -5.75341 0
M  V30 606 H 54.0095 -2.85335 -6.35261 0
M  V30 607 H 51.6365 -3.40998 -6.7943 0
M  V30 608 N 53.2116 1.57565 -0.0334293 0
M  V30 609 C 54.4586 1.91978 0.644272 0
M  V30 610 C 54.7866 0.910231 1.71887 0
M  V30 611 O 54.0416 -0.0801961 1.95536 0
M  V30 612 C 54.3406 3.33112 1.29504 0
M  V30 613 C 54.0066 4.49537 0.350388 0
M  V30 614 C 52.6686 4.81115 0.0903974 0
M  V30 615 C 55.0206 5.20347 -0.298032 0
M  V30 616 C 52.3486 5.8086 -0.825746 0
M  V30 617 C 54.7006 6.2107 -1.20226 0
M  V30 618 C 53.3646 6.51088 -1.4711 0
M  V30 619 H 52.6346 0.702496 0.235756 0
M  V30 620 H 55.2816 1.91259 -0.0961176 0
M  V30 621 H 53.5866 3.30113 2.11028 0
M  V30 622 H 55.2836 3.57011 1.82603 0
M  V30 623 H 51.8736 4.24883 0.563205 0
M  V30 624 H 56.0576 4.96178 -0.110234 0
M  V30 625 H 51.3136 6.02461 -1.04169 0
M  V30 626 H 55.4876 6.75057 -1.71086 0
M  V30 627 H 53.1146 7.28193 -2.18264 0
M  V30 628 N 54.6897 -0.239769 1.55765 0
M  V30 629 C 55.9387 -0.964754 1.77131 0
M  V30 630 C 56.2517 -1.86213 0.59868 0
M  V30 631 O 57.4577 -2.6244 0.695522 0
M  V30 632 C 55.9137 -1.76552 3.1362 0
M  V30 633 C 55.5217 -0.915185 4.38553 0
M  V30 634 C 57.2657 -2.48281 3.44321 0
M  V30 635 C 55.1727 -1.71225 5.66071 0
M  V30 636 H 54.1027 -0.363953 0.660344 0
M  V30 637 H 56.7537 -0.219181 1.82186 0
M  V30 638 H 55.1357 -2.55331 3.02691 0
M  V30 639 H 56.3097 -0.169217 4.60489 0
M  V30 640 H 54.6247 -0.310889 4.15238 0
M  V30 641 H 57.2217 -3.08382 4.36812 0
M  V30 642 H 57.5647 -3.20256 2.65973 0
M  V30 643 H 58.0977 -1.76507 3.56497 0
M  V30 644 H 54.8367 -1.03612 6.4726 0
M  V30 645 H 54.3567 -2.43331 5.48224 0
M  V30 646 H 56.0357 -2.27758 6.05587 0
M  V30 647 N 56.1678 -1.49265 -0.50573 0
M  V30 648 C 57.0998 -1.617 -1.62437 0
M  V30 649 C 58.1128 -0.499924 -1.54934 0
M  V30 650 O 59.3018 -0.771785 -1.60953 0
M  V30 651 C 56.4018 -1.5533 -3.01207 0
M  V30 652 C 55.5748 -2.8249 -3.33943 0
M  V30 653 C 54.6338 -2.69238 -4.52103 0
M  V30 654 O 53.6598 -3.43167 -4.5412 0
M  V30 655 N 54.8618 -1.80468 -5.51735 0
M  V30 656 H 57.6268 -2.58177 -1.52199 0
M  V30 657 H 55.1878 -1.46294 -0.693511 0
M  V30 658 H 57.1798 -1.44125 -3.78167 0
M  V30 659 H 55.7498 -0.667297 -3.05395 0
M  V30 660 H 54.9698 -3.08081 -2.45926 0
M  V30 661 H 56.2578 -3.66802 -3.5261 0
M  V30 662 H 55.6558 -1.19653 -5.52901 0
M  V30 663 H 54.2128 -1.75188 -6.27816 0
M  V30 664 N 57.6459 0.756429 -1.3826 0
M  V30 665 C 58.8949 1.51082 -1.3363 0
M  V30 666 C 59.2079 1.95467 0.0720068 0
M  V30 667 O 60.4139 2.7043 0.240834 0
M  V30 668 C 58.8699 2.72893 -2.34644 0
M  V30 669 C 58.4779 2.35544 -3.81081 0
M  V30 670 C 60.2219 3.50791 -2.39052 0
M  V30 671 C 58.1289 3.53948 -4.73787 0
M  V30 672 H 57.0589 0.56727 -0.49671 0
M  V30 673 H 59.7099 0.827147 -1.638 0
M  V30 674 H 58.0919 3.43227 -1.97513 0
M  V30 675 H 59.2659 1.72894 -4.27135 0
M  V30 676 H 57.5809 1.70786 -3.79764 0
M  V30 677 H 60.1779 4.38823 -3.05513 0
M  V30 678 H 60.5209 3.91745 -1.40861 0
M  V30 679 H 61.0539 2.87467 -2.74968 0
M  V30 680 H 57.7929 3.18064 -5.73163 0
M  V30 681 H 57.3129 4.15651 -4.32428 0
M  V30 682 H 58.9919 4.20566 -4.91663 0
M  V30 683 N 59.124 1.23083 0.984299 0
M  V30 684 C 60.373 1.05466 1.71929 0
M  V30 685 C 60.686 -0.409211 1.91272 0
M  V30 686 O 61.892 -0.705226 2.62181 0
M  V30 687 C 60.348 1.83874 3.09384 0
M  V30 688 C 59.956 3.34566 2.97943 0
M  V30 689 C 61.7 1.74734 3.8687 0
M  V30 690 C 59.607 4.05381 4.30605 0
M  V30 691 H 58.537 0.391039 0.644674 0
M  V30 692 H 61.188 1.47013 1.09815 0
M  V30 693 H 59.57 1.35131 3.72231 0
M  V30 694 H 60.744 3.90767 2.44209 0
M  V30 695 H 59.059 3.44476 2.33934 0
M  V30 696 H 61.656 2.24957 4.85076 0
M  V30 697 H 61.999 0.709372 4.10212 0
M  V30 698 H 62.532 2.21067 3.30717 0
M  V30 699 H 59.271 5.09467 4.1246 0
M  V30 700 H 58.791 3.53967 4.84218 0
M  V30 701 H 60.47 4.11458 4.99311 0
M  V30 702 N 60.6021 -1.18246 1.0419 0
M  V30 703 C 61.8301 -1.92195 0.766072 0
M  V30 704 C 62.2451 -1.76247 -0.676933 0
M  V30 705 O 61.6021 -1.09293 -1.46155 0
M  V30 706 C 61.6531 -3.43568 1.12442 0
M  V30 707 O 61.3741 -3.59015 2.51078 0
M  V30 708 C 62.8751 -4.34613 0.873275 0
M  V30 709 H 60.0951 -0.610114 0.279288 0
M  V30 710 H 62.6391 -1.50007 1.38989 0
M  V30 711 H 60.7941 -3.8354 0.545542 0
M  V30 712 H 61.2081 -4.5273 2.64831 0
M  V30 713 H 62.6821 -5.39374 1.17385 0
M  V30 714 H 63.1591 -4.38781 -0.191909 0
M  V30 715 H 63.7651 -4.00341 1.43551 0
M  V30 716 N 62.0802 -0.821533 -1.34494 0
M  V30 717 C 63.3282 -0.408139 -1.97936 0
M  V30 718 C 63.6492 1.03193 -1.65457 0
M  V30 719 O 62.9192 1.71622 -0.944595 0
M  V30 720 H 61.4992 -0.147928 -0.732206 0
M  V30 721 H 64.1612 -1.05067 -1.64155 0
M  V30 722 H 63.2572 -0.52601 -3.07635 0
M  V30 723 N 63.5583 1.46682 -0.576371 0
M  V30 724 C 64.8043 2.02712 -0.0596221 0
M  V30 725 C 65.1373 1.44765 1.29448 0
M  V30 726 O 64.4123 0.610355 1.84675 0
M  V30 727 C 64.6953 3.60098 0.0129503 0
M  V30 728 C 64.5483 4.28441 -1.3696 0
M  V30 729 C 65.8673 4.34224 0.71678 0
M  V30 730 H 62.9863 0.736637 -0.0231407 0
M  V30 731 H 65.6283 1.74898 -0.742351 0
M  V30 732 H 63.7783 3.83926 0.594378 0
M  V30 733 H 65.4503 4.15896 -1.9957 0
M  V30 734 H 63.6933 3.8805 -1.93907 0
M  V30 735 H 64.3643 5.3716 -1.27135 0
M  V30 736 H 66.8403 4.15503 0.222908 0
M  V30 737 H 65.7163 5.43936 0.73657 0
M  V30 738 H 65.9773 4.04823 1.77682 0
M  V30 739 N 65.0364 0.313813 1.54444 0
M  V30 740 C 66.2834 -0.291675 2.00388 0
M  V30 741 C 66.6114 -1.52904 1.2021 0
M  V30 742 O 65.8664 -1.93833 0.269707 0
M  V30 743 C 66.1654 -0.680386 3.50864 0
M  V30 744 C 65.8314 0.456699 4.48581 0
M  V30 745 C 64.4934 0.768824 4.75018 0
M  V30 746 C 66.8454 1.22098 5.06697 0
M  V30 747 C 64.1734 1.84812 5.56831 0
M  V30 748 C 66.5254 2.29029 5.89685 0
M  V30 749 C 65.1894 2.60834 6.14428 0
M  V30 750 H 64.4594 -0.106732 0.733273 0
M  V30 751 H 67.1064 0.43557 1.86481 0
M  V30 752 H 65.4114 -1.48791 3.62448 0
M  V30 753 H 67.1084 -1.16026 3.83847 0
M  V30 754 H 63.6984 0.203337 4.28117 0
M  V30 755 H 67.8824 0.993096 4.86263 0
M  V30 756 H 63.1384 2.09912 5.74236 0
M  V30 757 H 67.3124 2.887 6.33739 0
M  V30 758 H 64.9394 3.44596 6.77612 0
M  V30 759 N 66.5145 -1.57545 0.0417849 0
M  V30 760 C 67.4445 -2.14009 -0.933929 0
M  V30 761 C 68.4255 -1.05938 -1.33083 0
M  V30 762 O 69.6105 -1.33833 -1.40721 0
M  V30 763 C 66.7405 -2.67747 -2.21199 0
M  V30 764 C 65.6945 -3.80718 -1.95544 0
M  V30 765 C 65.0205 -4.20935 -3.29724 0
M  V30 766 C 66.3205 -5.06258 -1.28452 0
M  V30 767 H 68.0145 -2.95788 -0.463645 0
M  V30 768 H 65.5605 -1.42285 -0.221573 0
M  V30 769 H 67.5135 -3.05886 -2.89848 0
M  V30 770 H 66.2375 -1.83147 -2.70416 0
M  V30 771 H 64.8965 -3.43037 -1.2931 0
M  V30 772 H 64.5445 -3.33298 -3.76724 0
M  V30 773 H 64.2445 -4.9707 -3.13361 0
M  V30 774 H 65.7685 -4.61666 -3.9962 0
M  V30 775 H 67.1825 -5.41903 -1.8712 0
M  V30 776 H 65.5795 -5.87475 -1.22445 0
M  V30 777 H 66.6495 -4.84207 -0.259219 0
M  V30 778 N 67.9926 0.231505 -1.5589 0
M  V30 779 C 68.9556 1.27028 -1.90779 0
M  V30 780 C 69.9556 1.40308 -0.785507 0
M  V30 781 O 71.1456 1.38744 -1.05336 0
M  V30 782 C 68.2776 2.64566 -2.14983 0
M  V30 783 H 69.4706 0.973017 -2.83677 0
M  V30 784 H 67.0236 0.471486 -1.49019 0
M  V30 785 H 67.7586 2.99406 -1.24604 0
M  V30 786 H 67.5436 2.56305 -2.96732 0
M  V30 787 H 69.0336 3.39543 -2.43105 0
M  V30 788 N 69.4707 1.49531 0.497807 0
M  V30 789 C 70.6957 1.63159 1.28039 0
M  V30 790 C 71.1207 0.30418 1.85624 0
M  V30 791 O 70.4787 -0.728618 1.66015 0
M  V30 792 C 70.5267 2.70537 2.38416 0
M  V30 793 O 69.6307 2.29931 3.42353 0
M  V30 794 H 68.9717 0.546001 0.377861 0
M  V30 795 H 71.5017 1.9574 0.59558 0
M  V30 796 H 71.5117 2.92802 2.84132 0
M  V30 797 H 70.1867 3.6689 1.95869 0
M  V30 798 H 68.7637 2.18009 3.02533 0
M  V30 799 N 70.9488 -0.749086 1.3866 0
M  V30 800 C 72.3648 -1.05276 1.19955 0
M  V30 801 C 72.5648 -2.01435 0.05134 0
M  V30 802 O 71.6208 -2.45232 -0.60147 0
M  V30 803 C 72.9338 -1.62853 2.52783 0
M  V30 804 C 74.4818 -1.75002 2.59506 0
M  V30 805 C 74.9568 -2.35991 3.92521 0
M  V30 806 N 76.4478 -2.43416 3.94085 0
M  V30 807 C 77.1828 -2.91511 4.9377 0
M  V30 808 N 76.6788 -3.39608 6.03853 0
M  V30 809 N 78.4718 -2.90592 4.81157 0
M  V30 810 H 70.6228 -0.111066 2.12109 0
M  V30 811 H 72.8858 -0.111901 0.941373 0
M  V30 812 H 72.5918 -0.99664 3.37283 0
M  V30 813 H 72.4658 -2.61854 2.715 0
M  V30 814 H 74.8528 -2.37317 1.75398 0
M  V30 815 H 74.9338 -0.74693 2.44652 0
M  V30 816 H 74.5778 -1.74308 4.77053 0
M  V30 817 H 74.5078 -3.3695 4.04688 0
M  V30 818 H 76.9988 -2.09405 3.14576 0
M  V30 819 H 77.3118 -3.74775 6.75843 0
M  V30 820 H 75.6568 -3.37653 6.07466 0
M  V30 821 H 78.8478 -2.52332 3.94267 0
M  V30 822 H 79.0208 -3.27762 5.58996 0
M  V30 823 N 72.4269 -1.23603 -0.977757 0
M  V30 824 C 73.6569 -1.09487 -1.75203 0
M  V30 825 C 74.0649 0.356321 -1.85814 0
M  V30 826 O 73.4079 1.25816 -1.33851 0
M  V30 827 C 73.4699 -1.64905 -3.19447 0
M  V30 828 C 73.1339 -3.13688 -3.32338 0
M  V30 829 C 74.1309 -4.10953 -3.18455 0
M  V30 830 C 71.8159 -3.53449 -3.56902 0
M  V30 831 C 73.8099 -5.45962 -3.28944 0
M  V30 832 C 71.4969 -4.88602 -3.6703 0
M  V30 833 C 72.4949 -5.84668 -3.53062 0
M  V30 834 O 72.1829 -7.17365 -3.62826 0
M  V30 835 H 71.9149 -0.38367 -0.556573 0
M  V30 836 H 74.4689 -1.6398 -1.23693 0
M  V30 837 H 72.6989 -1.04835 -3.72218 0
M  V30 838 H 74.3879 -1.46226 -3.78646 0
M  V30 839 H 75.1539 -3.81577 -2.99372 0
M  V30 840 H 71.0329 -2.79188 -3.66844 0
M  V30 841 H 74.5769 -6.20925 -3.17958 0
M  V30 842 H 70.4739 -5.17653 -3.85623 0
M  V30 843 H 71.2419 -7.2515 -3.79605 0
M  V30 844 N 73.905 1.17692 -1.04816 0
M  V30 845 C 75.133 1.91786 -0.776254 0
M  V30 846 C 75.548 1.76604 0.667577 0
M  V30 847 O 74.905 1.10067 1.45573 0
M  V30 848 C 74.956 3.42967 -1.14263 0
M  V30 849 O 74.677 3.57678 -2.52978 0
M  V30 850 C 76.178 4.34144 -0.896311 0
M  V30 851 H 73.398 0.608624 -0.282519 0
M  V30 852 H 75.942 1.49268 -1.39783 0
M  V30 853 H 74.097 3.83245 -0.565874 0
M  V30 854 H 74.511 4.51319 -2.67229 0
M  V30 855 H 75.985 5.38744 -1.20244 0
M  V30 856 H 76.462 4.38876 0.168636 0
M  V30 857 H 77.068 3.99574 -1.45672 0
M  V30 858 N 75.3831 0.828654 1.34056 0
M  V30 859 C 76.7941 0.477534 1.8049 0
M  V30 860 C 77.1451 -1.00258 1.6865 0
M  V30 861 O 76.2701 -1.78057 1.22982 0
M  V30 862 C 76.8651 0.860018 3.27703 0
M  V30 863 C 75.4241 0.561185 3.72193 0
M  V30 864 C 74.5711 1.07385 2.55663 0
M  V30 865 H 77.5221 1.0183 1.21722 0
M  V30 866 H 77.5431 0.166038 3.80138 0
M  V30 867 H 77.0551 1.93731 3.36288 0
M  V30 868 H 75.1561 -0.506465 3.69142 0
M  V30 869 H 75.2691 1.10926 4.66082 0
M  V30 870 H 73.6331 0.495149 2.49841 0
M  V30 871 H 74.4161 2.15771 2.67016 0
M  V30 872 N 76.8612 -1.46375 0.584142 0
M  V30 873 C 78.1382 -1.956 0.0033388 0
M  V30 874 C 78.5182 -1.52679 -1.45782 0
M  V30 875 O 77.8662 -0.77816 -2.14842 0
M  V30 876 C 78.0762 -3.48551 0.176891 0
M  V30 877 C 79.4242 -4.24576 0.0454609 0
M  V30 878 O 80.4482 -3.56043 0.105801 0
M  V30 879 O 79.3072 -5.46427 -0.0890376 0
M  V30 880 H 76.4012 -0.825547 -0.0490066 0
M  V30 881 H 78.9472 -1.56652 0.65256 0
M  V30 882 H 77.7192 -3.72683 1.1926 0
M  V30 883 H 77.3422 -3.94332 -0.508695 0
M  V30 884 N 78.3393 -0.321999 -1.54275 0
M  V30 885 C 79.5853 0.281461 -2.00837 0
M  V30 886 C 79.9183 1.51909 -1.20985 0
M  V30 887 O 79.1933 1.923 -0.291733 0
M  V30 888 C 79.4763 0.617162 -3.54772 0
M  V30 889 C 79.3293 -0.631064 -4.45351 0
M  V30 890 C 80.6483 1.43542 -4.16033 0
M  V30 891 H 77.7673 0.100826 -0.730071 0
M  V30 892 H 80.4093 -0.438268 -1.84876 0
M  V30 893 H 78.5593 1.23034 -3.68504 0
M  V30 894 H 80.2313 -1.26934 -4.43492 0
M  V30 895 H 78.4743 -1.26025 -4.15091 0
M  V30 896 H 79.1453 -0.351735 -5.50878 0
M  V30 897 H 81.6213 0.917134 -4.05867 0
M  V30 898 H 80.4973 1.63907 -5.23856 0
M  V30 899 H 80.7583 2.43108 -3.69257 0
M  V30 900 N 79.8174 1.5752 -0.0501392 0
M  V30 901 C 81.0424 1.97376 0.636997 0
M  V30 902 C 81.4674 0.927466 1.63645 0
M  V30 903 O 80.8254 -0.10941 1.8097 0
M  V30 904 C 80.8734 3.36304 1.30123 0
M  V30 905 O 79.9774 3.34156 2.41689 0
M  V30 906 H 79.3184 0.642998 0.165679 0
M  V30 907 H 81.8484 2.04258 -0.118233 0
M  V30 908 H 81.8584 3.73008 1.65315 0
M  V30 909 H 80.5334 4.11993 0.568746 0
M  V30 910 H 79.1104 3.09196 2.08451 0
M  V30 911 N 81.2955 -0.223234 1.56011 0
M  V30 912 C 82.5255 -0.963413 1.82762 0
M  V30 913 C 82.9335 -1.78516 0.626804 0
M  V30 914 O 82.2765 -1.78974 -0.414014 0
M  V30 915 C 82.3385 -1.93126 3.0322 0
M  V30 916 C 82.0025 -1.2942 4.38291 0
M  V30 917 C 82.9995 -0.684916 5.15369 0
M  V30 918 C 80.6845 -1.30647 4.85012 0
M  V30 919 C 82.6785 -0.0963971 6.37327 0
M  V30 920 C 80.3655 -0.71411 6.06913 0
M  V30 921 C 81.3635 -0.110123 6.82911 0
M  V30 922 O 81.0515 0.47303 8.02507 0
M  V30 923 H 80.7835 -0.288011 0.611576 0
M  V30 924 H 83.3375 -0.244103 2.03944 0
M  V30 925 H 81.5675 -2.68952 2.77852 0
M  V30 926 H 83.2565 -2.53685 3.16857 0
M  V30 927 H 84.0225 -0.667774 4.80381 0
M  V30 928 H 79.9015 -1.76598 4.25833 0
M  V30 929 H 83.4455 0.375657 6.96588 0
M  V30 930 H 79.3425 -0.728659 6.41374 0
M  V30 931 H 80.1105 0.367186 8.17676 0
M  V30 932 N 82.7736 -1.49793 -0.48987 0
M  V30 933 C 83.7366 -1.66752 -1.57246 0
M  V30 934 C 84.7366 -0.538867 -1.51502 0
M  V30 935 O 85.9266 -0.805545 -1.54456 0
M  V30 936 C 83.0586 -1.67528 -2.96896 0
M  V30 937 H 84.2516 -2.63321 -1.43534 0
M  V30 938 H 81.8046 -1.38992 -0.714914 0
M  V30 939 H 82.5396 -0.725837 -3.16073 0
M  V30 940 H 82.3246 -2.49504 -3.02473 0
M  V30 941 H 83.8146 -1.82667 -3.7553 0
M  V30 942 N 84.2517 0.741722 -1.39055 0
M  V30 943 C 85.4817 1.52876 -1.3897 0
M  V30 944 C 85.8897 1.8919 0.0193266 0
M  V30 945 O 85.2327 1.54138 0.999356 0
M  V30 946 C 85.2947 2.84929 -2.19216 0
M  V30 947 C 84.9587 2.71086 -3.67915 0
M  V30 948 C 85.9557 2.40084 -4.61146 0
M  V30 949 C 83.6407 2.88168 -4.11418 0
M  V30 950 C 85.6347 2.26335 -5.95862 0
M  V30 951 C 83.3217 2.74037 -5.46211 0
M  V30 952 C 84.3197 2.43166 -6.38247 0
M  V30 953 O 84.0077 2.29115 -7.70559 0
M  V30 954 H 83.7397 0.479252 -0.476753 0
M  V30 955 H 86.2937 0.924751 -1.83405 0
M  V30 956 H 84.5237 3.47564 -1.69518 0
M  V30 957 H 86.2127 3.46509 -2.11392 0
M  V30 958 H 86.9787 2.26545 -4.28838 0
M  V30 959 H 82.8577 3.11191 -3.40119 0
M  V30 960 H 86.4017 2.0216 -6.67665 0
M  V30 961 H 82.2987 2.87153 -5.78112 0
M  V30 962 H 83.0667 2.44237 -7.81211 0
M  V30 963 N 85.7298 1.2412 0.971189 0
M  V30 964 C 86.9598 1.10415 1.7462 0
M  V30 965 C 87.3678 -0.346462 1.86001 0
M  V30 966 O 86.7108 -1.25104 1.34517 0
M  V30 967 C 86.7728 1.66596 3.18568 0
M  V30 968 C 86.4368 3.15446 3.3067 0
M  V30 969 C 87.4338 4.12636 3.16271 0
M  V30 970 C 85.1188 3.55337 3.55022 0
M  V30 971 C 87.1128 5.47699 3.26044 0
M  V30 972 C 84.7998 4.90542 3.64434 0
M  V30 973 C 85.7978 5.86532 3.49956 0
M  V30 974 O 85.4858 7.19279 3.59017 0
M  V30 975 H 85.2178 0.386616 0.55453 0
M  V30 976 H 87.7718 1.64633 1.22821 0
M  V30 977 H 86.0018 1.06808 3.71657 0
M  V30 978 H 87.6908 1.48232 3.77865 0
M  V30 979 H 88.4568 3.8316 2.97344 0
M  V30 980 H 84.3358 2.8113 3.65359 0
M  V30 981 H 87.8798 6.22603 3.14661 0
M  V30 982 H 83.7768 5.19691 3.82873 0
M  V30 983 H 84.5448 7.27153 3.75754 0
M  V30 984 N 87.2079 -1.17134 1.05439 0
M  V30 985 C 88.4329 -1.91913 0.786396 0
M  V30 986 C 88.8579 -1.7643 -0.652234 0
M  V30 987 O 88.2159 -1.08372 -1.45345 0
M  V30 988 C 88.2639 -3.40921 1.17497 0
M  V30 989 O 87.3679 -4.11244 0.308589 0
M  V30 990 H 86.7089 -0.598215 0.288158 0
M  V30 991 H 89.2389 -1.48457 1.4079 0
M  V30 992 H 89.2489 -3.91668 1.14281 0
M  V30 993 H 87.9239 -3.5151 2.22292 0
M  V30 994 H 86.5009 -3.70731 0.40157 0
M  V30 995 N 88.686 -0.835752 -1.33615 0
M  V30 996 C 89.935 -0.426289 -1.97144 0
M  V30 997 C 90.248 1.01912 -1.66953 0
M  V30 998 O 91.454 1.53311 -2.24072 0
M  V30 999 C 89.91 -0.711321 -3.52801 0
M  V30 1000 C 89.518 -2.1712 -3.91871 0
M  V30 1001 C 91.262 -0.368654 -4.22896 0
M  V30 1002 C 89.169 -2.40044 -5.40493 0
M  V30 1003 H 88.099 -0.15567 -0.737755 0
M  V30 1004 H 90.75 -1.0239 -1.52278 0
M  V30 1005 H 89.132 -0.0433766 -3.95976 0
M  V30 1006 H 90.306 -2.87936 -3.59763 0
M  V30 1007 H 88.621 -2.47654 -3.34749 0
M  V30 1008 H 91.218 -0.517601 -5.32189 0
M  V30 1009 H 91.561 0.688078 -4.10574 0
M  V30 1010 H 92.094 -0.991702 -3.8524 0
M  V30 1011 H 88.833 -3.44271 -5.57815 0
M  V30 1012 H 88.353 -1.73785 -5.74072 0
M  V30 1013 H 90.032 -2.23042 -6.0734 0
M  V30 1014 N 90.1641 1.46063 -0.591896 0
M  V30 1015 C 91.0961 2.28539 0.174001 0
M  V30 1016 C 92.1091 1.39047 0.846753 0
M  V30 1017 O 93.2981 1.63564 0.714774 0
M  V30 1018 C 90.3981 3.14347 1.26645 0
M  V30 1019 C 89.5711 4.32021 0.683856 0
M  V30 1020 C 88.6301 4.99157 1.66518 0
M  V30 1021 O 87.6561 5.56458 1.19763 0
M  V30 1022 N 88.8581 4.97005 2.99943 0
M  V30 1023 H 91.6231 2.94911 -0.533633 0
M  V30 1024 H 89.1841 1.56077 -0.430294 0
M  V30 1025 H 91.1761 3.56125 1.92242 0
M  V30 1026 H 89.7461 2.49988 1.87682 0
M  V30 1027 H 88.9661 3.93915 -0.1498 0
M  V30 1028 H 90.2541 5.08059 0.274567 0
M  V30 1029 H 89.6521 4.51714 3.40545 0
M  V30 1030 H 88.2091 5.42696 3.61004 0
M  V30 1031 N 91.6422 0.330177 1.54103 0
M  V30 1032 C 92.5922 -0.548456 2.21305 0
M  V30 1033 C 93.5762 -1.07651 1.19583 0
M  V30 1034 O 94.7682 -1.01243 1.45186 0
M  V30 1035 C 91.8972 -1.70559 2.97934 0
M  V30 1036 C 90.9832 -1.19212 4.07 0
M  V30 1037 N 91.3742 -0.398831 5.04225 0
M  V30 1038 C 89.6722 -1.47024 4.2107 0
M  V30 1039 C 90.3732 -0.121761 5.81573 0
M  V30 1040 N 89.3492 -0.709722 5.38947 0
M  V30 1041 H 93.1512 0.0648483 2.93828 0
M  V30 1042 H 90.6652 0.136363 1.61826 0
M  V30 1043 H 92.6622 -2.34688 3.44568 0
M  V30 1044 H 91.3222 -2.32231 2.26934 0
M  V30 1045 H 92.3332 -0.0410869 5.17884 0
M  V30 1046 H 89.0102 -2.09232 3.61287 0
M  V30 1047 H 90.4002 0.517298 6.69906 0
M  V30 1048 N 93.1203 -1.57491 0.0584922 0
M  V30 1049 C 94.3693 -1.92155 -0.613146 0
M  V30 1050 C 94.6823 -0.939334 -1.71569 0
M  V30 1051 O 95.8883 -1.17829 -2.44599 0
M  V30 1052 C 94.3443 -3.41303 -1.14195 0
M  V30 1053 C 93.9523 -4.47944 -0.0711265 0
M  V30 1054 C 95.6963 -3.84988 -1.78841 0
M  V30 1055 C 93.6033 -5.88212 -0.613225 0
M  V30 1056 H 92.5333 -0.717162 -0.232796 0
M  V30 1057 H 95.1843 -1.83049 0.12857 0
M  V30 1058 H 93.5663 -3.45437 -1.93621 0
M  V30 1059 H 94.7403 -4.55408 0.702836 0
M  V30 1060 H 93.0553 -4.13644 0.478313 0
M  V30 1061 H 95.6523 -4.87159 -2.20408 0
M  V30 1062 H 95.9953 -3.21632 -2.64308 0
M  V30 1063 H 96.5283 -3.83401 -1.06059 0
M  V30 1064 H 93.2673 -6.55183 0.203978 0
M  V30 1065 H 92.7873 -5.84294 -1.35501 0
M  V30 1066 H 94.4663 -6.37687 -1.09383 0
M  V30 1067 N 94.5984 0.214957 -1.56127 0
M  V30 1068 C 95.5284 1.2695 -1.95974 0
M  V30 1069 C 96.5094 1.48539 -0.828868 0
M  V30 1070 O 97.6944 1.60611 -1.09168 0
M  V30 1071 C 94.8244 2.61794 -2.28214 0
M  V30 1072 C 93.7784 2.54851 -3.43853 0
M  V30 1073 C 93.1044 3.93785 -3.61715 0
M  V30 1074 C 94.4044 2.09065 -4.78632 0
M  V30 1075 H 96.0984 0.93846 -2.84312 0
M  V30 1076 H 93.6444 0.449996 -1.36788 0
M  V30 1077 H 95.5974 3.35731 -2.54682 0
M  V30 1078 H 94.3214 2.96599 -1.36736 0
M  V30 1079 H 92.9804 1.8337 -3.17444 0
M  V30 1080 H 92.6284 4.25908 -2.67602 0
M  V30 1081 H 92.3284 3.90019 -4.39498 0
M  V30 1082 H 93.8524 4.69374 -3.90539 0
M  V30 1083 H 95.2664 2.7275 -5.04262 0
M  V30 1084 H 93.6634 2.16346 -5.59745 0
M  V30 1085 H 94.7334 1.04315 -4.73547 0
M  V30 1086 N 96.0765 1.50051 0.48192 0
M  V30 1087 C 97.4925 1.37237 0.814756 0
M  V30 1088 C 97.6925 0.420109 1.97072 0
M  V30 1089 O 96.7485 -0.141246 2.52105 0
M  V30 1090 C 98.0615 2.78375 1.13701 0
M  V30 1091 C 99.6095 2.87213 1.2441 0
M  V30 1092 C 100.084 4.29161 1.59954 0
M  V30 1093 N 101.575 4.32061 1.66967 0
M  V30 1094 C 102.31 5.38879 1.95952 0
M  V30 1095 N 101.806 6.55918 2.23031 0
M  V30 1096 N 103.599 5.26312 1.97363 0
M  V30 1097 H 95.7505 2.10546 -0.28005 0
M  V30 1098 H 98.0135 0.945921 -0.0627454 0
M  V30 1099 H 97.7195 3.49845 0.360787 0
M  V30 1100 H 97.5935 3.14941 2.07586 0
M  V30 1101 H 99.9805 2.15969 2.01101 0
M  V30 1102 H 100.061 2.54204 0.285299 0
M  V30 1103 H 99.7055 5.00938 0.838067 0
M  V30 1104 H 99.6355 4.59648 2.56966 0
M  V30 1105 H 102.126 3.47661 1.48123 0
M  V30 1106 H 102.439 7.33139 2.44391 0
M  V30 1107 H 100.784 6.59112 2.20447 0
M  V30 1108 H 103.975 4.33876 1.75697 0
M  V30 1109 H 104.148 6.09649 2.19618 0
M  V30 1110 N 97.5546 -0.734337 1.39446 0
M  V30 1111 C 98.4646 -1.87879 1.40495 0
M  V30 1112 C 99.4806 -1.714 0.299672 0
M  V30 1113 O 100.657 -1.93991 0.541249 0
M  V30 1114 C 97.7216 -3.23477 1.24754 0
M  V30 1115 C 96.7826 -3.52344 2.45259 0
M  V30 1116 C 96.0156 -4.81473 2.30259 0
M  V30 1117 O 96.2386 -5.55237 1.30643 0
M  V30 1118 O 95.1726 -5.10254 3.19256 0
M  V30 1119 H 98.9986 -1.89949 2.36966 0
M  V30 1120 H 96.5836 -0.882243 1.20569 0
M  V30 1121 H 98.4656 -4.04509 1.18111 0
M  V30 1122 H 97.1406 -3.22176 0.313781 0
M  V30 1123 H 96.0476 -2.71396 2.57478 0
M  V30 1124 H 97.3806 -3.58426 3.37331 0
M  V30 1125 N 99.0327 -1.24633 -0.964593 0
M  V30 1126 C 99.9627 -1.06611 -2.07741 0
M  V30 1127 C 100.944 0.0218666 -1.70086 0
M  V30 1128 O 102.129 -0.145793 -1.93652 0
M  V30 1129 C 99.2587 -0.673444 -3.40708 0
M  V30 1130 C 98.2127 -1.71054 -3.92332 0
M  V30 1131 C 97.5387 -1.17285 -5.21678 0
M  V30 1132 C 98.8387 -3.10718 -4.19824 0
M  V30 1133 H 100.533 -1.99693 -2.23076 0
M  V30 1134 H 98.0787 -0.96152 -1.07195 0
M  V30 1135 H 100.032 -0.534345 -4.17998 0
M  V30 1136 H 98.7557 0.293073 -3.25282 0
M  V30 1137 H 97.4147 -1.83791 -3.17201 0
M  V30 1138 H 97.0627 -0.196847 -5.02615 0
M  V30 1139 H 96.7627 -1.86592 -5.57187 0
M  V30 1140 H 98.2867 -1.04593 -6.01575 0
M  V30 1141 H 99.7007 -3.01192 -4.87808 0
M  V30 1142 H 98.0977 -3.77406 -4.66567 0
M  V30 1143 H 99.1677 -3.58524 -3.26479 0
M  V30 1144 N 100.511 1.16574 -1.06058 0
M  V30 1145 C 101.757 1.87565 -0.78683 0
M  V30 1146 C 102.112 1.80012 0.679214 0
M  V30 1147 O 101.405 1.20327 1.49104 0
M  V30 1148 C 101.599 3.36195 -1.21275 0
M  V30 1149 C 101.428 3.58216 -2.71866 0
M  V30 1150 C 100.198 3.7444 -3.39298 0
M  V30 1151 C 102.396 3.57134 -3.70081 0
M  V30 1152 N 100.378 3.84389 -4.78663 0
M  V30 1153 C 101.749 3.73038 -4.9522 0
M  V30 1154 C 103.804 3.40332 -3.63426 0
M  V30 1155 C 102.507 3.73879 -6.14497 0
M  V30 1156 C 104.533 3.42466 -4.82153 0
M  V30 1157 C 103.895 3.58887 -6.06118 0
M  V30 1158 H 99.9938 0.704081 -0.340284 0
M  V30 1159 H 102.578 1.39885 -1.35426 0
M  V30 1160 H 100.749 3.82522 -0.673179 0
M  V30 1161 H 102.481 3.94839 -0.887917 0
M  V30 1162 H 99.2358 3.74662 -2.89699 0
M  V30 1163 H 99.6598 3.93138 -5.51155 0
M  V30 1164 H 104.302 3.26566 -2.68541 0
M  V30 1165 H 102.02 3.86427 -7.09718 0
M  V30 1166 H 105.606 3.30712 -4.78666 0
M  V30 1167 H 104.486 3.60454 -6.9645 0
M  V30 1168 N 101.989 0.842826 1.3317 0
M  V30 1169 C 103.214 0.453129 2.02389 0
M  V30 1170 C 103.639 -0.939105 1.6298 0
M  V30 1171 O 102.997 -1.61472 0.8244 0
M  V30 1172 C 103.045 0.586094 3.55805 0
M  V30 1173 O 102.149 -0.386029 4.10589 0
M  V30 1174 H 101.49 0.183664 0.638094 0
M  V30 1175 H 104.02 1.13875 1.69981 0
M  V30 1176 H 104.03 0.469209 4.05293 0
M  V30 1177 H 102.705 1.6014 3.83833 0
M  V30 1178 H 101.282 -0.226371 3.72212 0
M  V30 1179 N 103.467 -1.45747 0.599634 0
M  V30 1180 C 104.715 -2.01893 0.0915472 0
M  V30 1181 C 105.036 -1.47155 -1.27946 0
M  V30 1182 O 104.306 -0.66273 -1.84349 0
M  V30 1183 H 102.886 -0.746363 0.0308524 0
M  V30 1184 H 105.548 -1.78645 0.779237 0
M  V30 1185 H 104.644 -3.1208 0.0353086 0
M  V30 1186 N 104.945 -0.338344 -1.53925 0
M  V30 1187 C 106.191 0.252842 -2.01822 0
M  V30 1188 C 106.546 1.48612 -1.22197 0
M  V30 1189 O 105.839 1.89238 -0.299892 0
M  V30 1190 C 106.033 0.62448 -3.51902 0
M  V30 1191 C 105.862 -0.571235 -4.46057 0
M  V30 1192 C 104.632 -1.07493 -4.93734 0
M  V30 1193 C 106.83 -1.42807 -4.94076 0
M  V30 1194 N 104.812 -2.23351 -5.71828 0
M  V30 1195 C 106.183 -2.43362 -5.70241 0
M  V30 1196 C 108.238 -1.45412 -4.76193 0
M  V30 1197 C 106.941 -3.46346 -6.30426 0
M  V30 1198 C 108.967 -2.47274 -5.37224 0
M  V30 1199 C 108.329 -3.46555 -6.13253 0
M  V30 1200 H 104.428 0.0559669 -0.779995 0
M  V30 1201 H 107.012 -0.476732 -1.88773 0
M  V30 1202 H 105.183 1.32317 -3.65167 0
M  V30 1203 H 106.915 1.19841 -3.86549 0
M  V30 1204 H 103.67 -0.643848 -4.69203 0
M  V30 1205 H 104.094 -2.81834 -6.15548 0
M  V30 1206 H 108.736 -0.700171 -4.16962 0
M  V30 1207 H 106.454 -4.22638 -6.88769 0
M  V30 1208 H 110.04 -2.50109 -5.25297 0
M  V30 1209 H 108.92 -4.24083 -6.59638 0
M  V30 1210 N 106.423 1.57458 -0.0668435 0
M  V30 1211 C 107.663 1.95175 0.607116 0
M  V30 1212 C 108.027 0.946039 1.67075 0
M  V30 1213 O 109.228 1.2107 2.39991 0
M  V30 1214 C 107.499 3.37582 1.17358 0
M  V30 1215 S 109.058 3.97271 1.86336 0
M  V30 1216 H 105.876 0.682604 0.19893 0
M  V30 1217 H 108.478 1.95002 -0.139519 0
M  V30 1218 H 107.182 4.08566 0.387553 0
M  V30 1219 H 106.713 3.41288 1.95669 0
M  V30 1220 H 108.728 3.83772 3.14537 0
M  V30 1221 N 107.901 -0.206675 1.56239 0
M  V30 1222 C 109.148 -0.928842 1.79941 0
M  V30 1223 C 109.476 -1.83734 0.638131 0
M  V30 1224 O 108.731 -1.92039 -0.376746 0
M  V30 1225 C 109.03 -1.78675 3.09532 0
M  V30 1226 C 108.696 -1.03022 4.38973 0
M  V30 1227 C 107.358 -0.821302 4.74139 0
M  V30 1228 C 109.71 -0.497081 5.18824 0
M  V30 1229 C 107.038 -0.0675719 5.86661 0
M  V30 1230 C 109.39 0.24338 6.32132 0
M  V30 1231 C 108.054 0.463422 6.65889 0
M  V30 1232 H 107.324 -0.339887 0.658451 0
M  V30 1233 H 109.971 -0.195977 1.90495 0
M  V30 1234 H 108.276 -2.58794 2.94165 0
M  V30 1235 H 109.973 -2.34792 3.25075 0
M  V30 1236 H 106.563 -1.20306 4.11369 0
M  V30 1237 H 110.747 -0.645921 4.92079 0
M  V30 1238 H 106.003 0.112995 6.11296 0
M  V30 1239 H 110.177 0.66393 6.93228 0
M  V30 1240 H 107.804 1.04938 7.52922 0
M  V30 1241 N 109.379 -1.50304 -0.473955 0
M  V30 1242 C 110.795 -1.37667 -0.807466 0
M  V30 1243 C 110.995 -0.430555 -1.96846 0
M  V30 1244 O 110.051 0.127874 -2.52176 0
M  V30 1245 C 111.364 -2.78974 -1.12223 0
M  V30 1246 C 112.912 -2.87868 -1.22885 0
M  V30 1247 C 113.387 -4.30003 -1.57676 0
M  V30 1248 N 114.878 -4.3294 -1.64673 0
M  V30 1249 C 115.613 -5.3991 -1.93091 0
M  V30 1250 N 115.109 -6.57092 -2.1955 0
M  V30 1251 N 116.902 -5.27351 -1.94569 0
M  V30 1252 H 109.053 -2.10394 0.291212 0
M  V30 1253 H 111.316 -0.945575 0.0677609 0
M  V30 1254 H 111.022 -3.50031 -0.342229 0
M  V30 1255 H 110.896 -3.16038 -2.05913 0
M  V30 1256 H 113.283 -2.17032 -1.99953 0
M  V30 1257 H 113.364 -2.54352 -0.271814 0
M  V30 1258 H 113.008 -5.01375 -0.81149 0
M  V30 1259 H 112.938 -4.61004 -2.54525 0
M  V30 1260 H 115.429 -3.48441 -1.46277 0
M  V30 1261 H 115.742 -7.34425 -2.405 0
M  V30 1262 H 114.087 -6.60272 -2.16948 0
M  V30 1263 H 117.278 -4.34801 -1.73394 0
M  V30 1264 H 117.451 -6.10805 -2.16381 0
M  V30 1265 N 110.857 0.726932 -1.39834 0
M  V30 1266 C 112.087 1.51393 -1.40583 0
M  V30 1267 C 112.495 1.892 -0.000740625 0
M  V30 1268 O 111.838 1.55189 0.982951 0
M  V30 1269 C 111.9 2.82588 -2.22226 0
M  V30 1270 C 111.564 2.67169 -3.70769 0
M  V30 1271 C 112.561 2.3518 -4.63666 0
M  V30 1272 C 110.246 2.83788 -4.14451 0
M  V30 1273 C 112.24 2.20002 -5.98229 0
M  V30 1274 C 109.927 2.68229 -5.49087 0
M  V30 1275 C 110.925 2.36382 -6.4079 0
M  V30 1276 O 110.613 2.2093 -7.72946 0
M  V30 1277 H 110.345 0.474168 -0.48181 0
M  V30 1278 H 112.899 0.905247 -1.84376 0
M  V30 1279 H 111.129 3.45746 -1.73195 0
M  V30 1280 H 112.818 3.44247 -2.15055 0
M  V30 1281 H 113.584 2.21984 -4.31217 0
M  V30 1282 H 109.463 3.07566 -3.43401 0
M  V30 1283 H 113.007 1.95067 -6.69772 0
M  V30 1284 H 108.904 2.81006 -5.81125 0
M  V30 1285 H 109.672 2.35937 -7.83757 0
M  V30 1286 N 112.336 1.25143 0.95797 0
M  V30 1287 C 113.269 0.995565 2.05338 0
M  V30 1288 C 114.247 -0.0740423 1.62431 0
M  V30 1289 O 115.431 0.0649212 1.88388 0
M  V30 1290 C 112.558 0.504298 3.34925 0
M  V30 1291 C 111.604 1.56393 3.96792 0
M  V30 1292 S 112.437 3.14815 4.33188 0
M  V30 1293 C 113.593 2.67415 5.65898 0
M  V30 1294 H 113.826 1.92309 2.26726 0
M  V30 1295 H 111.359 1.08635 1.09716 0
M  V30 1296 H 113.317 0.227497 4.09869 0
M  V30 1297 H 111.978 -0.402671 3.11508 0
M  V30 1298 H 111.171 1.17082 4.90212 0
M  V30 1299 H 110.773 1.79124 3.28315 0
M  V30 1300 H 113.065 2.10833 6.4386 0
M  V30 1301 H 114.008 3.59463 6.10076 0
M  V30 1302 H 114.416 2.07521 5.24972 0
M  V30 1303 N 113.814 -1.1601 1.06675 0
M  V30 1304 C 114.764 -2.18512 0.650888 0
M  V30 1305 C 115.748 -1.57677 -0.320441 0
M  V30 1306 O 116.94 -1.76482 -0.135266 0
M  V30 1307 C 114.069 -3.43273 0.0429255 0
M  V30 1308 C 113.155 -4.11176 1.03898 0
M  V30 1309 N 113.546 -4.54672 2.216 0
M  V30 1310 C 111.844 -4.37417 0.870779 0
M  V30 1311 C 112.545 -5.07248 2.84736 0
M  V30 1312 N 111.521 -5.0037 2.12441 0
M  V30 1313 H 115.323 -2.49863 1.54745 0
M  V30 1314 H 112.837 -1.32503 0.938975 0
M  V30 1315 H 114.834 -4.16006 -0.272857 0
M  V30 1316 H 113.494 -3.13408 -0.84884 0
M  V30 1317 H 114.505 -4.4828 2.59356 0
M  V30 1318 H 111.182 -4.17488 0.0313293 0
M  V30 1319 H 112.572 -5.50912 3.84636 0
M  V30 1320 N 115.292 -0.849877 -1.32721 0
M  V30 1321 C 116.255 -0.296122 -2.27279 0
M  V30 1322 C 117.255 0.541458 -1.5141 0
M  V30 1323 O 118.445 0.353658 -1.70572 0
M  V30 1324 C 115.577 0.581579 -3.35902 0
M  V30 1325 H 116.77 -1.13064 -2.77771 0
M  V30 1326 H 114.323 -0.62383 -1.43311 0
M  V30 1327 H 115.058 1.43809 -2.9067 0
M  V30 1328 H 114.843 -0.0178814 -3.92096 0
M  V30 1329 H 116.333 0.961951 -4.0637 0
M  V30 1330 N 116.77 1.45427 -0.607355 0
M  V30 1331 C 117.998 2.06614 -0.108814 0
M  V30 1332 C 118.413 1.45204 1.2067 0
M  V30 1333 O 117.77 0.566132 1.73497 0
M  V30 1334 C 117.821 3.61481 0.0375347 0
M  V30 1335 O 117.542 4.20598 -1.22593 0
M  V30 1336 C 119.043 4.39652 0.567561 0
M  V30 1337 H 116.263 0.66747 -0.0687351 0
M  V30 1338 H 118.807 1.86675 -0.835022 0
M  V30 1339 H 116.962 3.80762 0.714068 0
M  V30 1340 H 117.376 5.1377 -1.05547 0
M  V30 1341 H 118.85 5.48518 0.61905 0
M  V30 1342 H 119.327 4.09417 1.58978 0
M  V30 1343 H 119.933 4.25234 -0.0749202 0
M  V30 1344 N 118.248 0.346503 1.53744 0
M  V30 1345 C 119.496 -0.248612 2.00565 0
M  V30 1346 C 119.817 -1.5083 1.23593 0
M  V30 1347 O 119.087 -1.92858 0.343912 0
M  V30 1348 H 117.667 -0.0948564 0.740953 0
M  V30 1349 H 120.329 0.468341 1.89189 0
M  V30 1350 H 119.425 -0.488994 3.08245 0
M  V30 1351 N 119.726 -1.57421 0.075193 0
M  V30 1352 C 120.689 -2.11791 -0.876203 0
M  V30 1353 C 121.689 -1.04268 -1.22412 0
M  V30 1354 O 122.879 -1.30242 -1.15684 0
M  V30 1355 C 120.011 -2.62207 -2.17854 0
M  V30 1356 H 121.204 -2.9716 -0.40444 0
M  V30 1357 H 118.757 -1.55333 -0.173557 0
M  V30 1358 H 119.492 -1.803 -2.6956 0
M  V30 1359 H 119.277 -3.40802 -1.93897 0
M  V30 1360 H 120.767 -3.04335 -2.85955 0
M  V30 1361 N 121.204 0.198386 -1.56346 0
M  V30 1362 C 122.429 0.939682 -1.84891 0
M  V30 1363 C 122.854 1.76202 -0.658369 0
M  V30 1364 O 122.212 1.76993 0.392851 0
M  V30 1365 C 122.26 1.81428 -3.11635 0
M  V30 1366 O 121.364 2.91265 -2.91956 0
M  V30 1367 H 120.705 0.264807 -0.608912 0
M  V30 1368 H 123.235 0.204695 -2.03573 0
M  V30 1369 H 123.245 2.21958 -3.42343 0
M  V30 1370 H 121.92 1.21004 -3.97908 0
M  V30 1371 H 120.497 2.54514 -2.72538 0
M  V30 1372 N 122.682 1.50554 0.465978 0
M  V30 1373 C 123.612 1.72722 1.57128 0
M  V30 1374 C 124.593 0.576294 1.6004 0
M  V30 1375 O 125.778 0.81598 1.76225 0
M  V30 1376 C 122.908 1.82605 2.95419 0
M  V30 1377 C 121.862 2.97835 3.07373 0
M  V30 1378 C 121.188 2.92867 4.47363 0
M  V30 1379 C 122.488 4.38265 2.84114 0
M  V30 1380 H 124.182 2.65267 1.38829 0
M  V30 1381 H 121.728 1.2765 0.666441 0
M  V30 1382 H 123.681 1.96698 3.72677 0
M  V30 1383 H 122.405 0.866858 3.14886 0
M  V30 1384 H 121.064 2.83401 2.3255 0
M  V30 1385 H 120.712 1.94783 4.63755 0
M  V30 1386 H 120.412 3.70227 4.56296 0
M  V30 1387 H 121.936 3.09015 5.26633 0
M  V30 1388 H 123.35 4.53198 3.51118 0
M  V30 1389 H 121.747 5.17115 3.04487 0
M  V30 1390 H 122.817 4.50281 1.7993 0
M  V30 1391 N 124.16 -0.719506 1.40217 0
M  V30 1392 C 125.406 -1.48152 1.38488 0
M  V30 1393 C 125.739 -1.94195 -0.0141867 0
M  V30 1394 O 125.014 -1.67884 -0.982096 0
M  V30 1395 C 125.297 -2.71035 2.37091 0
M  V30 1396 C 125.15 -2.30912 3.86005 0
M  V30 1397 C 126.469 -3.73182 2.33288 0
M  V30 1398 H 123.588 -0.537395 0.504357 0
M  V30 1399 H 126.23 -0.821472 1.71324 0
M  V30 1400 H 124.38 -3.27352 2.0922 0
M  V30 1401 H 126.052 -1.80107 4.24687 0
M  V30 1402 H 124.295 -1.62958 4.02029 0
M  V30 1403 H 124.966 -3.18978 4.50508 0
M  V30 1404 H 127.442 -3.26485 2.57966 0
M  V30 1405 H 126.318 -4.56806 3.04334 0
M  V30 1406 H 126.579 -4.21202 1.34317 0
M  V30 1407 N 125.638 -1.25649 -0.95132 0
M  V30 1408 C 126.885 -1.10594 -1.69633 0
M  V30 1409 C 127.213 0.352515 -1.91279 0
M  V30 1410 O 126.468 1.27601 -1.4838 0
M  V30 1411 C 126.767 -1.80909 -3.08231 0
M  V30 1412 C 126.433 -3.30825 -3.06375 0
M  V30 1413 C 125.095 -3.71722 -3.05576 0
M  V30 1414 C 127.447 -4.26589 -2.99452 0
M  V30 1415 C 124.775 -5.06788 -2.95606 0
M  V30 1416 C 127.127 -5.61683 -2.91024 0
M  V30 1417 C 125.791 -6.01904 -2.88562 0
M  V30 1418 H 125.061 -0.404691 -0.620731 0
M  V30 1419 H 127.708 -1.55964 -1.11119 0
M  V30 1420 H 126.013 -1.27979 -3.70309 0
M  V30 1421 H 127.71 -1.6671 -3.64704 0
M  V30 1422 H 124.3 -2.98287 -3.07771 0
M  V30 1423 H 128.484 -3.95982 -2.99185 0
M  V30 1424 H 123.74 -5.37126 -2.92071 0
M  V30 1425 H 127.914 -6.35578 -2.84629 0
M  V30 1426 H 125.541 -7.06521 -2.80593 0
M  V30 1427 N 127.117 1.15442 -1.07289 0
M  V30 1428 C 128.047 2.22312 -0.714107 0
M  V30 1429 C 129.028 1.67467 0.298155 0
M  V30 1430 O 130.213 1.93445 0.171048 0
M  V30 1431 C 127.343 3.47124 -0.110448 0
M  V30 1432 C 126.297 4.14926 -1.04979 0
M  V30 1433 C 125.623 5.33807 -0.308924 0
M  V30 1434 C 126.923 4.64762 -2.38314 0
M  V30 1435 H 128.617 2.5258 -1.6076 0
M  V30 1436 H 126.163 1.21404 -0.77441 0
M  V30 1437 H 128.116 4.21124 0.152482 0
M  V30 1438 H 126.84 3.16187 0.81812 0
M  V30 1439 H 125.499 3.42866 -1.29764 0
M  V30 1440 H 125.147 4.99126 0.623084 0
M  V30 1441 H 124.847 5.80113 -0.935036 0
M  V30 1442 H 126.371 6.10576 -0.0537771 0
M  V30 1443 H 127.785 5.30292 -2.1786 0
M  V30 1444 H 126.182 5.21728 -2.96514 0
M  V30 1445 H 127.252 3.80434 -3.00663 0
M  V30 1446 N 128.595 0.856903 1.32268 0
M  V30 1447 C 129.525 0.31858 2.31316 0
M  V30 1448 C 130.506 -0.583487 1.59779 0
M  V30 1449 O 131.691 -0.503259 1.87566 0
M  V30 1450 C 128.821 -0.491979 3.43798 0
M  V30 1451 C 127.775 0.315849 4.26833 0
M  V30 1452 C 127.101 -0.619586 5.31098 0
M  V30 1453 C 128.401 1.54282 4.98993 0
M  V30 1454 H 130.095 1.14621 2.76591 0
M  V30 1455 H 127.641 0.552613 1.32974 0
M  V30 1456 H 129.594 -0.879012 4.1213 0
M  V30 1457 H 128.318 -1.35299 2.97257 0
M  V30 1458 H 126.977 0.684664 3.6015 0
M  V30 1459 H 126.625 -1.47751 4.8081 0
M  V30 1460 H 126.325 -0.0830621 5.87541 0
M  V30 1461 H 127.849 -1.00375 6.02293 0
M  V30 1462 H 129.263 1.22796 5.59995 0
M  V30 1463 H 127.66 2.01745 5.65172 0
M  V30 1464 H 128.73 2.30285 4.26728 0
M  V30 1465 N 130.073 -1.45103 0.615059 0
M  V30 1466 C 131.301 -2.06553 0.11977 0
M  V30 1467 C 131.716 -1.45842 -1.19898 0
M  V30 1468 O 131.073 -0.575325 -1.73194 0
M  V30 1469 C 131.124 -3.61495 -0.018364 0
M  V30 1470 O 130.845 -4.19942 1.24822 0
M  V30 1471 C 132.346 -4.39947 -0.544237 0
M  V30 1472 H 129.566 -0.667096 0.0722739 0
M  V30 1473 H 132.11 -1.8623 0.84491 0
M  V30 1474 H 130.265 -3.81135 -0.693865 0
M  V30 1475 H 130.679 -5.13204 1.0827 0
M  V30 1476 H 132.153 -5.48838 -0.589953 0
M  V30 1477 H 132.63 -4.10255 -1.56805 0
M  V30 1478 H 133.236 -4.25188 0.0974703 0
M  V30 1479 N 131.551 -0.354651 -1.53558 0
M  V30 1480 C 132.781 0.239167 -2.05211 0
M  V30 1481 C 133.189 1.43879 -1.22863 0
M  V30 1482 O 132.532 1.81857 -0.259565 0
M  V30 1483 C 132.594 0.707251 -3.52474 0
M  V30 1484 C 132.258 -0.374212 -4.55465 0
M  V30 1485 C 133.255 -1.22054 -5.0537 0
M  V30 1486 C 130.94 -0.531323 -4.99482 0
M  V30 1487 C 132.934 -2.20942 -5.97882 0
M  V30 1488 C 130.621 -1.52358 -5.91802 0
M  V30 1489 C 131.619 -2.36108 -6.40892 0
M  V30 1490 O 131.307 -3.33643 -7.31394 0
M  V30 1491 H 131.039 0.0479716 -0.674296 0
M  V30 1492 H 133.593 -0.508121 -1.99016 0
M  V30 1493 H 131.823 1.50596 -3.56171 0
M  V30 1494 H 133.512 1.22285 -3.87042 0
M  V30 1495 H 134.278 -1.1103 -4.7212 0
M  V30 1496 H 130.157 0.110738 -4.60867 0
M  V30 1497 H 133.701 -2.86348 -6.36121 0
M  V30 1498 H 129.598 -1.63434 -6.24467 0
M  V30 1499 H 130.366 -3.29244 -7.4936 0
M  V30 1500 N 133.029 1.57378 -0.0835403 0
M  V30 1501 C 133.959 2.1641 0.87686 0
M  V30 1502 C 134.94 1.09429 1.30228 0
M  V30 1503 O 136.125 1.37516 1.37124 0
M  V30 1504 C 133.255 2.73517 2.14022 0
M  V30 1505 C 132.209 3.85769 1.85381 0
M  V30 1506 C 131.535 4.29529 3.18448 0
M  V30 1507 C 132.835 5.09486 1.14984 0
M  V30 1508 H 134.529 2.96914 0.385059 0
M  V30 1509 H 132.075 1.42823 0.18377 0
M  V30 1510 H 134.028 3.13463 2.81636 0
M  V30 1511 H 132.752 1.90252 2.65465 0
M  V30 1512 H 131.411 3.46345 1.20169 0
M  V30 1513 H 131.059 3.43169 3.67755 0
M  V30 1514 H 130.759 5.05204 3.00071 0
M  V30 1515 H 132.283 4.72099 3.8724 0
M  V30 1516 H 133.697 5.46674 1.72687 0
M  V30 1517 H 132.094 5.90515 1.06826 0
M  V30 1518 H 133.164 4.84724 0.130749 0
M  V30 1519 N 134.507 -0.190092 1.56449 0
M  V30 1520 C 135.457 -1.23977 1.91347 0
M  V30 1521 C 136.441 -1.40747 0.779693 0
M  V30 1522 O 137.633 -1.43033 1.04262 0
M  V30 1523 C 134.762 -2.58347 2.26079 0
M  V30 1524 C 133.848 -2.4535 3.45925 0
M  V30 1525 N 134.239 -2.02039 4.63696 0
M  V30 1526 C 132.537 -2.76229 3.50162 0
M  V30 1527 C 133.238 -2.01053 5.4585 0
M  V30 1528 N 132.214 -2.42747 4.8639 0
M  V30 1529 H 136.016 -0.896318 2.79899 0
M  V30 1530 H 133.53 -0.398496 1.57435 0
M  V30 1531 H 135.527 -3.34173 2.49267 0
M  V30 1532 H 134.187 -2.93512 1.38856 0
M  V30 1533 H 135.198 -1.7267 4.88268 0
M  V30 1534 H 131.875 -3.15556 2.73369 0
M  V30 1535 H 133.265 -1.69426 6.50188 0
M  V30 1536 N 135.985 -1.50799 -0.457987 0
M  V30 1537 C 137.234 -1.6168 -1.20593 0
M  V30 1538 C 137.547 -0.32888 -1.92815 0
M  V30 1539 O 138.753 -0.316773 -2.69646 0
M  V30 1540 C 137.209 -2.8545 -2.19195 0
M  V30 1541 C 136.817 -4.21168 -1.52715 0
M  V30 1542 C 138.561 -3.05681 -2.94549 0
M  V30 1543 C 136.468 -5.3611 -2.4968 0
M  V30 1544 H 135.398 -0.602134 -0.453818 0
M  V30 1545 H 138.049 -1.77245 -0.475031 0
M  V30 1546 H 136.431 -2.63472 -2.95632 0
M  V30 1547 H 137.605 -4.53449 -0.819775 0
M  V30 1548 H 135.92 -4.06648 -0.895922 0
M  V30 1549 H 138.517 -3.88727 -3.67145 0
M  V30 1550 H 138.86 -2.17929 -3.54701 0
M  V30 1551 H 139.393 -3.27901 -2.25223 0
M  V30 1552 H 136.132 -6.26057 -1.94249 0
M  V30 1553 H 135.652 -5.0823 -3.18532 0
M  V30 1554 H 137.331 -5.6722 -3.11241 0
M  V30 1555 N 137.463 0.71206 -1.40597 0
M  V30 1556 C 138.393 1.83889 -1.43899 0
M  V30 1557 C 139.374 1.67442 -0.299504 0
M  V30 1558 O 140.559 1.87421 -0.508624 0
M  V30 1559 C 137.689 3.21877 -1.30431 0
M  V30 1560 C 136.643 3.53002 -2.42019 0
M  V30 1561 C 135.969 4.90172 -2.13626 0
M  V30 1562 C 137.269 3.53643 -3.84362 0
M  V30 1563 H 138.963 1.81383 -2.38203 0
M  V30 1564 H 136.509 0.871237 -1.14654 0
M  V30 1565 H 138.462 4.00404 -1.31357 0
M  V30 1566 H 137.186 3.24968 -0.326049 0
M  V30 1567 H 135.845 2.76818 -2.40349 0
M  V30 1568 H 135.493 4.89869 -1.14182 0
M  V30 1569 H 135.193 5.11962 -2.88389 0
M  V30 1570 H 136.717 5.71028 -2.1624 0
M  V30 1571 H 138.131 4.22203 -3.87837 0
M  V30 1572 H 136.528 3.86961 -4.58673 0
M  V30 1573 H 137.598 2.52954 -4.13693 0
M  V30 1574 N 138.941 1.26152 0.944643 0
M  V30 1575 C 140.357 1.03189 1.21754 0
M  V30 1576 C 140.557 -0.245112 2.00004 0
M  V30 1577 O 139.613 -0.955176 2.33736 0
M  V30 1578 C 140.926 2.26119 1.98219 0
M  V30 1579 C 142.474 2.30984 2.11224 0
M  V30 1580 C 142.949 3.53597 2.91089 0
M  V30 1581 N 144.44 3.54053 2.98664 0
M  V30 1582 C 145.175 4.45593 3.60881 0
M  V30 1583 N 144.671 5.47416 4.24626 0
M  V30 1584 N 146.464 4.33252 3.58119 0
M  V30 1585 H 138.615 2.08177 0.421437 0
M  V30 1586 H 140.878 0.914723 0.248969 0
M  V30 1587 H 140.584 3.18984 1.48128 0
M  V30 1588 H 140.458 2.3009 2.98895 0
M  V30 1589 H 142.845 1.38635 2.60508 0
M  V30 1590 H 142.926 2.31026 1.09821 0
M  V30 1591 H 142.57 4.46273 2.42493 0
M  V30 1592 H 142.5 3.50802 3.92741 0
M  V30 1593 H 144.991 2.80403 2.53343 0
M  V30 1594 H 145.304 6.13459 4.69987 0
M  V30 1595 H 143.649 5.51278 4.23223 0
M  V30 1596 H 146.84 3.52924 3.0751 0
M  V30 1597 H 147.013 5.04786 4.06319 0
M  V30 1598 N 140.419 -1.14872 1.07899 0
M  V30 1599 C 141.667 -1.85422 0.803941 0
M  V30 1600 C 141.988 -1.83051 -0.67211 0
M  V30 1601 O 141.258 -1.27532 -1.48703 0
M  V30 1602 H 139.838 -0.686537 0.294408 0
M  V30 1603 H 142.5 -1.39226 1.3639 0
M  V30 1604 H 141.596 -2.90399 1.14346 0
M  V30 1605 N 141.898 -0.863906 -1.31812 0
M  V30 1606 C 142.828 -0.330843 -2.31144 0
M  V30 1607 C 143.809 0.575005 -1.60087 0
M  V30 1608 O 144.994 0.493304 -1.8783 0
M  V30 1609 C 142.124 0.47374 -3.44054 0
M  V30 1610 C 141.078 -0.338481 -4.26659 0
M  V30 1611 C 140.404 0.591412 -5.31419 0
M  V30 1612 C 141.704 -1.56926 -4.98168 0
M  V30 1613 H 143.398 -1.16086 -2.75979 0
M  V30 1614 H 140.944 -0.559657 -1.32679 0
M  V30 1615 H 142.897 0.857143 -4.12591 0
M  V30 1616 H 141.621 1.33721 -2.9797 0
M  V30 1617 H 140.28 -0.703754 -3.59782 0
M  V30 1618 H 139.928 1.45199 -4.81587 0
M  V30 1619 H 139.628 0.0519022 -5.87577 0
M  V30 1620 H 141.152 0.97179 -6.02817 0
M  V30 1621 H 142.566 -1.25764 -5.59336 0
M  V30 1622 H 140.963 -2.04739 -5.64094 0
M  V30 1623 H 142.033 -2.32544 -4.25501 0
M  V30 1624 N 143.376 1.44774 -0.622745 0
M  V30 1625 C 144.324 2.32387 0.0994683 0
M  V30 1626 C 145.318 1.46859 0.844326 0
M  V30 1627 O 146.524 1.63254 0.758174 0
M  V30 1628 H 142.899 0.750273 0.0509291 0
M  V30 1629 H 144.87 2.91062 -0.65767 0
M  V30 1630 C 143.619 3.30723 1.07319 0
M  V30 1631 H 142.942 3.96541 0.509462 0
M  V30 1632 H 144.382 3.94725 1.54817 0
M  V30 1633 C 142.841 2.59021 2.15429 0
M  V30 1634 O 143.371 2.38286 3.23393 0
M  V30 1635 N 141.577 2.189 1.91131 0
M  V30 1636 H 141.124 2.35964 1.03337 0
M  V30 1637 H 141.082 1.71251 2.63668 0
M  V30 1638 N 144.854 0.36279 1.53368 0
M  V30 1639 C 146.084 -0.228281 2.05335 0
M  V30 1640 C 146.492 -1.43226 1.23625 0
M  V30 1641 O 145.835 -1.81717 0.269206 0
M  V30 1642 C 145.897 -0.688549 3.52845 0
M  V30 1643 C 145.561 0.398362 4.5526 0
M  V30 1644 C 146.558 1.24732 5.04716 0
M  V30 1645 C 144.243 0.557805 4.99193 0
M  V30 1646 C 146.237 2.2411 5.96702 0
M  V30 1647 C 143.924 1.55495 5.90986 0
M  V30 1648 C 144.922 2.39503 6.39631 0
M  V30 1649 O 144.61 3.37517 7.29615 0
M  V30 1650 H 144.342 -0.044395 0.674541 0
M  V30 1651 H 146.896 0.518668 1.98744 0
M  V30 1652 H 145.126 -1.48706 3.56964 0
M  V30 1653 H 146.815 -1.20231 3.87685 0
M  V30 1654 H 147.581 1.13532 4.71525 0
M  V30 1655 H 143.46 -0.0862959 4.60919 0
M  V30 1656 H 147.004 2.89718 6.34594 0
M  V30 1657 H 142.901 1.66744 6.23592 0
M  V30 1658 H 143.669 3.33213 7.47604 0
M  V30 1659 N 146.332 -1.57332 0.0918853 0
M  V30 1660 C 147.557 -1.98995 -0.584442 0
M  V30 1661 C 147.982 -0.970528 -1.61128 0
M  V30 1662 O 147.34 0.0613904 -1.81196 0
M  V30 1663 C 147.388 -3.39636 -1.21161 0
M  V30 1664 O 146.492 -3.40447 -2.32744 0
M  V30 1665 H 145.833 -0.647165 -0.148572 0
M  V30 1666 H 148.363 -2.03873 0.172347 0
M  V30 1667 H 148.373 -3.7726 -1.55367 0
M  V30 1668 H 147.048 -4.13356 -0.459313 0
M  V30 1669 H 145.625 -3.14614 -2.0018 0
M  V30 1670 N 147.81 0.181792 -1.56548 0
M  V30 1671 C 149.04 0.914618 -1.85252 0
M  V30 1672 C 149.448 1.76791 -0.673914 0
M  V30 1673 O 148.791 1.80009 0.366416 0
M  V30 1674 C 148.853 1.85019 -3.08234 0
M  V30 1675 C 148.517 1.17754 -4.41569 0
M  V30 1676 C 149.514 0.548035 -5.17003 0
M  V30 1677 C 147.199 1.17742 -4.88305 0
M  V30 1678 C 149.193 -0.0726128 -6.37359 0
M  V30 1679 C 146.88 0.552946 -6.08593 0
M  V30 1680 C 147.878 -0.070978 -6.82963 0
M  V30 1681 O 147.566 -0.685635 -8.00971 0
M  V30 1682 H 147.298 0.271695 -0.618998 0
M  V30 1683 H 149.852 0.189944 -2.0452 0
M  V30 1684 H 148.082 2.61491 -2.84885 0
M  V30 1685 H 149.771 2.45195 -3.23472 0
M  V30 1686 H 150.537 0.540174 -4.81982 0
M  V30 1687 H 146.416 1.65246 -4.30366 0
M  V30 1688 H 149.96 -0.560213 -6.95347 0
M  V30 1689 H 145.857 0.558354 -6.43081 0
M  V30 1690 H 146.625 -0.58385 -8.16415 0
M  V30 1691 N 149.288 1.51039 0.449983 0
M  V30 1692 C 150.221 1.66105 1.56474 0
M  V30 1693 C 151.199 0.508776 1.54435 0
M  V30 1694 O 152.383 0.731005 1.73749 0
M  V30 1695 C 149.51 1.66304 2.9506 0
M  V30 1696 C 148.556 2.87346 3.15174 0
M  V30 1697 S 149.389 4.4835 2.92818 0
M  V30 1698 C 150.545 4.51274 4.33708 0
M  V30 1699 H 150.778 2.60397 1.43459 0
M  V30 1700 H 148.311 1.40565 0.638805 0
M  V30 1701 H 150.269 1.67103 3.74949 0
M  V30 1702 H 148.93 0.732108 3.05449 0
M  V30 1703 H 148.123 2.83849 4.16468 0
M  V30 1704 H 147.725 2.84223 2.43091 0
M  V30 1705 H 150.017 4.26136 5.26701 0
M  V30 1706 H 150.96 5.53017 4.42242 0
M  V30 1707 H 151.368 3.80738 4.16772 0
M  V30 1708 N 150.766 -0.704594 1.40972 0
M  V30 1709 C 151.996 -1.49138 1.42974 0
M  V30 1710 C 152.404 -1.89175 0.0308406 0
M  V30 1711 O 151.747 -1.56734 -0.958138 0
M  V30 1712 C 151.809 -2.79016 2.26694 0
M  V30 1713 C 151.473 -2.61236 3.74973 0
M  V30 1714 C 152.47 -2.27773 4.67349 0
M  V30 1715 C 150.155 -2.77158 4.18914 0
M  V30 1716 C 152.149 -2.10457 6.01653 0
M  V30 1717 C 149.836 -2.59459 5.53285 0
M  V30 1718 C 150.834 -2.26158 6.4447 0
M  V30 1719 O 150.522 -2.08605 7.76363 0
M  V30 1720 H 150.254 -0.466443 0.489292 0
M  V30 1721 H 152.808 -0.8758 1.85793 0
M  V30 1722 H 151.038 -3.42947 1.78673 0
M  V30 1723 H 152.727 -3.40782 2.20504 0
M  V30 1724 H 153.493 -2.15095 4.34694 0
M  V30 1725 H 149.372 -3.02064 3.48251 0
M  V30 1726 H 152.916 -1.84387 6.72791 0
M  V30 1727 H 148.813 -2.71725 5.85522 0
M  V30 1728 H 149.581 -2.23439 7.87412 0
M  V30 1729 N 152.244 -1.26651 -0.937939 0
M  V30 1730 C 153.174 -1.10993 -2.05433 0
M  V30 1731 C 154.155 -0.0142161 -1.70094 0
M  V30 1732 O 155.34 -0.186837 -1.93299 0
M  V30 1733 C 152.47 -0.745561 -3.39203 0
M  V30 1734 C 151.424 -1.79337 -3.88616 0
M  V30 1735 C 150.75 -1.28324 -5.19073 0
M  V30 1736 C 152.05 -3.19553 -4.13138 0
M  V30 1737 H 153.744 -2.0438 -2.1879 0
M  V30 1738 H 151.29 -0.984041 -1.05131 0
M  V30 1739 H 153.243 -0.622888 -4.16771 0
M  V30 1740 H 151.967 0.22401 -3.25831 0
M  V30 1741 H 150.626 -1.90477 -3.13231 0
M  V30 1742 H 150.274 -0.303414 -5.02084 0
M  V30 1743 H 149.974 -1.98369 -5.53103 0
M  V30 1744 H 151.498 -1.1733 -5.99221 0
M  V30 1745 H 152.912 -3.11471 -4.81309 0
M  V30 1746 H 151.309 -3.87218 -4.58457 0
M  V30 1747 H 152.379 -3.65368 -3.18801 0
M  V30 1748 N 153.722 1.14298 -1.08507 0
M  V30 1749 C 155.133 1.66926 -0.836227 0
M  V30 1750 C 155.484 1.85576 0.63686 0
M  V30 1751 O 154.609 1.56767 1.49175 0
M  V30 1752 C 155.204 3.03219 -1.51142 0
M  V30 1753 C 153.763 3.52876 -1.30979 0
M  V30 1754 C 152.91 2.2833 -1.57356 0
M  V30 1755 H 155.861 0.983491 -1.24552 0
M  V30 1756 H 155.882 3.68726 -0.939211 0
M  V30 1757 H 155.394 2.89612 -2.58353 0
M  V30 1758 H 153.495 3.71703 -0.258429 0
M  V30 1759 H 153.608 4.33586 -2.03814 0
M  V30 1760 H 151.972 2.34454 -0.995164 0
M  V30 1761 H 152.755 2.17298 -2.65775 0
M  V30 1762 N 155.201 0.870884 1.31352 0
M  V30 1763 C 156.131 0.343096 2.30966 0
M  V30 1764 C 157.112 -0.566507 1.60389 0
M  V30 1765 O 158.297 -0.483336 1.88089 0
M  V30 1766 C 155.427 -0.455487 3.443 0
M  V30 1767 C 154.381 0.361103 4.26474 0
M  V30 1768 C 153.707 -0.563221 5.31725 0
M  V30 1769 C 155.007 1.59566 4.97329 0
M  V30 1770 H 156.701 1.17548 2.75359 0
M  V30 1771 H 154.247 0.566686 1.32381 0
M  V30 1772 H 156.2 -0.83525 4.13039 0
M  V30 1773 H 154.924 -1.32139 2.98675 0
M  V30 1774 H 153.583 0.722825 3.59403 0
M  V30 1775 H 153.231 -1.42643 4.82351 0
M  V30 1776 H 152.931 -0.0207409 5.87596 0
M  V30 1777 H 154.455 -0.939808 6.03324 0
M  V30 1778 H 155.869 1.28728 5.58661 0
M  V30 1779 H 154.266 2.07728 5.63 0
M  V30 1780 H 155.336 2.34798 4.24262 0
M  V30 1781 N 156.679 -1.44442 0.630414 0
M  V30 1782 C 157.904 -2.06927 0.139944 0
M  V30 1783 C 158.329 -1.46795 -1.17613 0
M  V30 1784 O 157.687 -0.569144 -1.72135 0
M  V30 1785 C 157.735 -3.6058 0.0379581 0
M  V30 1786 O 156.839 -3.99937 -1.0062 0
M  V30 1787 H 156.18 -0.658608 0.0844483 0
M  V30 1788 H 158.71 -1.85327 0.866891 0
M  V30 1789 H 158.72 -4.07714 -0.152856 0
M  V30 1790 H 157.395 -4.03728 0.998809 0
M  V30 1791 H 155.972 -3.64436 -0.79001 0
M  V30 1792 N 158.157 -0.370918 -1.53173 0
M  V30 1793 C 159.403 0.209976 -2.02313 0
M  V30 1794 C 159.758 1.45987 -1.25322 0
M  V30 1795 O 159.051 1.8856 -0.339965 0
M  V30 1796 C 159.245 0.549696 -3.53147 0
M  V30 1797 C 159.074 -0.665721 -4.44745 0
M  V30 1798 C 157.844 -1.17942 -4.91343 0
M  V30 1799 C 160.042 -1.53255 -4.90935 0
M  V30 1800 N 158.024 -2.35431 -5.66962 0
M  V30 1801 C 159.395 -2.55403 -5.64951 0
M  V30 1802 C 161.45 -1.5548 -4.73002 0
M  V30 1803 C 160.153 -3.5964 -6.22938 0
M  V30 1804 C 162.179 -2.58613 -5.31858 0
M  V30 1805 C 161.541 -3.59485 -6.05764 0
M  V30 1806 H 157.64 0.0394095 -0.781006 0
M  V30 1807 H 160.224 -0.516666 -1.8772 0
M  V30 1808 H 158.395 1.24541 -3.67891 0
M  V30 1809 H 160.127 1.11614 -3.89004 0
M  V30 1810 H 156.882 -0.743228 -4.67732 0
M  V30 1811 H 157.306 -2.94827 -6.09431 0
M  V30 1812 H 161.948 -0.788457 -4.15383 0
M  V30 1813 H 159.666 -4.37153 -6.79649 0
M  V30 1814 H 163.252 -2.61195 -5.19873 0
M  V30 1815 H 162.132 -4.3798 -6.50495 0
M  V30 1816 N 159.635 1.57281 -0.100228 0
M  V30 1817 C 160.884 1.93713 0.561984 0
M  V30 1818 C 161.197 0.984492 1.69018 0
M  V30 1819 O 162.403 1.24273 2.41389 0
M  V30 1820 C 160.859 3.4421 1.05106 0
M  V30 1821 C 160.467 4.47975 -0.0476628 0
M  V30 1822 C 162.211 3.89595 1.68571 0
M  V30 1823 C 160.118 5.89631 0.457055 0
M  V30 1824 H 159.048 0.723082 0.2137 0
M  V30 1825 H 161.699 1.82644 -0.177057 0
M  V30 1826 H 160.081 3.50449 1.84395 0
M  V30 1827 H 161.255 4.53385 -0.823333 0
M  V30 1828 H 159.57 4.1223 -0.587816 0
M  V30 1829 H 162.167 4.92832 2.07414 0
M  V30 1830 H 162.51 3.28526 2.55688 0
M  V30 1831 H 163.043 3.86078 0.958562 0
M  V30 1832 H 159.782 6.54411 -0.377616 0
M  V30 1833 H 159.302 5.87681 1.19962 0
M  V30 1834 H 160.981 6.40363 0.92437 0
M  V30 1835 N 161.113 -0.173488 1.56642 0
M  V30 1836 C 162.338 -0.910149 1.86363 0
M  V30 1837 C 162.763 -1.75132 0.686318 0
M  V30 1838 O 162.121 -1.77595 -0.364643 0
M  V30 1839 C 162.169 -1.76447 3.14482 0
M  V30 1840 O 161.273 -2.86584 2.96553 0
M  V30 1841 H 160.614 -0.255086 0.613047 0
M  V30 1842 H 163.144 -0.172283 2.03873 0
M  V30 1843 H 163.154 -2.16483 3.45831 0
M  V30 1844 H 161.829 -1.14658 3.99783 0
M  V30 1845 H 160.406 -2.50146 2.76553 0
M  V30 1846 N 162.591 -1.51276 -0.441967 0
M  V30 1847 C 163.839 -1.63392 -1.18943 0
M  V30 1848 C 164.16 -0.350159 -1.9183 0
M  V30 1849 O 163.43 0.633784 -1.85364 0
M  V30 1850 H 162.01 -0.602164 -0.442049 0
M  V30 1851 H 164.672 -1.88186 -0.507165 0
M  V30 1852 H 163.768 -2.45934 -1.92154 0
M  V30 1853 N 164.069 0.697108 -1.41344 0
M  V30 1854 C 164.999 1.82353 -1.45841 0
M  V30 1855 C 165.98 1.67115 -0.317247 0
M  V30 1856 O 167.165 1.86871 -0.528474 0
M  V30 1857 C 164.295 3.20476 -1.33838 0
M  V30 1858 C 163.249 3.50415 -2.4575 0
M  V30 1859 C 162.575 4.87878 -2.18813 0
M  V30 1860 C 163.875 3.49546 -3.88091 0
M  V30 1861 H 165.569 1.78846 -2.40113 0
M  V30 1862 H 163.115 0.859028 -1.15571 0
M  V30 1863 H 165.068 3.98988 -1.35596 0
M  V30 1864 H 163.792 3.24604 -0.360498 0
M  V30 1865 H 162.451 2.74253 -2.43271 0
M  V30 1866 H 162.099 4.8863 -1.19371 0
M  V30 1867 H 161.799 5.08875 -2.93803 0
M  V30 1868 H 163.323 5.68702 -2.22284 0
M  V30 1869 H 164.737 4.18066 -3.92293 0
M  V30 1870 H 163.134 3.82075 -4.62751 0
M  V30 1871 H 164.204 2.48552 -4.16353 0
M  V30 1872 N 165.547 1.27147 0.931209 0
M  V30 1873 C 166.796 1.12664 1.67302 0
M  V30 1874 C 167.109 -0.327718 1.92835 0
M  V30 1875 O 168.315 -0.593392 2.64936 0
M  V30 1876 C 166.771 1.9683 3.01307 0
M  V30 1877 C 166.379 3.46901 2.83485 0
M  V30 1878 C 168.123 1.90985 3.79111 0
M  V30 1879 C 166.03 4.23279 4.13024 0
M  V30 1880 H 164.96 0.41803 0.627509 0
M  V30 1881 H 167.611 1.51539 1.03481 0
M  V30 1882 H 165.993 1.50797 3.66164 0
M  V30 1883 H 167.167 4.00773 2.27415 0
M  V30 1884 H 165.482 3.54088 2.19113 0
M  V30 1885 H 168.079 2.45328 4.75098 0
M  V30 1886 H 168.422 0.882718 4.06834 0
M  V30 1887 H 168.955 2.34895 3.21044 0
M  V30 1888 H 165.694 5.26503 3.90481 0
M  V30 1889 H 165.214 3.74186 4.6877 0
M  V30 1890 H 166.893 4.32265 4.81411 0
M  V30 1891 N 167.025 -1.13721 1.09112 0
M  V30 1892 C 167.955 -2.21148 0.749385 0
M  V30 1893 C 168.936 -1.6792 -0.271475 0
M  V30 1894 O 170.121 -1.93693 -0.140251 0
M  V30 1895 C 167.251 -3.46905 0.165659 0
M  V30 1896 C 166.205 -4.13203 1.11567 0
M  V30 1897 C 165.531 -5.33248 0.393809 0
M  V30 1898 C 166.831 -4.60912 2.45678 0
M  V30 1899 H 168.525 -2.4999 1.64758 0
M  V30 1900 H 166.071 -1.20156 0.793626 0
M  V30 1901 H 168.024 -4.21313 -0.085466 0
M  V30 1902 H 166.748 -3.17449 -0.767714 0
M  V30 1903 H 165.407 -3.40758 1.35202 0
M  V30 1904 H 165.055 -5.00054 -0.543599 0
M  V30 1905 H 164.755 -5.78552 1.02721 0
M  V30 1906 H 166.279 -6.10413 0.150908 0
M  V30 1907 H 167.693 -5.26759 2.26269 0
M  V30 1908 H 166.09 -5.16944 3.04776 0
M  V30 1909 H 167.16 -3.75603 3.06677 0
M  V30 1910 N 168.503 -0.877838 -1.30888 0
M  V30 1911 C 169.75 -0.492696 -1.96415 0
M  V30 1912 C 170.078 0.956671 -1.69346 0
M  V30 1913 O 169.333 1.68993 -0.986913 0
M  V30 1914 C 169.632 -0.705748 -3.50363 0
M  V30 1915 C 169.298 -2.1291 -3.97467 0
M  V30 1916 C 167.96 -2.51834 -4.1004 0
M  V30 1917 C 170.312 -3.05702 -4.22132 0
M  V30 1918 C 167.64 -3.82775 -4.44635 0
M  V30 1919 C 169.992 -4.36166 -4.58194 0
M  V30 1920 C 168.656 -4.74993 -4.68975 0
M  V30 1921 H 167.926 -0.18029 -0.718733 0
M  V30 1922 H 170.573 -1.11233 -1.55883 0
M  V30 1923 H 168.878 -0.00303058 -3.918 0
M  V30 1924 H 170.575 -0.387456 -3.99124 0
M  V30 1925 H 167.165 -1.81694 -3.88182 0
M  V30 1926 H 171.349 -2.76853 -4.11906 0
M  V30 1927 H 166.605 -4.12609 -4.51181 0
M  V30 1928 H 170.779 -5.08111 -4.76231 0
M  V30 1929 H 168.406 -5.76495 -4.95537 0
M  V30 1930 N 169.982 1.44106 -0.638065 0
M  V30 1931 C 170.915 2.27924 0.112161 0
M  V30 1932 C 171.893 1.38945 0.844574 0
M  V30 1933 O 173.077 1.68386 0.847248 0
M  V30 1934 C 170.204 3.18029 1.16512 0
M  V30 1935 C 169.25 4.23163 0.532458 0
M  V30 1936 S 170.083 5.31131 -0.682666 0
M  V30 1937 C 171.239 6.24805 0.37013 0
M  V30 1938 H 171.472 2.91205 -0.598887 0
M  V30 1939 H 169.005 1.48394 -0.426441 0
M  V30 1940 H 170.963 3.70492 1.76766 0
M  V30 1941 H 169.624 2.53955 1.8484 0
M  V30 1942 H 168.817 4.86252 1.32571 0
M  V30 1943 H 168.419 3.74 0.00437644 0
M  V30 1944 H 170.711 6.66042 1.24071 0
M  V30 1945 H 171.654 7.07741 -0.225349 0
M  V30 1946 H 172.062 5.60154 0.699141 0
M  V30 1947 N 171.46 0.379036 1.52974 0
M  V30 1948 C 172.709 -0.207612 2.00629 0
M  V30 1949 C 173.022 -1.48758 1.27006 0
M  V30 1950 O 174.228 -2.15365 1.65318 0
M  V30 1951 C 172.684 -0.42053 3.57435 0
M  V30 1952 C 172.292 0.845587 4.39948 0
M  V30 1953 C 174.036 -0.964102 4.13407 0
M  V30 1954 C 171.943 0.601513 5.88333 0
M  V30 1955 H 170.873 -0.0813591 0.749598 0
M  V30 1956 H 173.524 0.499853 1.76561 0
M  V30 1957 H 171.906 -1.18959 3.7771 0
M  V30 1958 H 173.08 1.61848 4.31442 0
M  V30 1959 H 171.395 1.31336 3.95145 0
M  V30 1960 H 173.992 -1.16225 5.21916 0
M  V30 1961 H 174.335 -1.93019 3.68849 0
M  V30 1962 H 174.868 -0.25487 3.96983 0
M  V30 1963 H 171.607 1.53831 6.37194 0
M  V30 1964 H 171.127 -0.132628 5.99653 0
M  V30 1965 H 172.806 0.232134 6.46583 0
M  V30 1966 N 172.938 -1.57226 0.108567 0
M  V30 1967 C 174.185 -1.94833 -0.551943 0
M  V30 1968 C 174.513 -0.991204 -1.67348 0
M  V30 1969 O 173.768 -0.0131878 -1.95696 0
M  V30 1970 C 174.067 -3.38911 -1.13463 0
M  V30 1971 C 173.733 -4.50696 -0.135509 0
M  V30 1972 C 172.395 -4.80998 0.139252 0
M  V30 1973 C 174.747 -5.18333 0.545957 0
M  V30 1974 C 172.075 -5.76259 1.10194 0
M  V30 1975 C 174.427 -6.14627 1.49721 0
M  V30 1976 C 173.091 -6.43327 1.78006 0
M  V30 1977 H 172.361 -0.712944 -0.20197 0
M  V30 1978 H 175.008 -1.90582 0.18726 0
M  V30 1979 H 173.313 -3.39805 -1.95037 0
M  V30 1980 H 175.01 -3.65317 -1.65362 0
M  V30 1981 H 171.6 -4.27087 -0.359846 0
M  V30 1982 H 175.784 -4.95087 0.346842 0
M  V30 1983 H 171.04 -5.96804 1.32795 0
M  V30 1984 H 175.214 -6.66126 2.03099 0
M  V30 1985 H 172.841 -7.1695 2.52759 0
M  V30 1986 N 174.416 0.165178 -1.56732 0
M  V30 1987 C 175.665 0.879143 -1.81532 0
M  V30 1988 C 175.978 1.83144 -0.686842 0
M  V30 1989 O 177.184 2.58823 -0.819944 0
M  V30 1990 C 175.64 1.61388 -3.21686 0
M  V30 1991 C 175.248 0.704904 -4.4242 0
M  V30 1992 C 176.992 2.3157 -3.55774 0
M  V30 1993 C 174.899 1.44022 -5.73595 0
M  V30 1994 H 173.829 0.332033 -0.676957 0
M  V30 1995 H 176.48 0.132008 -1.83025 0
M  V30 1996 H 174.862 2.40599 -3.14529 0
M  V30 1997 H 176.036 -0.0506815 -4.60772 0
M  V30 1998 H 174.351 0.112419 -4.16248 0
M  V30 1999 H 176.948 2.8719 -4.51028 0
M  V30 2000 H 177.291 3.07201 -2.8095 0
M  V30 2001 H 177.824 1.59297 -3.64513 0
M  V30 2002 H 174.563 0.72612 -6.51466 0
M  V30 2003 H 174.083 2.16898 -5.5921 0
M  V30 2004 H 175.762 1.98606 -6.15764 0
M  V30 2005 N 175.894 1.51508 0.433938 0
M  V30 2006 C 177.14 1.64588 1.18484 0
M  V30 2007 C 177.473 0.362666 1.90784 0
M  V30 2008 O 176.748 -0.637892 1.83742 0
M  V30 2009 C 177.031 2.85149 2.19913 0
M  V30 2010 C 176.884 4.23456 1.51674 0
M  V30 2011 C 178.203 3.01227 3.20858 0
M  V30 2012 H 175.322 0.598994 0.429389 0
M  V30 2013 H 177.964 1.84002 0.473647 0
M  V30 2014 H 176.114 2.68729 2.80566 0
M  V30 2015 H 177.786 4.51552 0.943322 0
M  V30 2016 H 176.029 4.25998 0.819035 0
M  V30 2017 H 176.7 5.03812 2.2556 0
M  V30 2018 H 179.176 3.16382 2.70263 0
M  V30 2019 H 178.052 3.87141 3.89118 0
M  V30 2020 H 178.313 2.13447 3.8716 0
M  V30 2021 N 177.372 -0.689602 1.41712 0
M  V30 2022 C 178.6 -1.47827 1.44758 0
M  V30 2023 C 179.015 -1.88721 0.0545703 0
M  V30 2024 O 178.372 -1.57176 -0.927463 0
M  V30 2025 C 178.423 -2.73698 2.3616 0
M  V30 2026 O 178.144 -2.34524 3.7004 0
M  V30 2027 C 179.645 -3.67389 2.48072 0
M  V30 2028 H 176.865 -0.455357 0.49284 0
M  V30 2029 H 179.409 -0.848574 1.86063 0
M  V30 2030 H 177.564 -3.32891 1.98148 0
M  V30 2031 H 177.978 -3.15701 4.18847 0
M  V30 2032 H 179.452 -4.52475 3.16181 0
M  V30 2033 H 179.929 -4.12284 1.51388 0
M  V30 2034 H 180.535 -3.14097 2.86746 0
M  V30 2035 N 178.85 -1.27639 -0.924453 0
M  V30 2036 C 179.813 -1.10681 -2.00705 0
M  V30 2037 C 180.813 -0.0497823 -1.60723 0
M  V30 2038 O 182.003 -0.294654 -1.7169 0
M  V30 2039 C 179.135 -0.687164 -3.33902 0
M  V30 2040 H 180.328 -2.06817 -2.17179 0
M  V30 2041 H 177.881 -1.10473 -1.10569 0
M  V30 2042 H 178.616 0.275439 -3.23128 0
M  V30 2043 H 178.401 -1.45061 -3.6428 0
M  V30 2044 H 179.891 -0.590853 -4.13399 0
M  V30 2045 N 180.328 1.1314 -1.09713 0
M  V30 2046 C 181.575 1.84484 -0.834987 0
M  V30 2047 C 181.903 1.83689 0.639418 0
M  V30 2048 O 181.158 1.2724 1.4869 0
M  V30 2049 C 181.457 3.32167 -1.3191 0
M  V30 2050 C 181.123 3.53139 -2.80363 0
M  V30 2051 C 179.785 3.58571 -3.20905 0
M  V30 2052 C 182.137 3.60866 -3.76065 0
M  V30 2053 C 179.465 3.69267 -4.55916 0
M  V30 2054 C 181.817 3.73089 -5.10869 0
M  V30 2055 C 180.481 3.76775 -5.50996 0
M  V30 2056 H 179.751 0.675073 -0.305544 0
M  V30 2057 H 182.398 1.33554 -1.37243 0
M  V30 2058 H 180.703 3.85469 -0.701517 0
M  V30 2059 H 182.4 3.85821 -1.09284 0
M  V30 2060 H 178.99 3.49569 -2.47991 0
M  V30 2061 H 183.174 3.55946 -3.45855 0
M  V30 2062 H 178.43 3.70388 -4.86438 0
M  V30 2063 H 182.604 3.78011 -5.84877 0
M  V30 2064 H 180.231 3.84815 -6.55608 0
M  V30 2065 N 181.806 0.884767 1.30421 0
M  V30 2066 C 183.052 0.503851 1.96441 0
M  V30 2067 C 183.385 -0.944518 1.69684 0
M  V30 2068 O 182.66 -1.66737 1.00145 0
M  V30 2069 C 182.943 0.779085 3.51571 0
M  V30 2070 C 182.796 2.27807 3.87846 0
M  V30 2071 C 184.115 0.255452 4.39358 0
M  V30 2072 H 181.234 0.184533 0.713524 0
M  V30 2073 H 183.876 1.10872 1.54297 0
M  V30 2074 H 182.026 0.264274 3.876 0
M  V30 2075 H 183.698 2.86127 3.61841 0
M  V30 2076 H 181.941 2.74479 3.35922 0
M  V30 2077 H 182.612 2.42125 4.96064 0
M  V30 2078 H 185.088 0.696079 4.10236 0
M  V30 2079 H 183.964 0.477361 5.4682 0
M  V30 2080 H 184.225 -0.843293 4.33983 0
M  V30 2081 N 183.284 -1.43765 0.645699 0
M  V30 2082 C 184.532 -2.01499 0.155731 0
M  V30 2083 C 184.853 -1.51151 -1.232 0
M  V30 2084 O 184.123 -0.721044 -1.82148 0
M  V30 2085 H 182.703 -0.745003 0.0545817 0
M  V30 2086 H 185.365 -1.76075 0.835677 0
M  V30 2087 H 184.461 -3.1181 0.134577 0
M  V30 2088 N 184.763 -0.387143 -1.52771 0
M  V30 2089 C 185.993 0.195585 -2.05672 0
M  V30 2090 C 186.401 1.41241 -1.25887 0
M  V30 2091 O 185.744 1.81265 -0.298081 0
M  V30 2092 C 185.806 0.632327 -3.53895 0
M  V30 2093 C 185.47 -0.470739 -4.54569 0
M  V30 2094 C 186.467 -1.32746 -5.02667 0
M  V30 2095 C 184.152 -0.637151 -4.98243 0
M  V30 2096 C 186.146 -2.33574 -5.93061 0
M  V30 2097 C 183.833 -1.64877 -5.88438 0
M  V30 2098 C 184.831 -2.49649 -6.35739 0
M  V30 2099 O 184.519 -3.49082 -7.24153 0
M  V30 2100 H 184.251 0.033658 -0.675162 0
M  V30 2101 H 186.805 -0.550221 -1.97893 0
M  V30 2102 H 185.035 1.43008 -3.59285 0
M  V30 2103 H 186.724 1.14048 -3.89548 0
M  V30 2104 H 187.49 -1.21019 -4.69659 0
M  V30 2105 H 183.369 0.0129567 -4.60998 0
M  V30 2106 H 186.913 -2.99777 -6.29904 0
M  V30 2107 H 182.81 -1.76643 -6.2086 0
M  V30 2108 H 183.578 -3.45065 -7.42208 0
M  V30 2109 N 186.241 1.57166 -0.116904 0
M  V30 2110 C 187.487 1.95412 0.542405 0
M  V30 2111 C 187.82 1.00019 1.66463 0
M  V30 2112 O 187.095 0.0370346 1.94465 0
M  V30 2113 C 187.378 3.43615 1.07708 0
M  V30 2114 C 187.231 4.49781 -0.0415868 0
M  V30 2115 C 188.55 3.93616 1.96861 0
M  V30 2116 H 185.669 0.710543 0.195696 0
M  V30 2117 H 188.311 1.89027 -0.192038 0
M  V30 2118 H 186.461 3.49187 1.70296 0
M  V30 2119 H 188.133 4.56308 -0.676793 0
M  V30 2120 H 186.376 4.28033 -0.705019 0
M  V30 2121 H 187.047 5.50733 0.373717 0
M  V30 2122 H 189.523 3.90335 1.44146 0
M  V30 2123 H 188.399 4.97838 2.3119 0
M  V30 2124 H 188.66 3.34188 2.89432 0
M  V30 2125 N 187.719 -0.156864 1.56817 0
M  V30 2126 C 188.649 -1.19589 2.00551 0
M  V30 2127 C 189.63 -1.4536 0.883426 0
M  V30 2128 O 190.815 -1.56449 1.15054 0
M  V30 2129 C 187.945 -2.53143 2.37773 0
M  V30 2130 C 186.899 -2.41913 3.53075 0
M  V30 2131 C 186.225 -3.80088 3.76081 0
M  V30 2132 C 187.525 -1.91157 4.86062 0
M  V30 2133 H 189.219 -0.832293 2.87599 0
M  V30 2134 H 186.765 -0.398918 1.38364 0
M  V30 2135 H 188.718 -3.26047 2.66967 0
M  V30 2136 H 187.442 -2.91319 1.4765 0
M  V30 2137 H 186.101 -1.71462 3.24031 0
M  V30 2138 H 185.749 -4.15683 2.83225 0
M  V30 2139 H 185.449 -3.73439 4.53671 0
M  V30 2140 H 186.973 -4.54556 4.0769 0
M  V30 2141 H 188.387 -2.53846 5.14038 0
M  V30 2142 H 186.784 -1.95422 5.67389 0
M  V30 2143 H 187.854 -0.866673 4.77092 0
M  V30 2144 N 189.197 -1.51736 -0.425897 0
M  V30 2145 C 190.608 -1.5732 -1.00536 0
M  V30 2146 C 190.959 -0.403537 -1.92005 0
M  V30 2147 O 190.084 0.478256 -2.11049 0
M  V30 2148 C 190.679 -2.85119 -1.8301 0
M  V30 2149 C 189.238 -2.93236 -2.35987 0
M  V30 2150 C 188.385 -2.52098 -1.15508 0
M  V30 2151 H 191.336 -1.57348 -0.206739 0
M  V30 2152 H 191.357 -2.69526 -2.68581 0
M  V30 2153 H 190.869 -3.7023 -1.16411 0
M  V30 2154 H 188.97 -2.12581 -3.06007 0
M  V30 2155 H 189.083 -3.9713 -2.68001 0
M  V30 2156 H 187.447 -2.05558 -1.50393 0
M  V30 2157 H 188.23 -3.39565 -0.505014 0
M  V30 2158 N 190.675 0.682077 -1.42076 0
M  V30 2159 C 191.921 1.44283 -1.43366 0
M  V30 2160 C 192.276 1.92344 -0.0465775 0
M  V30 2161 O 191.569 1.67517 0.929973 0
M  V30 2162 C 191.763 2.66036 -2.38662 0
M  V30 2163 C 191.592 2.29889 -3.86499 0
M  V30 2164 C 190.362 2.19599 -4.55087 0
M  V30 2165 C 192.56 1.91999 -4.77117 0
M  V30 2166 N 190.542 1.76478 -5.87987 0
M  V30 2167 C 191.913 1.59741 -5.99068 0
M  V30 2168 C 193.968 1.78927 -4.64639 0
M  V30 2169 C 192.671 1.15723 -7.0993 0
M  V30 2170 C 194.697 1.36314 -5.75476 0
M  V30 2171 C 194.059 1.04975 -6.96534 0
M  V30 2172 H 190.158 0.524739 -0.579805 0
M  V30 2173 H 192.742 0.787834 -1.78048 0
M  V30 2174 H 190.913 3.29237 -2.06053 0
M  V30 2175 H 192.645 3.32588 -2.30581 0
M  V30 2176 H 189.4 2.38433 -4.09202 0
M  V30 2177 H 189.824 1.57362 -6.58458 0
M  V30 2178 H 194.466 2.01805 -3.7153 0
M  V30 2179 H 192.184 0.91591 -8.02893 0
M  V30 2180 H 195.77 1.26731 -5.6783 0
M  V30 2181 H 194.65 0.725017 -7.80841 0
M  V30 2182 N 192.153 1.28127 0.917671 0
M  V30 2183 C 193.401 1.14825 1.66312 0
M  V30 2184 C 193.722 -0.304379 1.9261 0
M  V30 2185 O 192.992 -1.21149 1.53947 0
M  V30 2186 H 191.572 0.421953 0.616413 0
M  V30 2187 H 194.234 1.608 1.10134 0
M  V30 2188 H 193.33 1.68489 2.62712 0
M  V30 2189 N 193.631 -1.12557 1.10312 0
M  V30 2190 C 194.563 -2.17971 0.708625 0
M  V30 2191 C 195.576 -1.60806 -0.254027 0
M  V30 2192 O 196.765 -1.78458 -0.0386891 0
M  V30 2193 C 193.865 -3.38891 0.0248198 0
M  V30 2194 C 193.038 -4.25548 1.01132 0
M  V30 2195 C 192.097 -5.24972 0.35924 0
M  V30 2196 O 191.123 -5.60174 1.00965 0
M  V30 2197 N 192.325 -5.73747 -0.882847 0
M  V30 2198 H 195.09 -2.52427 1.61557 0
M  V30 2199 H 192.651 -1.27967 0.991771 0
M  V30 2200 H 194.643 -4.02485 -0.422852 0
M  V30 2201 H 193.213 -3.02596 -0.784514 0
M  V30 2202 H 192.433 -3.58589 1.6373 0
M  V30 2203 H 193.721 -4.80294 1.67914 0
M  V30 2204 H 193.119 -5.4731 -1.43065 0
M  V30 2205 H 191.676 -6.39234 -1.27369 0
M  V30 2206 N 195.109 -0.891671 -1.2995 0
M  V30 2207 C 196.042 -0.307994 -2.26112 0
M  V30 2208 C 197.02 0.575262 -1.52084 0
M  V30 2209 O 198.204 0.523864 -1.81074 0
M  V30 2210 C 195.331 0.561734 -3.34009 0
M  V30 2211 C 194.377 -0.253107 -4.25748 0
M  V30 2212 S 195.21 -1.64572 -5.09584 0
M  V30 2213 C 196.366 -0.782699 -6.20987 0
M  V30 2214 H 196.599 -1.12309 -2.75271 0
M  V30 2215 H 194.132 -0.691509 -1.38049 0
M  V30 2216 H 196.09 1.05777 -3.96638 0
M  V30 2217 H 194.751 1.35099 -2.83561 0
M  V30 2218 H 193.944 0.410908 -5.02322 0
M  V30 2219 H 193.546 -0.682004 -3.67729 0
M  V30 2220 H 195.838 -0.00257476 -6.775 0
M  V30 2221 H 196.781 -1.52026 -6.91588 0
M  V30 2222 H 197.189 -0.340638 -5.63471 0
M  V30 2223 N 196.587 1.43421 -0.653314 0
M  V30 2224 C 197.812 2.06678 -0.172846 0
M  V30 2225 C 198.237 1.48648 1.15262 0
M  V30 2226 O 197.595 0.596457 1.71208 0
M  V30 2227 C 197.643 3.60474 -0.0953184 0
M  V30 2228 O 196.747 4.01487 0.942442 0
M  V30 2229 H 196.088 0.657181 -0.0949155 0
M  V30 2230 H 198.618 1.83925 -0.896265 0
M  V30 2231 H 198.628 4.07905 0.0879728 0
M  V30 2232 H 197.303 4.02088 -1.06291 0
M  V30 2233 H 195.88 3.65646 0.731932 0
M  V30 2234 N 198.065 0.39524 1.52563 0
M  V30 2235 C 199.295 -0.184675 2.05773 0
M  V30 2236 C 199.703 -1.40571 1.26635 0
M  V30 2237 O 199.046 -1.81105 0.30769 0
M  V30 2238 C 199.108 -0.613551 3.54226 0
M  V30 2239 C 198.772 0.49484 4.54313 0
M  V30 2240 C 199.769 1.3541 5.01956 0
M  V30 2241 C 197.454 0.663565 4.97898 0
M  V30 2242 C 199.448 2.36716 5.91814 0
M  V30 2243 C 197.135 1.67996 5.87555 0
M  V30 2244 C 198.133 2.53017 6.34406 0
M  V30 2245 O 197.821 3.52917 7.22291 0
M  V30 2246 H 197.553 -0.030077 0.675331 0
M  V30 2247 H 200.107 0.560708 1.97599 0
M  V30 2248 H 198.337 -1.411 3.60038 0
M  V30 2249 H 200.026 -1.11981 3.90148 0
M  V30 2250 H 200.792 1.23509 4.6901 0
M  V30 2251 H 196.671 0.0114913 4.60999 0
M  V30 2252 H 200.215 3.03113 6.28306 0
M  V30 2253 H 196.112 1.79933 6.19915 0
M  V30 2254 H 196.88 3.48996 7.40367 0
M  V30 2255 N 199.544 -1.57102 0.125237 0
M  V30 2256 C 200.79 -1.96488 -0.525753 0
M  V30 2257 C 201.145 -1.00786 -1.6389 0
M  V30 2258 O 200.438 -0.038979 -1.9156 0
M  V30 2259 C 200.632 -3.40096 -1.09862 0
M  V30 2260 C 200.461 -4.4968 -0.0425004 0
M  V30 2261 C 199.231 -5.03781 0.391463 0
M  V30 2262 C 201.429 -5.08936 0.740829 0
M  V30 2263 N 199.411 -5.96948 1.4327 0
M  V30 2264 C 200.782 -5.98105 1.6331 0
M  V30 2265 C 202.837 -4.91576 0.791029 0
M  V30 2266 C 201.54 -6.71774 2.57122 0
M  V30 2267 C 203.566 -5.6593 1.71688 0
M  V30 2268 C 202.928 -6.5479 2.59672 0
M  V30 2269 H 199.027 -0.765072 -0.161831 0
M  V30 2270 H 201.611 -1.93511 0.214801 0
M  V30 2271 H 199.782 -3.43707 -1.80887 0
M  V30 2272 H 201.514 -3.66591 -1.71444 0
M  V30 2273 H 198.269 -4.736 -0.00213584 0
M  V30 2274 H 198.693 -6.48236 1.95243 0
M  V30 2275 H 203.335 -4.22615 0.124915 0
M  V30 2276 H 201.053 -7.39977 3.24744 0
M  V30 2277 H 204.639 -5.54501 1.76125 0
M  V30 2278 H 203.519 -7.11316 3.30149 0
M  V30 2279 N 201.022 0.148545 -1.56898 0
M  V30 2280 C 202.27 0.859717 -1.82902 0
M  V30 2281 C 202.591 1.81775 -0.70588 0
M  V30 2282 O 201.861 1.93994 0.272586 0
M  V30 2283 H 200.441 0.320469 -0.674766 0
M  V30 2284 H 203.103 0.142918 -1.94375 0
M  V30 2285 H 202.199 1.4229 -2.77777 0
M  V30 2286 N 202.5 1.5196 0.417844 0
M  V30 2287 C 203.463 1.74065 1.49111 0
M  V30 2288 C 204.463 0.610537 1.48758 0
M  V30 2289 O 205.653 0.87832 1.50437 0
M  V30 2290 C 202.785 1.81502 2.88565 0
M  V30 2291 H 203.978 2.69869 1.30807 0
M  V30 2292 H 201.531 1.42244 0.647785 0
M  V30 2293 H 202.266 0.875813 3.1225 0
M  V30 2294 H 202.051 2.63651 2.90225 0
M  V30 2295 H 203.541 2.00376 3.66387 0
M  V30 2296 N 203.978 -0.674533 1.42435 0
M  V30 2297 C 205.206 -1.46283 1.46317 0
M  V30 2298 C 205.621 -1.88653 0.0745836 0
M  V30 2299 O 204.978 -1.58151 -0.91074 0
M  V30 2300 C 205.029 -2.71178 2.3905 0
M  V30 2301 O 204.75 -2.30586 3.72507 0
M  V30 2302 C 206.251 -3.64738 2.51955 0
M  V30 2303 H 203.471 -0.450104 0.497642 0
M  V30 2304 H 206.015 -0.828792 1.86953 0
M  V30 2305 H 204.17 -3.3077 2.01667 0
M  V30 2306 H 204.584 -3.11241 4.22172 0
M  V30 2307 H 206.058 -4.49096 3.20962 0
M  V30 2308 H 206.535 -4.10656 1.55752 0
M  V30 2309 H 207.141 -3.11038 2.90061 0
M  V30 2310 N 205.456 -1.28612 -0.910864 0
M  V30 2311 C 206.702 -1.16106 -1.66274 0
M  V30 2312 C 207.035 0.289113 -1.92036 0
M  V30 2313 O 206.31 1.21 -1.52281 0
M  V30 2314 C 206.593 -1.96309 -3.01885 0
M  V30 2315 C 206.446 -3.49405 -2.8326 0
M  V30 2316 C 207.765 -1.78076 -4.02463 0
M  V30 2317 H 204.884 -0.423152 -0.603417 0
M  V30 2318 H 207.526 -1.57961 -1.05586 0
M  V30 2319 H 205.676 -1.60742 -3.53687 0
M  V30 2320 H 207.348 -3.94894 -2.38446 0
M  V30 2321 H 205.591 -3.74893 -2.18261 0
M  V30 2322 H 206.262 -4.00784 -3.79574 0
M  V30 2323 H 208.738 -2.0912 -3.59733 0
M  V30 2324 H 207.614 -2.36561 -4.95308 0
M  V30 2325 H 207.875 -0.733008 -4.35981 0
M  V30 2326 N 206.934 1.1197 -1.10907 0
M  V30 2327 C 208.183 1.82947 -0.849302 0
M  V30 2328 C 208.496 1.85275 0.627112 0
M  V30 2329 O 209.702 2.52296 1.00295 0
M  V30 2330 C 208.158 3.28529 -1.46959 0
M  V30 2331 C 207.766 3.34546 -2.97965 0
M  V30 2332 C 209.51 4.04443 -1.28942 0
M  V30 2333 C 207.417 4.74491 -3.53004 0
M  V30 2334 H 206.347 0.685477 -0.314065 0
M  V30 2335 H 208.998 1.2604 -1.33365 0
M  V30 2336 H 207.38 3.85333 -0.912917 0
M  V30 2337 H 208.554 2.87654 -3.59989 0
M  V30 2338 H 206.869 2.72108 -3.15192 0
M  V30 2339 H 209.466 5.07787 -1.67502 0
M  V30 2340 H 209.809 4.15656 -0.231456 0
M  V30 2341 H 210.342 3.5401 -1.81443 0
M  V30 2342 H 207.081 4.68474 -4.58489 0
M  V30 2343 H 206.601 5.21816 -2.9575 0
M  V30 2344 H 208.28 5.4344 -3.51115 0
M  V30 2345 N 208.412 0.89855 1.29475 0
M  V30 2346 C 209.64 0.539261 1.99749 0
M  V30 2347 C 210.055 -0.875716 1.67262 0
M  V30 2348 O 209.412 -1.57786 0.917049 0
M  V30 2349 C 209.463 0.72061 3.54245 0
M  V30 2350 O 209.184 2.07989 3.8558 0
M  V30 2351 C 210.685 0.366118 4.41786 0
M  V30 2352 H 207.905 0.207047 0.638258 0
M  V30 2353 H 210.449 1.20758 1.65039 0
M  V30 2354 H 208.604 0.0994862 3.87272 0
M  V30 2355 H 209.018 2.10841 4.80257 0
M  V30 2356 H 210.492 0.543848 5.49314 0
M  V30 2357 H 210.969 -0.696763 4.33638 0
M  V30 2358 H 211.575 0.964135 4.14228 0
M  V30 2359 N 209.89 -1.43072 0.660911 0
M  V30 2360 C 210.838 -2.32569 -0.0378199 0
M  V30 2361 C 211.832 -1.49046 -0.805092 0
M  V30 2362 O 213.038 -1.65206 -0.714624 0
M  V30 2363 H 209.413 -0.75136 -0.031019 0
M  V30 2364 H 211.384 -2.89216 0.734609 0
M  V30 2365 C 210.133 -3.33453 -0.985124 0
M  V30 2366 H 209.456 -3.97752 -0.404147 0
M  V30 2367 H 210.896 -3.98691 -1.44297 0
M  V30 2368 C 209.355 -2.64642 -2.08486 0
M  V30 2369 O 209.885 -2.46776 -3.16961 0
M  V30 2370 N 208.091 -2.23891 -1.8526 0
M  V30 2371 H 207.638 -2.38621 -0.970449 0
M  V30 2372 H 207.596 -1.78181 -2.59034 0
M  V30 2373 N 211.368 -0.403325 -1.52352 0
M  V30 2374 C 212.298 0.416205 -2.29761 0
M  V30 2375 C 213.279 1.05123 -1.33728 0
M  V30 2376 O 214.464 1.06134 -1.62632 0
M  V30 2377 C 211.594 1.53624 -3.11475 0
M  V30 2378 C 210.548 1.02653 -4.15507 0
M  V30 2379 C 209.874 2.23971 -4.85532 0
M  V30 2380 C 211.174 0.08463 -5.22231 0
M  V30 2381 H 212.868 -0.229701 -2.98518 0
M  V30 2382 H 210.414 -0.111913 -1.43564 0
M  V30 2383 H 212.367 2.1165 -3.64393 0
M  V30 2384 H 211.091 2.20994 -2.40477 0
M  V30 2385 H 209.75 0.46871 -3.63591 0
M  V30 2386 H 209.398 2.89883 -4.11068 0
M  V30 2387 H 209.098 1.90521 -5.55856 0
M  V30 2388 H 210.622 2.82614 -5.41259 0
M  V30 2389 H 212.036 0.573509 -5.70424 0
M  V30 2390 H 210.433 -0.160783 -5.99885 0
M  V30 2391 H 211.503 -0.86237 -4.7717 0
M  V30 2392 N 212.846 1.57033 -0.133567 0
M  V30 2393 C 213.776 2.1909 0.807567 0
M  V30 2394 C 214.757 1.13517 1.26681 0
M  V30 2395 O 215.942 1.41809 1.32679 0
M  V30 2396 C 213.072 2.80188 2.05212 0
M  V30 2397 C 212.026 3.91471 1.73015 0
M  V30 2398 C 211.352 4.39443 3.04622 0
M  V30 2399 C 212.652 5.12886 0.987168 0
M  V30 2400 H 214.346 2.97988 0.290403 0
M  V30 2401 H 211.892 1.43335 0.138239 0
M  V30 2402 H 213.845 3.22264 2.71521 0
M  V30 2403 H 212.569 1.98601 2.59278 0
M  V30 2404 H 211.228 3.49993 1.0909 0
M  V30 2405 H 210.876 3.54695 3.56651 0
M  V30 2406 H 210.576 5.14495 2.83847 0
M  V30 2407 H 212.1 4.8418 3.72024 0
M  V30 2408 H 213.514 5.51891 1.55208 0
M  V30 2409 H 211.911 5.93615 0.87985 0
M  V30 2410 H 212.981 4.84894 -0.0235286 0
M  V30 2411 N 214.325 -0.140222 1.56975 0
M  V30 2412 C 215.55 -0.870414 1.88251 0
M  V30 2413 C 215.975 -1.73637 0.723312 0
M  V30 2414 O 215.333 -1.78329 -0.32689 0
M  V30 2415 C 215.381 -1.69737 3.18154 0
M  V30 2416 O 214.485 -2.80229 3.02565 0
M  V30 2417 H 213.826 -0.242025 0.61832 0
M  V30 2418 H 216.356 -0.128999 2.04193 0
M  V30 2419 H 216.366 -2.09099 3.50345 0
M  V30 2420 H 215.041 -1.06152 4.02125 0
M  V30 2421 H 213.618 -2.44224 2.81796 0
M  V30 2422 N 215.803 -1.52179 -0.40978 0
M  V30 2423 C 217.028 -1.70347 -1.18308 0
M  V30 2424 C 217.453 -0.411887 -1.83535 0
M  V30 2425 O 216.811 0.630587 -1.6998 0
M  V30 2426 C 216.859 -2.83977 -2.22238 0
M  V30 2427 O 215.963 -2.495 -3.28365 0
M  V30 2428 H 215.304 -0.567103 -0.345384 0
M  V30 2429 H 217.834 -1.98879 -0.480445 0
M  V30 2430 H 217.844 -3.0887 -2.66577 0
M  V30 2431 H 216.519 -3.77685 -1.74146 0
M  V30 2432 H 215.096 -2.35277 -2.89308 0
M  V30 2433 N 217.281 0.66697 -1.42791 0
M  V30 2434 C 218.53 1.42278 -1.42968 0
M  V30 2435 C 218.843 1.9553 -0.0524489 0
M  V30 2436 O 220.049 2.71414 0.068363 0
M  V30 2437 C 218.505 2.57418 -2.51524 0
M  V30 2438 C 218.113 2.10832 -3.9529 0
M  V30 2439 C 219.857 3.34878 -2.60877 0
M  V30 2440 C 217.764 3.23101 -4.95338 0
M  V30 2441 H 216.694 0.534533 -0.531781 0
M  V30 2442 H 219.345 0.721302 -1.68729 0
M  V30 2443 H 217.727 3.29971 -2.18941 0
M  V30 2444 H 218.901 1.4538 -4.37266 0
M  V30 2445 H 217.216 1.46289 -3.89857 0
M  V30 2446 H 219.813 4.18505 -3.32802 0
M  V30 2447 H 220.156 3.81993 -1.6549 0
M  V30 2448 H 220.689 2.69398 -2.92693 0
M  V30 2449 H 217.428 2.80969 -5.9223 0
M  V30 2450 H 216.948 3.87309 -4.57987 0
M  V30 2451 H 218.627 3.88447 -5.17415 0
M  V30 2452 N 218.759 1.29093 0.90403 0
M  V30 2453 C 220.17 1.15186 1.46932 0
M  V30 2454 C 220.521 -0.254587 1.94541 0
M  V30 2455 O 219.646 -1.14972 1.83332 0
M  V30 2456 C 220.241 2.08492 2.67051 0
M  V30 2457 C 218.8 1.98621 3.19729 0
M  V30 2458 C 217.947 1.9967 1.92425 0
M  V30 2459 H 220.898 1.41641 0.715789 0
M  V30 2460 H 220.919 1.65461 3.42641 0
M  V30 2461 H 220.431 3.10847 2.3237 0
M  V30 2462 H 218.532 0.993389 3.59114 0
M  V30 2463 H 218.645 2.86068 3.8432 0
M  V30 2464 H 217.009 1.44208 2.09943 0
M  V30 2465 H 217.792 3.03721 1.60026 0
M  V30 2466 N 220.237 -1.11381 1.11499 0
M  V30 2467 C 221.483 -1.83403 0.865512 0
M  V30 2468 C 221.816 -1.84459 -0.607329 0
M  V30 2469 O 221.091 -1.29811 -1.44842 0
M  V30 2470 C 221.374 -3.30552 1.42855 0
M  V30 2471 C 221.227 -3.37886 2.96906 0
M  V30 2472 C 222.546 -4.26643 1.08 0
M  V30 2473 H 219.665 -0.665879 0.31587 0
M  V30 2474 H 222.307 -1.30601 1.37998 0
M  V30 2475 H 220.457 -3.75648 0.990985 0
M  V30 2476 H 222.129 -3.01343 3.49271 0
M  V30 2477 H 220.372 -2.78088 3.32941 0
M  V30 2478 H 221.043 -4.41458 3.31389 0
M  V30 2479 H 223.519 -3.89729 1.45775 0
M  V30 2480 H 222.395 -5.27986 1.50072 0
M  V30 2481 H 222.656 -4.42099 -0.00915037 0
M  V30 2482 N 221.715 -0.905404 -1.28997 0
M  V30 2483 C 222.678 -0.392253 -2.25819 0
M  V30 2484 C 223.678 0.476753 -1.5357 0
M  V30 2485 O 224.868 0.280994 -1.71919 0
M  V30 2486 C 222 0.438588 -3.38067 0
M  V30 2487 H 223.193 -1.24743 -2.72725 0
M  V30 2488 H 220.746 -0.684051 -1.40536 0
M  V30 2489 H 221.481 1.31352 -2.96508 0
M  V30 2490 H 221.266 -0.184167 -3.91667 0
M  V30 2491 H 222.756 0.78873 -4.10084 0
M  V30 2492 N 223.193 1.4272 -0.668489 0
M  V30 2493 C 224.439 2.01923 -0.188419 0
M  V30 2494 C 224.772 1.52704 1.19979 0
M  V30 2495 O 224.047 0.726566 1.8042 0
M  V30 2496 C 224.33 3.59451 -0.216085 0
M  V30 2497 C 224.183 4.18864 -1.6393 0
M  V30 2498 C 225.502 4.37903 0.439179 0
M  V30 2499 H 222.621 0.733674 -0.0699412 0
M  V30 2500 H 225.263 1.69822 -0.852076 0
M  V30 2501 H 223.413 3.86929 0.349012 0
M  V30 2502 H 225.085 4.02362 -2.25616 0
M  V30 2503 H 223.328 3.74933 -2.18193 0
M  V30 2504 H 223.999 5.27987 -1.61039 0
M  V30 2505 H 226.475 4.16079 -0.0417878 0
M  V30 2506 H 225.351 5.47519 0.389157 0
M  V30 2507 H 225.612 4.15303 1.51577 0
M  V30 2508 N 224.671 0.411399 1.52136 0
M  V30 2509 C 225.92 -0.165009 2.01024 0
M  V30 2510 C 226.233 -1.4603 1.30133 0
M  V30 2511 O 227.439 -2.1181 1.69849 0
M  V30 2512 C 225.895 -0.344618 3.58246 0
M  V30 2513 C 225.503 0.938716 4.38055 0
M  V30 2514 C 227.247 -0.876195 4.15359 0
M  V30 2515 C 225.154 0.726172 5.86925 0
M  V30 2516 H 224.084 -0.0654407 0.751155 0
M  V30 2517 H 226.735 0.537192 1.75461 0
M  V30 2518 H 225.117 -1.10921 3.80148 0
M  V30 2519 H 226.291 1.70963 4.27912 0
M  V30 2520 H 224.606 1.39688 3.92271 0
M  V30 2521 H 227.203 -1.05128 5.24263 0
M  V30 2522 H 227.546 -1.85152 3.7286 0
M  V30 2523 H 228.079 -0.170607 3.97434 0
M  V30 2524 H 224.818 1.67312 6.33788 0
M  V30 2525 H 224.338 -0.00540283 5.998 0
M  V30 2526 H 226.017 0.369231 6.45946 0
M  V30 2527 N 226.149 -1.5696 0.141893 0
M  V30 2528 C 227.395 -1.97034 -0.504884 0
M  V30 2529 C 227.75 -1.02518 -1.62812 0
M  V30 2530 O 227.043 -0.0592943 -1.91508 0
M  V30 2531 C 227.237 -3.41242 -1.06249 0
M  V30 2532 C 227.066 -4.497 0.00519653 0
M  V30 2533 C 225.836 -5.03338 0.444873 0
M  V30 2534 C 228.034 -5.08122 0.794767 0
M  V30 2535 N 226.016 -5.95395 1.49593 0
M  V30 2536 C 227.387 -5.96339 1.69645 0
M  V30 2537 C 229.442 -4.9071 0.843122 0
M  V30 2538 C 228.145 -6.69009 2.64233 0
M  V30 2539 C 230.171 -5.64077 1.77681 0
M  V30 2540 C 229.533 -6.51999 2.66603 0
M  V30 2541 H 225.632 -0.766745 -0.153707 0
M  V30 2542 H 228.216 -1.93273 0.235313 0
M  V30 2543 H 226.387 -3.45606 -1.77231 0
M  V30 2544 H 228.119 -3.68389 -1.67546 0
M  V30 2545 H 224.874 -4.73576 0.0480959 0
M  V30 2546 H 225.298 -6.46128 2.02107 0
M  V30 2547 H 229.94 -4.22459 0.169732 0
M  V30 2548 H 227.658 -7.36492 3.32575 0
M  V30 2549 H 231.244 -5.52602 1.81996 0
M  V30 2550 H 230.124 -7.07775 3.37675 0
M  V30 2551 N 227.627 0.131896 -1.57047 0
M  V30 2552 C 228.876 0.84044 -1.83356 0
M  V30 2553 C 229.189 1.81646 -0.725535 0
M  V30 2554 O 230.395 2.57025 -0.874659 0
M  V30 2555 C 228.851 1.54528 -3.25037 0
M  V30 2556 C 228.459 0.610902 -4.43815 0
M  V30 2557 C 230.203 2.23972 -3.60606 0
M  V30 2558 C 228.11 1.31823 -5.76521 0
M  V30 2559 H 227.04 0.317599 -0.683847 0
M  V30 2560 H 229.691 0.0931561 -1.83263 0
M  V30 2561 H 228.073 2.33873 -3.19561 0
M  V30 2562 H 229.247 -0.148407 -4.60561 0
M  V30 2563 H 227.562 0.0241016 -4.16393 0
M  V30 2564 H 230.159 2.77558 -4.57018 0
M  V30 2565 H 230.502 3.01173 -2.87403 0
M  V30 2566 H 231.035 1.51529 -3.6781 0
M  V30 2567 H 227.774 0.587771 -6.52859 0
M  V30 2568 H 227.294 2.04987 -5.63685 0
M  V30 2569 H 228.973 1.855 -6.19838 0
M  V30 2570 N 229.106 1.52395 0.401703 0
M  V30 2571 C 230.346 1.68498 1.15705 0
M  V30 2572 C 230.71 0.409748 1.87577 0
M  V30 2573 O 231.911 0.446983 2.65058 0
M  V30 2574 C 230.182 2.87789 2.11924 0
M  V30 2575 S 231.741 3.24415 2.95466 0
M  V30 2576 H 228.559 0.593267 0.391862 0
M  V30 2577 H 231.161 1.90408 0.443282 0
M  V30 2578 H 229.865 3.7884 1.57824 0
M  V30 2579 H 229.396 2.68175 2.87829 0
M  V30 2580 H 231.411 2.73614 4.13944 0
M  V30 2581 N 230.584 -0.659388 1.43143 0
M  V30 2582 C 231.832 -1.41654 1.44147 0
M  V30 2583 C 232.153 -1.94893 0.0645739 0
M  V30 2584 O 231.423 -1.74044 -0.899198 0
M  V30 2585 H 230.003 -0.525708 0.530697 0
M  V30 2586 H 232.665 -0.778097 1.78694 0
M  V30 2587 H 231.761 -2.26195 2.1504 0
M  V30 2588 N 232.062 -1.29571 -0.897171 0
M  V30 2589 C 233.31 -1.17456 -1.64464 0
M  V30 2590 C 233.631 0.273698 -1.9307 0
M  V30 2591 O 232.901 1.18684 -1.55855 0
M  V30 2592 H 231.481 -0.431706 -0.609622 0
M  V30 2593 H 234.143 -1.62531 -1.07562 0
M  V30 2594 H 233.239 -1.72648 -2.59998 0
M  V30 2595 N 233.54 1.10788 -1.12088 0
M  V30 2596 C 234.77 1.86191 -0.895351 0
M  V30 2597 C 235.178 1.80763 0.558702 0
M  V30 2598 O 234.521 1.19188 1.39785 0
M  V30 2599 C 234.583 3.35659 -1.28737 0
M  V30 2600 C 234.247 3.64849 -2.75198 0
M  V30 2601 C 235.244 3.61757 -3.734 0
M  V30 2602 C 232.929 3.93641 -3.12013 0
M  V30 2603 C 234.923 3.87045 -5.06434 0
M  V30 2604 C 232.61 4.18585 -4.4523 0
M  V30 2605 C 233.608 4.15277 -5.42249 0
M  V30 2606 O 233.296 4.3959 -6.73065 0
M  V30 2607 H 233.028 0.595425 -0.32007 0
M  V30 2608 H 235.582 1.40992 -1.49367 0
M  V30 2609 H 233.812 3.81497 -0.63224 0
M  V30 2610 H 235.501 3.92441 -1.03656 0
M  V30 2611 H 236.267 3.39557 -3.46303 0
M  V30 2612 H 232.146 3.95348 -2.37109 0
M  V30 2613 H 235.69 3.84378 -5.82151 0
M  V30 2614 H 231.587 4.40264 -4.72057 0
M  V30 2615 H 232.355 4.57123 -6.78956 0
M  V30 2616 N 235.018 0.912232 1.28515 0
M  V30 2617 C 236.246 0.560416 1.99166 0
M  V30 2618 C 236.661 -0.857927 1.68182 0
M  V30 2619 O 236.018 -1.56805 0.933733 0
M  V30 2620 C 236.069 0.758142 3.53461 0
M  V30 2621 O 235.79 2.12067 3.83352 0
M  V30 2622 C 237.291 0.412954 4.41372 0
M  V30 2623 H 234.511 0.213805 0.636026 0
M  V30 2624 H 237.055 1.22502 1.63749 0
M  V30 2625 H 235.21 0.140556 3.87145 0
M  V30 2626 H 235.624 2.15923 4.77993 0
M  V30 2627 H 237.098 0.60208 5.48707 0
M  V30 2628 H 237.575 -0.65073 4.34353 0
M  V30 2629 H 238.181 1.00802 4.13182 0
M  V30 2630 N 236.496 -1.42363 0.676048 0
M  V30 2631 C 237.742 -2.0182 0.199125 0
M  V30 2632 C 238.075 -1.53339 -1.19168 0
M  V30 2633 O 237.35 -0.736124 -1.80032 0
M  V30 2634 C 237.633 -3.59331 0.235144 0
M  V30 2635 C 237.486 -4.17989 1.66149 0
M  V30 2636 C 238.805 -4.3813 -0.41595 0
M  V30 2637 H 235.924 -0.733293 0.0738311 0
M  V30 2638 H 238.566 -1.69368 0.86107 0
M  V30 2639 H 236.716 -3.87109 -0.328487 0
M  V30 2640 H 238.388 -4.0116 2.27747 0
M  V30 2641 H 236.631 -3.7377 2.20178 0
M  V30 2642 H 237.302 -5.27126 1.63837 0
M  V30 2643 H 239.778 -4.16051 0.0638529 0
M  V30 2644 H 238.654 -5.47717 -0.360115 0
M  V30 2645 H 238.915 -4.16101 -1.49373 0
M  V30 2646 N 237.974 -0.419461 -1.51915 0
M  V30 2647 C 239.199 0.154572 -2.06823 0
M  V30 2648 C 239.624 1.3722 -1.28656 0
M  V30 2649 O 238.982 1.78461 -0.319583 0
M  V30 2650 C 239.03 0.473172 -3.57482 0
M  V30 2651 O 238.134 1.56255 -3.81652 0
M  V30 2652 H 237.475 0.0096924 -0.663929 0
M  V30 2653 H 240.005 -0.595642 -1.95738 0
M  V30 2654 H 240.015 0.728825 -4.01438 0
M  V30 2655 H 238.69 -0.416873 -4.13805 0
M  V30 2656 H 237.267 1.29825 -3.49571 0
M  V30 2657 N 239.452 1.56882 -0.150215 0
M  V30 2658 C 240.729 1.87844 0.545327 0
M  V30 2659 C 241.109 1.0567 1.82749 0
M  V30 2660 O 240.457 0.144442 2.28043 0
M  V30 2661 C 240.667 3.39526 0.80767 0
M  V30 2662 C 242.015 4.08814 1.14703 0
M  V30 2663 O 243.039 3.44723 0.896917 0
M  V30 2664 O 241.898 5.22004 1.61784 0
M  V30 2665 H 238.992 0.778677 0.278553 0
M  V30 2666 H 241.538 1.68666 -0.187068 0
M  V30 2667 H 240.31 3.91173 -0.0996096 0
M  V30 2668 H 239.933 3.64243 1.59413 0
M  V30 2669 N 240.93 -0.123565 1.57115 0
M  V30 2670 C 242.341 -0.681198 1.73829 0
M  V30 2671 C 242.692 -1.80535 0.768214 0
M  V30 2672 O 241.817 -2.16317 -0.0599103 0
M  V30 2673 C 242.412 -1.24246 3.15196 0
M  V30 2674 C 240.971 -1.74643 3.33432 0
M  V30 2675 C 240.118 -0.644284 2.69711 0
M  V30 2676 H 243.069 0.102315 1.5837 0
M  V30 2677 H 243.09 -2.11216 3.16493 0
M  V30 2678 H 242.602 -0.424062 3.85776 0
M  V30 2679 H 240.703 -2.58974 2.67886 0
M  V30 2680 H 240.816 -1.85902 4.41562 0
M  V30 2681 H 239.18 -1.07676 2.3082 0
M  V30 2682 H 239.963 0.163058 3.42913 0
M  V30 2683 N 242.408 -1.52605 -0.393616 0
M  V30 2684 C 243.636 -1.71294 -1.16043 0
M  V30 2685 C 244.051 -0.429259 -1.83855 0
M  V30 2686 O 243.408 0.595921 -1.72496 0
M  V30 2687 C 243.459 -2.8593 -2.21193 0
M  V30 2688 O 243.18 -4.09329 -1.56146 0
M  V30 2689 C 244.681 -3.16259 -3.10636 0
M  V30 2690 H 241.901 -0.573641 -0.348104 0
M  V30 2691 H 244.445 -1.99234 -0.461092 0
M  V30 2692 H 242.6 -2.60465 -2.86769 0
M  V30 2693 H 243.014 -4.73323 -2.25978 0
M  V30 2694 H 244.488 -3.99946 -3.80456 0
M  V30 2695 H 244.965 -2.3045 -3.73884 0
M  V30 2696 H 245.571 -3.43547 -2.50711 0
M  V30 2697 N 243.887 0.651787 -1.4349 0
M  V30 2698 C 245.136 1.40754 -1.44469 0
M  V30 2699 C 245.449 1.95463 -0.0731845 0
M  V30 2700 O 246.655 2.71471 0.0395721 0
M  V30 2701 C 245.111 2.54735 -2.5424 0
M  V30 2702 C 244.719 2.06628 -3.97504 0
M  V30 2703 C 246.463 3.32092 -2.64414 0
M  V30 2704 C 244.37 3.17829 -4.98737 0
M  V30 2705 H 243.3 0.528862 -0.53742 0
M  V30 2706 H 245.951 0.703365 -1.69485 0
M  V30 2707 H 244.333 3.2763 -2.22428 0
M  V30 2708 H 245.507 1.40734 -4.38783 0
M  V30 2709 H 243.822 1.42146 -3.91387 0
M  V30 2710 H 246.419 4.14952 -3.37223 0
M  V30 2711 H 246.762 3.80217 -1.69532 0
M  V30 2712 H 247.295 2.66279 -2.95534 0
M  V30 2713 H 244.034 2.74671 -5.95177 0
M  V30 2714 H 243.554 3.82429 -4.62069 0
M  V30 2715 H 245.233 3.82937 -5.21505 0
M  V30 2716 N 245.365 1.30045 0.890287 0
M  V30 2717 C 246.312 1.15976 1.99545 0
M  V30 2718 C 247.282 0.0506202 1.66023 0
M  V30 2719 O 248.467 0.219847 1.89529 0
M  V30 2720 C 245.607 0.852054 3.34416 0
M  V30 2721 C 244.72 2.04255 3.80662 0
M  V30 2722 C 243.855 1.6734 5.04154 0
M  V30 2723 C 242.894 2.82916 5.42794 0
M  V30 2724 N 242.031 2.46333 6.57468 0
M  V30 2725 H 246.871 2.10524 2.10911 0
M  V30 2726 H 244.408 1.04749 1.03276 0
M  V30 2727 H 246.366 0.654296 4.12037 0
M  V30 2728 H 244.996 -0.0565502 3.2275 0
M  V30 2729 H 244.048 2.35172 2.98995 0
M  V30 2730 H 245.36 2.90826 4.05242 0
M  V30 2731 H 244.514 1.43908 5.89386 0
M  V30 2732 H 243.253 0.779308 4.81433 0
M  V30 2733 H 242.258 3.0702 4.56091 0
M  V30 2734 H 243.483 3.73004 5.6749 0
M  V30 2735 H 241.429 1.59423 6.36334 0
M  V30 2736 H 241.346 3.26436 6.81891 0
M  V30 2737 H 242.614 2.26244 7.45945 0
M  V30 2738 N 246.843 -1.10192 1.12674 0
M  V30 2739 C 248.259 -1.34235 0.863317 0
M  V30 2740 C 248.459 -1.95062 -0.505277 0
M  V30 2741 O 247.515 -2.19192 -1.25345 0
M  V30 2742 C 248.828 -2.2616 1.98172 0
M  V30 2743 C 250.376 -2.3969 2.0129 0
M  V30 2744 C 250.851 -3.34946 3.1237 0
M  V30 2745 N 252.342 -3.42515 3.11829 0
M  V30 2746 C 253.077 -4.16199 3.94419 0
M  V30 2747 N 252.573 -4.92747 4.87004 0
M  V30 2748 N 254.366 -4.11843 3.82547 0
M  V30 2749 H 246.517 -0.690798 2.00853 0
M  V30 2750 H 248.78 -0.366774 0.874174 0
M  V30 2751 H 248.486 -1.8868 2.96804 0
M  V30 2752 H 248.36 -3.26488 1.88906 0
M  V30 2753 H 250.747 -2.76438 1.03276 0
M  V30 2754 H 250.828 -1.39169 2.14629 0
M  V30 2755 H 250.472 -2.98923 4.10619 0
M  V30 2756 H 250.402 -4.35353 2.96269 0
M  V30 2757 H 252.893 -2.87926 2.44759 0
M  V30 2758 H 253.206 -5.46376 5.46528 0
M  V30 2759 H 251.551 -4.91862 4.91016 0
M  V30 2760 H 254.742 -3.51136 3.0955 0
M  V30 2761 H 254.915 -4.69007 4.47142 0
M  V30 2762 N 248.321 -0.919034 -1.28029 0
M  V30 2763 C 249.568 -0.554934 -1.94748 0
M  V30 2764 C 249.896 0.90231 -1.72304 0
M  V30 2765 O 249.151 1.65767 -1.04018 0
M  V30 2766 C 249.45 -0.816855 -3.4794 0
M  V30 2767 C 249.116 -2.25448 -3.90492 0
M  V30 2768 C 247.778 -2.64752 -4.01821 0
M  V30 2769 C 250.13 -3.18977 -4.12193 0
M  V30 2770 C 247.458 -3.96727 -4.32232 0
M  V30 2771 C 249.81 -4.50523 -4.44086 0
M  V30 2772 C 248.474 -4.89673 -4.53626 0
M  V30 2773 H 247.744 -0.203065 -0.712633 0
M  V30 2774 H 250.391 -1.16136 -1.52265 0
M  V30 2775 H 248.696 -0.127677 -3.91592 0
M  V30 2776 H 250.393 -0.514238 -3.97689 0
M  V30 2777 H 246.983 -1.93952 -3.82205 0
M  V30 2778 H 251.167 -2.89817 -4.02889 0
M  V30 2779 H 246.423 -4.26754 -4.37825 0
M  V30 2780 H 250.597 -5.23005 -4.59825 0
M  V30 2781 H 248.224 -5.91969 -4.76946 0
M  V30 2782 N 249.799 1.42003 -0.683588 0
M  V30 2783 C 251.046 2.01413 -0.209514 0
M  V30 2784 C 251.374 1.54088 1.1869 0
M  V30 2785 O 250.629 0.737591 1.81268 0
M  V30 2786 C 250.928 3.56827 -0.202357 0
M  V30 2787 C 250.594 4.23617 -1.54464 0
M  V30 2788 C 249.256 4.41577 -1.91215 0
M  V30 2789 C 251.608 4.61178 -2.42826 0
M  V30 2790 C 248.936 4.9437 -3.15935 0
M  V30 2791 C 251.288 5.15355 -3.66867 0
M  V30 2792 C 249.952 5.31528 -4.03776 0
M  V30 2793 H 249.222 0.737023 -0.0766668 0
M  V30 2794 H 251.869 1.70067 -0.880312 0
M  V30 2795 H 250.174 3.87892 0.551969 0
M  V30 2796 H 251.871 4.00588 0.181793 0
M  V30 2797 H 248.461 4.10004 -1.24877 0
M  V30 2798 H 252.645 4.46968 -2.15717 0
M  V30 2799 H 247.901 5.05076 -3.44541 0
M  V30 2800 H 252.075 5.43402 -4.35531 0
M  V30 2801 H 249.702 5.72199 -5.00492 0
M  V30 2802 N 251.277 0.427512 1.51691 0
M  V30 2803 C 252.523 -0.142439 2.02299 0
M  V30 2804 C 252.856 -1.43214 1.31162 0
M  V30 2805 O 252.131 -1.89833 0.423511 0
M  V30 2806 C 252.414 -0.371301 3.58181 0
M  V30 2807 C 252.267 0.936358 4.39946 0
M  V30 2808 C 253.586 -1.14542 4.24933 0
M  V30 2809 H 250.705 -0.0502937 0.735282 0
M  V30 2810 H 253.347 0.564584 1.81418 0
M  V30 2811 H 251.497 -0.973559 3.76104 0
M  V30 2812 H 253.169 1.57184 4.33694 0
M  V30 2813 H 251.412 1.5432 4.05423 0
M  V30 2814 H 252.083 0.730388 5.47147 0
M  V30 2815 H 254.559 -0.635362 4.11221 0
M  V30 2816 H 253.435 -1.27431 5.33903 0
M  V30 2817 H 253.696 -2.17093 3.85127 0
M  V30 2818 N 252.755 -1.56801 0.158532 0
M  V30 2819 C 253.685 -2.20347 -0.772609 0
M  V30 2820 C 254.666 -1.15518 -1.24859 0
M  V30 2821 O 255.851 -1.43902 -1.30406 0
M  V30 2822 C 252.981 -2.83417 -2.00729 0
M  V30 2823 C 251.935 -3.94174 -1.66765 0
M  V30 2824 C 251.261 -4.44233 -2.97592 0
M  V30 2825 C 252.561 -5.14392 -0.905447 0
M  V30 2826 H 254.255 -2.98413 -0.242959 0
M  V30 2827 H 251.801 -1.43537 -0.115419 0
M  V30 2828 H 253.754 -3.26543 -2.6636 0
M  V30 2829 H 252.478 -2.02701 -2.56086 0
M  V30 2830 H 251.137 -3.51684 -1.03508 0
M  V30 2831 H 250.785 -3.60325 -3.50963 0
M  V30 2832 H 250.485 -5.18945 -2.75626 0
M  V30 2833 H 252.009 -4.90037 -3.64274 0
M  V30 2834 H 253.423 -5.5429 -1.46408 0
M  V30 2835 H 251.82 -5.9494 -0.7853 0
M  V30 2836 H 252.89 -4.84795 0.100668 0
M  V30 2837 N 254.233 0.115231 -1.57178 0
M  V30 2838 C 255.183 1.14707 -1.97044 0
M  V30 2839 C 256.167 1.36866 -0.845957 0
M  V30 2840 O 257.359 1.37895 -1.10968 0
M  V30 2841 C 254.488 2.47266 -2.38148 0
M  V30 2842 C 253.574 2.28566 -3.57237 0
M  V30 2843 N 253.965 1.79685 -4.72807 0
M  V30 2844 C 252.263 2.59208 -3.62943 0
M  V30 2845 C 252.964 1.74781 -5.54821 0
M  V30 2846 N 251.94 2.19264 -4.97417 0
M  V30 2847 H 255.742 0.761754 -2.83857 0
M  V30 2848 H 253.256 0.322928 -1.59157 0
M  V30 2849 H 255.253 3.219 -2.64927 0
M  V30 2850 H 253.913 2.86552 -1.52702 0
M  V30 2851 H 254.924 1.49177 -4.9595 0
M  V30 2852 H 251.601 3.02154 -2.88113 0
M  V30 2853 H 252.991 1.38212 -6.57531 0
M  V30 2854 N 255.711 1.52812 0.385517 0
M  V30 2855 C 256.958 1.68026 1.1302 0
M  V30 2856 C 257.286 0.421934 1.89868 0
M  V30 2857 O 256.541 -0.595749 1.86412 0
M  V30 2858 C 256.84 2.86856 2.13187 0
M  V30 2859 C 256.506 4.24159 1.5297 0
M  V30 2860 C 255.168 4.61501 1.36274 0
M  V30 2861 C 257.52 5.09627 1.09223 0
M  V30 2862 C 254.848 5.81966 0.743837 0
M  V30 2863 C 257.2 6.30719 0.487411 0
M  V30 2864 C 255.864 6.6679 0.307777 0
M  V30 2865 H 255.134 0.614849 0.413571 0
M  V30 2866 H 257.781 1.86962 0.414405 0
M  V30 2867 H 256.086 2.6235 2.90998 0
M  V30 2868 H 257.783 2.95821 2.70722 0
M  V30 2869 H 254.373 3.94746 1.66954 0
M  V30 2870 H 258.557 4.81343 1.20922 0
M  V30 2871 H 253.813 6.08519 0.592891 0
M  V30 2872 H 257.987 6.96259 0.140143 0
M  V30 2873 H 255.614 7.60001 -0.173879 0
M  V30 2874 N 257.189 -0.644168 1.43834 0
M  V30 2875 C 258.438 -1.39985 1.45214 0
M  V30 2876 C 258.751 -1.95421 0.0835494 0
M  V30 2877 O 259.957 -2.71488 -0.0251748 0
M  V30 2878 C 258.413 -2.53384 2.55587 0
M  V30 2879 C 258.021 -2.04517 3.98594 0
M  V30 2880 C 259.765 -3.30685 2.66172 0
M  V30 2881 C 257.672 -3.1518 5.00416 0
M  V30 2882 H 256.602 -0.526005 0.540218 0
M  V30 2883 H 259.253 -0.694367 1.69855 0
M  V30 2884 H 257.635 -3.26446 2.24163 0
M  V30 2885 H 258.809 -1.38405 4.39523 0
M  V30 2886 H 257.124 -1.40068 3.92135 0
M  V30 2887 H 259.721 -4.13158 3.39418 0
M  V30 2888 H 260.064 -3.79312 1.71546 0
M  V30 2889 H 260.597 -2.64708 2.96942 0
M  V30 2890 H 257.336 -2.71511 5.96625 0
M  V30 2891 H 256.856 -3.79974 4.64091 0
M  V30 2892 H 258.535 -3.80166 5.23529 0
M  V30 2893 N 258.668 -1.30515 -0.883378 0
M  V30 2894 C 259.598 -1.19607 -2.00541 0
M  V30 2895 C 260.579 -0.086346 -1.69881 0
M  V30 2896 O 261.764 -0.268654 -1.92333 0
M  V30 2897 C 258.894 -0.888758 -3.35736 0
M  V30 2898 C 257.848 -1.95659 -3.8066 0
M  V30 2899 C 257.174 -1.50224 -5.13164 0
M  V30 2900 C 258.474 -3.36788 -3.99213 0
M  V30 2901 H 260.168 -2.13476 -2.09925 0
M  V30 2902 H 257.714 -1.02775 -1.00863 0
M  V30 2903 H 259.667 -0.799094 -4.13754 0
M  V30 2904 H 258.391 0.0856125 -3.26488 0
M  V30 2905 H 257.05 -2.03591 -3.04871 0
M  V30 2906 H 256.698 -0.516092 -5.00345 0
M  V30 2907 H 256.398 -2.2165 -5.44192 0
M  V30 2908 H 257.922 -1.42639 -5.93706 0
M  V30 2909 H 259.336 -3.31605 -4.67665 0
M  V30 2910 H 257.733 -4.06314 -4.41621 0
M  V30 2911 H 258.803 -3.78561 -3.03017 0
M  V30 2912 N 260.146 1.09593 -1.13257 0
M  V30 2913 C 261.557 1.63229 -0.906274 0
M  V30 2914 C 261.908 1.8811 0.557578 0
M  V30 2915 O 261.033 1.62953 1.42391 0
M  V30 2916 C 261.628 2.96535 -1.63867 0
M  V30 2917 C 260.187 3.47003 -1.45828 0
M  V30 2918 C 259.334 2.2145 -1.66898 0
M  V30 2919 H 262.285 0.92978 -1.28611 0
M  V30 2920 H 262.306 3.64411 -1.09476 0
M  V30 2921 H 261.818 2.78394 -2.70404 0
M  V30 2922 H 259.919 3.70272 -0.415848 0
M  V30 2923 H 260.032 4.24551 -2.2202 0
M  V30 2924 H 258.396 2.30022 -1.09371 0
M  V30 2925 H 259.179 2.0583 -2.74752 0
M  V30 2926 N 261.624 0.925811 1.2754 0
M  V30 2927 C 262.871 0.565255 1.94451 0
M  V30 2928 C 263.199 -0.89316 1.7278 0
M  V30 2929 O 262.454 -1.65213 1.04895 0
M  V30 2930 C 262.753 0.835296 3.47502 0
M  V30 2931 C 262.419 2.27515 3.89291 0
M  V30 2932 C 261.081 2.66879 4.00411 0
M  V30 2933 C 263.433 3.21158 4.10496 0
M  V30 2934 C 260.761 3.99014 4.30122 0
M  V30 2935 C 263.113 4.52871 4.4169 0
M  V30 2936 C 261.777 4.92072 4.51023 0
M  V30 2937 H 261.047 0.206841 0.711546 0
M  V30 2938 H 263.694 1.16942 1.51647 0
M  V30 2939 H 261.999 0.148442 3.91519 0
M  V30 2940 H 263.696 0.535322 3.97411 0
M  V30 2941 H 260.286 1.95976 3.81171 0
M  V30 2942 H 264.47 2.9195 4.01346 0
M  V30 2943 H 259.726 4.2907 4.35556 0
M  V30 2944 H 263.9 5.25436 4.57045 0
M  V30 2945 H 261.527 5.9449 4.738 0
M  V30 2946 N 263.102 -1.41638 0.69111 0
M  V30 2947 C 264.351 -2.00526 0.217318 0
M  V30 2948 C 264.664 -1.55353 -1.18848 0
M  V30 2949 O 265.87 -2.06769 -1.75951 0
M  V30 2950 C 264.326 -3.58313 0.337639 0
M  V30 2951 C 263.934 -4.12469 1.74852 0
M  V30 2952 C 265.678 -4.24431 -0.0766066 0
M  V30 2953 C 263.585 -5.62675 1.82074 0
M  V30 2954 H 262.515 -0.750008 0.0774893 0
M  V30 2955 H 265.166 -1.6217 0.858661 0
M  V30 2956 H 263.548 -3.9425 -0.371879 0
M  V30 2957 H 264.722 -3.8796 2.48644 0
M  V30 2958 H 263.037 -3.58861 2.11205 0
M  V30 2959 H 265.634 -5.34683 -0.0430284 0
M  V30 2960 H 265.977 -4.01101 -1.1146 0
M  V30 2961 H 266.51 -3.93512 0.582476 0
M  V30 2962 H 263.249 -5.90826 2.83911 0
M  V30 2963 H 262.769 -5.89124 1.12661 0
M  V30 2964 H 264.448 -6.27371 1.58159 0
M  V30 2965 N 264.58 -0.43555 -1.51462 0
M  V30 2966 C 265.828 0.131254 -2.01673 0
M  V30 2967 C 266.149 1.43368 -1.32177 0
M  V30 2968 O 265.419 1.90524 -0.455769 0
M  V30 2969 H 263.999 0.0514954 -0.745223 0
M  V30 2970 H 266.661 -0.577847 -1.86137 0
M  V30 2971 H 265.757 0.308446 -3.10572 0
M  V30 2972 N 266.058 1.56714 -0.166846 0
M  V30 2973 C 266.988 2.20754 0.760913 0
M  V30 2974 C 267.969 1.16178 1.24244 0
M  V30 2975 O 269.154 1.44592 1.29641 0
M  V30 2976 C 266.284 2.84478 1.99223 0
M  V30 2977 C 265.238 3.95053 1.64672 0
M  V30 2978 C 264.564 4.45805 2.95232 0
M  V30 2979 C 265.864 5.14865 0.878155 0
M  V30 2980 H 267.558 2.98537 0.22713 0
M  V30 2981 H 265.104 1.43596 0.107805 0
M  V30 2982 H 267.057 3.27951 2.64624 0
M  V30 2983 H 265.781 2.04056 2.55007 0
M  V30 2984 H 264.44 3.52228 1.01641 0
M  V30 2985 H 264.088 3.62181 3.49047 0
M  V30 2986 H 263.788 5.204 2.7287 0
M  V30 2987 H 265.312 4.91962 3.6167 0
M  V30 2988 H 266.726 5.55059 1.43466 0
M  V30 2989 H 265.123 5.95348 0.753738 0
M  V30 2990 H 266.193 4.84735 -0.126377 0
M  V30 2991 N 267.536 -0.106894 1.57237 0
M  V30 2992 C 268.776 -0.818277 1.87306 0
M  V30 2993 C 269.14 -1.76474 0.756371 0
M  V30 2994 O 270.341 -2.5186 0.939155 0
M  V30 2995 C 268.612 -1.53806 3.22612 0
M  V30 2996 S 270.171 -2.28935 3.74345 0
M  V30 2997 H 266.989 -0.272862 0.656557 0
M  V30 2998 H 269.591 -0.075988 1.95352 0
M  V30 2999 H 268.295 -0.834951 4.01817 0
M  V30 3000 H 267.826 -2.32049 3.17674 0
M  V30 3001 H 269.841 -3.54871 3.46815 0
M  V30 3002 N 269.014 -1.53014 -0.377408 0
M  V30 3003 C 270.263 -1.67845 -1.11853 0
M  V30 3004 C 270.576 -0.430625 -1.90801 0
M  V30 3005 O 271.782 -0.459261 -2.67587 0
M  V30 3006 C 270.238 -2.96668 -2.03756 0
M  V30 3007 C 269.846 -4.28671 -1.30175 0
M  V30 3008 C 271.59 -3.20865 -2.77932 0
M  V30 3009 C 269.497 -5.48591 -2.20911 0
M  V30 3010 H 268.427 -0.625343 -0.421263 0
M  V30 3011 H 271.078 -1.79514 -0.380409 0
M  V30 3012 H 269.46 -2.78773 -2.8125 0
M  V30 3013 H 270.634 -4.57157 -0.578259 0
M  V30 3014 H 268.949 -4.10825 -0.679108 0
M  V30 3015 H 271.546 -4.07642 -3.46024 0
M  V30 3016 H 271.889 -2.36424 -3.4265 0
M  V30 3017 H 272.422 -3.39379 -2.07525 0
M  V30 3018 H 269.161 -6.35474 -1.6079 0
M  V30 3019 H 268.681 -5.244 -2.91144 0
M  V30 3020 H 270.36 -5.8292 -2.80736 0
M  V30 3021 N 270.492 0.636531 -1.44174 0
M  V30 3022 C 271.738 1.39826 -1.4689 0
M  V30 3023 C 272.071 1.93947 -0.0990585 0
M  V30 3024 O 271.346 1.73325 0.882544 0
M  V30 3025 C 271.629 2.56751 -2.5249 0
M  V30 3026 C 271.482 2.08014 -3.98811 0
M  V30 3027 C 272.801 3.58946 -2.54649 0
M  V30 3028 H 269.92 0.507075 -0.53483 0
M  V30 3029 H 272.562 0.720188 -1.75822 0
M  V30 3030 H 270.712 3.14597 -2.2795 0
M  V30 3031 H 272.384 1.5504 -4.34466 0
M  V30 3032 H 270.627 1.39242 -4.10846 0
M  V30 3033 H 271.298 2.92169 -4.68339 0
M  V30 3034 H 273.774 3.1089 -2.76563 0
M  V30 3035 H 272.65 4.38286 -3.3045 0
M  V30 3036 H 272.911 4.12655 -1.58646 0
M  V30 3037 N 271.97 1.30982 0.876444 0
M  V30 3038 C 273.217 1.20296 1.62896 0
M  V30 3039 C 273.545 -0.240395 1.93009 0
M  V30 3040 O 272.8 -1.18733 1.55567 0
M  V30 3041 C 273.099 1.98572 2.9716 0
M  V30 3042 C 272.765 3.48125 2.86566 0
M  V30 3043 C 271.427 3.88905 2.83383 0
M  V30 3044 C 273.779 4.43322 2.74071 0
M  V30 3045 C 271.107 5.2316 2.65556 0
M  V30 3046 C 273.459 5.77695 2.57781 0
M  V30 3047 C 272.123 6.17704 2.52979 0
M  V30 3048 H 271.393 0.440193 0.59608 0
M  V30 3049 H 274.04 1.62177 1.01837 0
M  V30 3050 H 272.345 1.49352 3.62217 0
M  V30 3051 H 274.042 1.8769 3.54364 0
M  V30 3052 H 270.632 3.15723 2.89856 0
M  V30 3053 H 274.816 4.12752 2.75589 0
M  V30 3054 H 270.072 5.53241 2.60259 0
M  V30 3055 H 274.246 6.51091 2.47089 0
M  V30 3056 H 271.873 7.21678 2.38924 0
M  V30 3057 N 273.449 -1.08991 1.13837 0
M  V30 3058 C 274.698 -1.80631 0.897509 0
M  V30 3059 C 275.011 -1.86872 -0.57777 0
M  V30 3060 O 276.217 -2.54866 -0.935701 0
M  V30 3061 C 274.673 -3.24517 1.55618 0
M  V30 3062 C 274.281 -3.26529 3.0673 0
M  V30 3063 C 276.025 -4.00882 1.3962 0
M  V30 3064 C 273.932 -4.64965 3.65461 0
M  V30 3065 H 272.862 -0.67691 0.332129 0
M  V30 3066 H 275.513 -1.2246 1.3666 0
M  V30 3067 H 273.895 -3.82778 1.01476 0
M  V30 3068 H 275.069 -2.78008 3.67489 0
M  V30 3069 H 273.384 -2.63656 3.22296 0
M  V30 3070 H 275.981 -5.03167 1.80906 0
M  V30 3071 H 276.324 -4.14896 0.341578 0
M  V30 3072 H 276.857 -3.49075 1.90766 0
M  V30 3073 H 273.596 -4.56153 4.70749 0
M  V30 3074 H 273.116 -5.13792 3.09481 0
M  V30 3075 H 274.795 -5.3394 3.654 0
M  V30 3076 N 274.927 -0.932562 -1.27047 0
M  V30 3077 C 275.877 -0.406392 -2.24349 0
M  V30 3078 C 276.861 0.492066 -1.53191 0
M  V30 3079 O 278.053 0.328717 -1.73921 0
M  V30 3080 C 275.182 0.335214 -3.41659 0
M  V30 3081 C 274.268 -0.58004 -4.20115 0
M  V30 3082 N 274.659 -1.70203 -4.76303 0
M  V30 3083 C 272.957 -0.383974 -4.44344 0
M  V30 3084 C 273.658 -2.27167 -5.35509 0
M  V30 3085 N 272.634 -1.56068 -5.20715 0
M  V30 3086 H 276.436 -1.26299 -2.65378 0
M  V30 3087 H 273.95 -0.787408 -1.42034 0
M  V30 3088 H 275.947 0.729142 -4.10474 0
M  V30 3089 H 274.607 1.18868 -3.0216 0
M  V30 3090 H 275.618 -2.08433 -4.74106 0
M  V30 3091 H 272.295 0.428436 -4.15296 0
M  V30 3092 H 273.685 -3.21654 -5.89905 0
M  V30 3093 N 276.405 1.4127 -0.698611 0
M  V30 3094 C 277.654 2.00408 -0.227949 0
M  V30 3095 C 277.967 1.55981 1.18023 0
M  V30 3096 O 279.173 2.07699 1.74852 0
M  V30 3097 C 277.629 3.58129 -0.356636 0
M  V30 3098 C 277.237 4.11536 -1.77037 0
M  V30 3099 C 278.981 4.24466 0.0540969 0
M  V30 3100 C 276.888 5.61701 -1.85055 0
M  V30 3101 H 275.818 0.749586 -0.0814657 0
M  V30 3102 H 278.469 1.61713 -0.867249 0
M  V30 3103 H 276.851 3.94442 0.350965 0
M  V30 3104 H 278.025 3.86636 -2.50698 0
M  V30 3105 H 276.34 3.57736 -2.13105 0
M  V30 3106 H 278.937 5.34698 0.0146723 0
M  V30 3107 H 279.28 4.01687 1.09332 0
M  V30 3108 H 279.813 3.93198 -0.603337 0
M  V30 3109 H 276.552 5.89312 -2.8704 0
M  V30 3110 H 276.072 5.88519 -1.15783 0
M  V30 3111 H 277.751 6.26524 -1.61484 0
M  V30 3112 N 277.883 0.443576 1.51229 0
M  V30 3113 C 279.13 -0.120796 2.02139 0
M  V30 3114 C 279.458 -1.42166 1.32736 0
M  V30 3115 O 278.713 -1.90849 0.43301 0
M  V30 3116 C 279.012 -0.380579 3.55368 0
M  V30 3117 C 278.678 0.83523 4.43097 0
M  V30 3118 C 277.34 1.16864 4.66794 0
M  V30 3119 C 279.692 1.64601 4.94526 0
M  V30 3120 C 277.02 2.31339 5.39165 0
M  V30 3121 C 279.372 2.78181 5.68153 0
M  V30 3122 C 278.036 3.11969 5.90112 0
M  V30 3123 H 277.306 -0.0442023 0.73968 0
M  V30 3124 H 279.953 0.592046 1.82118 0
M  V30 3125 H 278.258 -1.17538 3.73754 0
M  V30 3126 H 279.955 -0.830777 3.923 0
M  V30 3127 H 276.545 0.565437 4.24854 0
M  V30 3128 H 280.729 1.40163 4.76097 0
M  V30 3129 H 275.985 2.57823 5.5438 0
M  V30 3130 H 280.159 3.41371 6.06992 0
M  V30 3131 H 277.786 4.00784 6.45969 0
M  V30 3132 N 279.361 -1.56624 0.175154 0
M  V30 3133 C 280.608 -1.96999 -0.468811 0
M  V30 3134 C 280.936 -1.06129 -1.62994 0
M  V30 3135 O 280.191 -0.0961771 -1.95464 0
M  V30 3136 C 280.49 -3.43419 -0.989864 0
M  V30 3137 C 280.156 -4.50866 0.0557687 0
M  V30 3138 C 278.818 -4.79975 0.343134 0
M  V30 3139 C 281.17 -5.15551 0.765308 0
M  V30 3140 C 278.498 -5.71066 1.34536 0
M  V30 3141 C 280.85 -6.07724 1.75654 0
M  V30 3142 C 279.514 -6.35199 2.05132 0
M  V30 3143 H 278.784 -0.720869 -0.17155 0
M  V30 3144 H 281.431 -1.89616 0.267924 0
M  V30 3145 H 279.736 -3.47772 -1.80449 0
M  V30 3146 H 281.433 -3.72002 -1.49719 0
M  V30 3147 H 278.023 -4.28229 -0.178381 0
M  V30 3148 H 282.207 -4.9317 0.556513 0
M  V30 3149 H 277.463 -5.90635 1.57988 0
M  V30 3150 H 281.637 -6.56912 2.31169 0
M  V30 3151 H 279.264 -7.05584 2.8294 0
M  V30 3152 N 280.839 0.0985539 -1.57292 0
M  V30 3153 C 281.769 1.12064 -2.04851 0
M  V30 3154 C 282.75 1.41981 -0.936767 0
M  V30 3155 O 283.935 1.52071 -1.20781 0
M  V30 3156 C 281.065 2.44144 -2.47004 0
M  V30 3157 C 280.019 2.28643 -3.6181 0
M  V30 3158 C 279.345 3.65869 -3.89929 0
M  V30 3159 C 280.645 1.72986 -4.92822 0
M  V30 3160 H 282.339 0.724979 -2.9049 0
M  V30 3161 H 279.885 0.34729 -1.39749 0
M  V30 3162 H 281.838 3.15914 -2.78884 0
M  V30 3163 H 280.562 2.85639 -1.5836 0
M  V30 3164 H 279.221 1.59318 -3.30172 0
M  V30 3165 H 278.869 4.04885 -2.98458 0
M  V30 3166 H 278.569 3.56344 -4.67218 0
M  V30 3167 H 280.093 4.39112 -4.2428 0
M  V30 3168 H 281.507 2.34593 -5.23105 0
M  V30 3169 H 279.904 1.74229 -5.74251 0
M  V30 3170 H 280.974 0.689007 -4.7998 0
M  V30 3171 N 282.317 1.53212 0.369288 0
M  V30 3172 C 283.267 1.75769 1.45222 0
M  V30 3173 C 284.251 0.612136 1.48801 0
M  V30 3174 O 285.443 0.870674 1.54105 0
M  V30 3175 C 282.572 1.94769 2.82701 0
M  V30 3176 C 281.658 3.15315 2.83615 0
M  V30 3177 N 282.049 4.37295 2.54178 0
M  V30 3178 C 280.347 3.15962 3.14776 0
M  V30 3179 C 281.048 5.19015 2.62675 0
M  V30 3180 N 280.024 4.55142 2.97232 0
M  V30 3181 H 283.826 2.67691 1.2132 0
M  V30 3182 H 281.34 1.51787 0.577438 0
M  V30 3183 H 283.337 2.09056 3.60696 0
M  V30 3184 H 281.997 1.04073 3.07569 0
M  V30 3185 H 283.008 4.65091 2.27839 0
M  V30 3186 H 279.685 2.35144 3.44983 0
M  V30 3187 H 281.075 6.26305 2.43294 0
M  V30 3188 N 283.795 -0.628877 1.44509 0
M  V30 3189 C 284.725 -1.75187 1.54376 0
M  V30 3190 C 285.706 -1.65411 0.396618 0
M  V30 3191 O 286.891 -1.84137 0.617031 0
M  V30 3192 C 284.021 -3.13725 1.48976 0
M  V30 3193 C 282.975 -3.38291 2.62189 0
M  V30 3194 C 282.301 -4.76883 2.41841 0
M  V30 3195 C 283.601 -3.30632 4.04326 0
M  V30 3196 H 285.295 -1.67187 2.48373 0
M  V30 3197 H 282.841 -0.802909 1.19538 0
M  V30 3198 H 284.794 -3.92064 1.54478 0
M  V30 3199 H 283.518 -3.22515 0.514961 0
M  V30 3200 H 282.177 -2.62334 2.56079 0
M  V30 3201 H 281.825 -4.82378 1.42548 0
M  V30 3202 H 281.525 -4.94278 3.17747 0
M  V30 3203 H 283.049 -5.57449 2.49165 0
M  V30 3204 H 284.463 -3.98873 4.11793 0
M  V30 3205 H 282.86 -3.59561 4.80454 0
M  V30 3206 H 283.93 -2.28404 4.27738 0
M  V30 3207 N 285.273 -1.31445 -0.869486 0
M  V30 3208 C 286.223 -1.15731 -1.96444 0
M  V30 3209 C 287.207 -0.0681855 -1.60755 0
M  V30 3210 O 288.399 -0.293154 -1.74555 0
M  V30 3211 C 285.528 -0.867255 -3.32165 0
M  V30 3212 C 284.614 -1.99738 -3.74119 0
M  V30 3213 N 285.005 -3.24447 -3.88031 0
M  V30 3214 C 283.303 -1.89723 -4.03635 0
M  V30 3215 C 284.004 -3.98374 -4.23879 0
M  V30 3216 N 282.98 -3.26547 -4.3459 0
M  V30 3217 H 286.782 -2.10296 -2.05312 0
M  V30 3218 H 284.296 -1.23009 -1.06031 0
M  V30 3219 H 286.293 -0.735668 -4.10358 0
M  V30 3220 H 284.953 0.0701614 -3.24624 0
M  V30 3221 H 285.964 -3.59557 -3.72746 0
M  V30 3222 H 282.641 -1.03449 -4.04481 0
M  V30 3223 H 284.031 -5.05844 -4.42235 0
M  V30 3224 N 286.751 1.08385 -1.14413 0
M  V30 3225 C 287.999 1.80419 -0.910679 0
M  V30 3226 C 288.32 1.86658 0.564243 0
M  V30 3227 O 287.59 1.35985 1.41014 0
M  V30 3228 H 286.17 0.668204 -0.333934 0
M  V30 3229 H 288.832 1.31037 -1.44275 0
M  V30 3230 H 287.928 2.83238 -1.31082 0
M  V30 3231 N 288.23 0.939286 1.26551 0
M  V30 3232 C 289.455 0.602008 1.98471 0
M  V30 3233 C 289.88 -0.815624 1.69497 0
M  V30 3234 O 289.238 -1.54912 0.941905 0
M  V30 3235 C 289.286 0.848407 3.50477 0
M  V30 3236 O 288.39 -0.0804009 4.12322 0
M  V30 3237 H 287.731 0.23049 0.622712 0
M  V30 3238 H 290.261 1.2617 1.61066 0
M  V30 3239 H 290.271 0.768553 4.00696 0
M  V30 3240 H 288.946 1.88171 3.70897 0
M  V30 3241 H 287.523 0.0503508 3.72866 0
M  V30 3242 N 289.708 -1.40897 0.706093 0
M  V30 3243 C 290.936 -2.05373 0.250887 0
M  V30 3244 C 291.351 -1.53172 -1.10381 0
M  V30 3245 O 290.708 -0.684305 -1.69185 0
M  V30 3246 C 290.759 -3.6088 0.211571 0
M  V30 3247 O 290.48 -4.11153 1.51276 0
M  V30 3248 C 291.981 -4.42517 -0.263346 0
M  V30 3249 H 289.201 -0.66115 0.114552 0
M  V30 3250 H 291.745 -1.80479 0.961635 0
M  V30 3251 H 289.9 -3.84777 -0.450073 0
M  V30 3252 H 290.314 -5.05279 1.40689 0
M  V30 3253 H 291.788 -5.51479 -0.239718 0
M  V30 3254 H 292.265 -4.19396 -1.30397 0
M  V30 3255 H 292.871 -4.23708 0.367677 0
M  V30 3256 N 291.186 -0.45159 -1.50991 0
M  V30 3257 C 292.134 0.366864 -2.29689 0
M  V30 3258 C 293.128 1.00809 -1.36139 0
M  V30 3259 O 294.334 0.941427 -1.53418 0
M  V30 3260 H 290.709 0.137133 -0.739391 0
M  V30 3261 H 292.68 -0.317538 -2.96706 0
M  V30 3262 C 291.429 1.44751 -3.16137 0
M  V30 3263 H 290.752 0.963473 -3.88017 0
M  V30 3264 H 292.192 1.99315 -3.74232 0
M  V30 3265 C 290.651 2.43869 -2.32442 0
M  V30 3266 O 291.181 3.4872 -1.99392 0
M  V30 3267 N 289.387 2.15105 -1.95392 0
M  V30 3268 H 288.934 1.29866 -2.22469 0
M  V30 3269 H 288.892 2.81661 -1.39693 0
M  V30 3270 N 292.664 1.56529 -0.183458 0
M  V30 3271 C 294.075 1.83739 0.331177 0
M  V30 3272 C 294.426 1.10373 1.62211 0
M  V30 3273 O 293.551 0.36071 2.13373 0
M  V30 3274 C 294.146 3.33306 0.607646 0
M  V30 3275 C 292.705 3.60969 1.06668 0
M  V30 3276 C 291.852 2.77086 0.109029 0
M  V30 3277 H 294.803 1.53379 -0.407484 0
M  V30 3278 H 294.824 3.51444 1.45832 0
M  V30 3279 H 294.336 3.86677 -0.332086 0
M  V30 3280 H 292.437 3.13021 2.0211 0
M  V30 3281 H 292.55 4.69231 0.967447 0
M  V30 3282 H 290.914 2.47319 0.608714 0
M  V30 3283 H 291.697 3.33241 -0.82494 0
M  V30 3284 N 294.142 -0.090211 1.57342 0
M  V30 3285 C 295.072 -1.10976 2.05443 0
M  V30 3286 C 296.053 -1.41482 0.944284 0
M  V30 3287 O 297.238 -1.51428 1.21586 0
M  V30 3288 C 294.368 -2.42831 2.48295 0
M  V30 3289 C 293.322 -2.26721 3.63018 0
M  V30 3290 C 292.648 -3.63796 3.91863 0
M  V30 3291 C 293.948 -1.7037 4.93732 0
M  V30 3292 H 295.642 -0.709564 2.9087 0
M  V30 3293 H 293.188 -0.339874 1.39932 0
M  V30 3294 H 295.141 -3.14431 2.80555 0
M  V30 3295 H 293.865 -2.84795 1.59873 0
M  V30 3296 H 292.524 -1.57565 3.31012 0
M  V30 3297 H 292.172 -4.03297 3.00601 0
M  V30 3298 H 291.872 -3.53861 4.69101 0
M  V30 3299 H 293.396 -4.36855 4.26603 0
M  V30 3300 H 294.81 -2.31816 5.24342 0
M  V30 3301 H 293.207 -1.71181 5.75167 0
M  V30 3302 H 294.277 -0.663542 4.80339 0
M  V30 3303 N 295.62 -1.53406 -0.361157 0
M  V30 3304 C 296.868 -1.69467 -1.10115 0
M  V30 3305 C 297.189 -0.451352 -1.89705 0
M  V30 3306 O 296.459 0.534636 -1.88463 0
M  V30 3307 H 295.039 -0.624749 -0.409508 0
M  V30 3308 H 297.701 -1.90609 -0.406699 0
M  V30 3309 H 296.797 -2.55774 -1.78847 0
M  V30 3310 N 297.098 0.621204 -1.44841 0
M  V30 3311 C 298.328 1.40548 -1.51426 0
M  V30 3312 C 298.736 1.88673 -0.141083 0
M  V30 3313 O 298.079 1.62053 0.865128 0
M  V30 3314 C 298.141 2.65325 -2.42576 0
M  V30 3315 C 297.805 2.3893 -3.89566 0
M  V30 3316 C 298.802 2.00138 -4.79834 0
M  V30 3317 C 296.487 2.52263 -4.3436 0
M  V30 3318 C 298.481 1.75021 -6.129 0
M  V30 3319 C 296.168 2.2676 -5.67471 0
M  V30 3320 C 297.166 1.88199 -6.56559 0
M  V30 3321 O 296.854 1.62986 -7.87204 0
M  V30 3322 H 296.586 0.437122 -0.515655 0
M  V30 3323 H 299.14 0.765987 -1.90583 0
M  V30 3324 H 297.37 3.31947 -1.98364 0
M  V30 3325 H 299.059 3.27347 -2.39998 0
M  V30 3326 H 299.825 1.89386 -4.46495 0
M  V30 3327 H 295.704 2.81246 -3.65269 0
M  V30 3328 H 299.248 1.44848 -6.82396 0
M  V30 3329 H 295.145 2.37125 -6.00368 0
M  V30 3330 H 295.913 1.7715 -7.991 0
M  V30 3331 N 298.576 1.31904 0.862503 0
M  V30 3332 C 299.853 1.12644 1.59908 0
M  V30 3333 C 300.233 -0.316104 2.0872 0
M  V30 3334 O 299.581 -1.31145 1.87118 0
M  V30 3335 C 299.791 2.1472 2.7513 0
M  V30 3336 C 301.139 2.47637 3.44907 0
M  V30 3337 O 302.163 2.13205 2.85346 0
M  V30 3338 O 301.022 3.06632 4.52371 0
M  V30 3339 H 298.116 0.43416 0.703871 0
M  V30 3340 H 300.662 1.43408 0.907314 0
M  V30 3341 H 299.434 3.1172 2.3653 0
M  V30 3342 H 299.057 1.84905 3.51989 0
M  V30 3343 N 300.054 -1.07777 1.14986 0
M  V30 3344 C 301.282 -1.84018 0.945773 0
M  V30 3345 C 301.697 -1.81897 -0.505863 0
M  V30 3346 O 301.054 -1.22726 -1.35072 0
M  V30 3347 C 301.105 -3.31287 1.44677 0
M  V30 3348 O 300.826 -3.33449 2.84154 0
M  V30 3349 C 302.327 -4.24311 1.28355 0
M  V30 3350 H 299.547 -0.580716 0.336169 0
M  V30 3351 H 302.091 -1.36077 1.52654 0
M  V30 3352 H 300.246 -3.76594 0.908625 0
M  V30 3353 H 300.66 -4.25427 3.06777 0
M  V30 3354 H 302.134 -5.2573 1.68261 0
M  V30 3355 H 302.611 -4.38612 0.227184 0
M  V30 3356 H 303.217 -3.84836 1.81056 0
M  V30 3357 N 301.532 -0.945985 -1.26051 0
M  V30 3358 C 302.495 -0.463897 -2.24456 0
M  V30 3359 C 303.495 0.427655 -1.55009 0
M  V30 3360 O 304.685 0.226157 -1.72726 0
M  V30 3361 C 301.817 0.330812 -3.39291 0
M  V30 3362 H 303.01 -1.33357 -2.68619 0
M  V30 3363 H 300.563 -0.728416 -1.38289 0
M  V30 3364 H 301.298 1.21852 -3.00537 0
M  V30 3365 H 301.083 -0.308679 -3.90883 0
M  V30 3366 H 302.573 0.657865 -4.12386 0
M  V30 3367 N 303.011 1.40521 -0.713556 0
M  V30 3368 C 303.941 2.33381 -0.0743864 0
M  V30 3369 C 304.922 1.52784 0.747735 0
M  V30 3370 O 306.107 1.81258 0.697071 0
M  V30 3371 C 303.237 3.36748 0.849598 0
M  V30 3372 C 302.191 4.27793 0.133247 0
M  V30 3373 C 301.517 5.21679 1.17281 0
M  V30 3374 C 302.817 5.12415 -1.01134 0
M  V30 3375 H 304.511 2.87081 -0.850007 0
M  V30 3376 H 302.057 1.38034 -0.410201 0
M  V30 3377 H 304.01 4.00648 1.30612 0
M  V30 3378 H 302.734 2.81439 1.65709 0
M  V30 3379 H 301.393 3.65342 -0.303426 0
M  V30 3380 H 301.041 4.62677 1.9733 0
M  V30 3381 H 300.741 5.83435 0.698397 0
M  V30 3382 H 302.265 5.88456 1.62947 0
M  V30 3383 H 303.679 5.69781 -0.634274 0
M  V30 3384 H 302.076 5.83203 -1.41399 0
M  V30 3385 H 303.146 4.48514 -1.84292 0
M  V30 3386 N 304.489 0.459591 1.5075 0
M  V30 3387 C 305.436 -0.340524 2.28274 0
M  V30 3388 C 306.406 -0.997371 1.32822 0
M  V30 3389 O 307.591 -1.01202 1.61749 0
M  V30 3390 C 304.731 -1.42317 3.14388 0
M  V30 3391 C 303.844 -0.782251 4.24859 0
M  V30 3392 C 302.979 -1.84182 4.98247 0
M  V30 3393 C 302.018 -1.18053 6.00608 0
M  V30 3394 N 301.155 -2.18244 6.67319 0
M  V30 3395 H 305.995 0.326899 2.96202 0
M  V30 3396 H 303.532 0.173057 1.46078 0
M  V30 3397 H 305.49 -2.06241 3.62658 0
M  V30 3398 H 304.12 -2.05992 2.4853 0
M  V30 3399 H 303.172 -0.0307404 3.80388 0
M  V30 3400 H 304.484 -0.259663 4.98124 0
M  V30 3401 H 303.638 -2.55714 5.50177 0
M  V30 3402 H 302.377 -2.39819 4.24662 0
M  V30 3403 H 301.382 -0.450776 5.47949 0
M  V30 3404 H 302.607 -0.631202 6.7616 0
M  V30 3405 H 300.553 -2.72919 5.96533 0
M  V30 3406 H 300.47 -1.70938 7.36421 0
M  V30 3407 H 301.738 -2.89191 7.23871 0
M  V30 3408 N 305.967 -1.56429 0.191757 0
M  V30 3409 C 307.216 -1.9666 -0.448088 0
M  V30 3410 C 307.529 -1.08136 -1.62991 0
M  V30 3411 O 308.735 -1.38135 -2.33733 0
M  V30 3412 C 307.191 -3.49753 -0.848585 0
M  V30 3413 C 306.799 -4.46935 0.308764 0
M  V30 3414 C 308.543 -3.9876 -1.4557 0
M  V30 3415 C 306.45 -5.91293 -0.112506 0
M  V30 3416 H 305.38 -0.734312 -0.171179 0
M  V30 3417 H 308.031 -1.81301 0.283242 0
M  V30 3418 H 306.413 -3.60604 -1.63649 0
M  V30 3419 H 307.587 -4.47813 1.08627 0
M  V30 3420 H 305.902 -4.08102 0.827158 0
M  V30 3421 H 308.499 -5.04086 -1.78328 0
M  V30 3422 H 308.842 -3.42875 -2.36099 0
M  V30 3423 H 309.375 -3.9101 -0.731836 0
M  V30 3424 H 306.114 -6.51097 0.758514 0
M  V30 3425 H 305.634 -5.93676 -0.854941 0
M  V30 3426 H 307.313 -6.44663 -0.549448 0
M  V30 3427 N 307.445 0.0818655 -1.57387 0
M  V30 3428 C 308.856 0.634871 -1.75574 0
M  V30 3429 C 309.207 1.78435 -0.815809 0
M  V30 3430 O 308.332 2.164 0.0025366 0
M  V30 3431 C 308.927 1.15845 -3.18379 0
M  V30 3432 C 307.486 1.65741 -3.37945 0
M  V30 3433 C 306.633 0.572549 -2.71325 0
M  V30 3434 H 309.584 -0.144268 -1.58043 0
M  V30 3435 H 309.605 2.02751 -3.21982 0
M  V30 3436 H 309.117 0.321631 -3.86765 0
M  V30 3437 H 307.218 2.51781 -2.74658 0
M  V30 3438 H 307.331 1.74129 -4.46336 0
M  V30 3439 H 305.695 1.01518 -2.33594 0
M  V30 3440 H 306.478 -0.253918 -3.4236 0
M  V30 3441 N 308.923 1.53595 0.353017 0
M  V30 3442 C 310.17 1.70385 1.09431 0
M  V30 3443 C 310.498 0.462113 1.88931 0
M  V30 3444 O 309.753 -0.556074 1.87633 0
M  V30 3445 C 310.052 2.91313 2.07054 0
M  V30 3446 C 309.718 4.27308 1.43939 0
M  V30 3447 C 308.38 4.64287 1.26454 0
M  V30 3448 C 310.732 5.11829 0.983883 0
M  V30 3449 C 308.06 5.83412 0.620226 0
M  V30 3450 C 310.412 6.31611 0.353516 0
M  V30 3451 C 309.076 6.67293 0.166272 0
M  V30 3452 H 308.346 0.623484 0.400436 0
M  V30 3453 H 310.993 1.87799 0.374655 0
M  V30 3454 H 309.298 2.68463 2.85368 0
M  V30 3455 H 310.995 3.01497 2.64387 0
M  V30 3456 H 307.585 3.98198 1.58543 0
M  V30 3457 H 311.769 4.838 1.10685 0
M  V30 3458 H 307.025 6.09639 0.463681 0
M  V30 3459 H 311.199 6.964 -0.00757555 0
M  V30 3460 H 308.826 7.59461 -0.335047 0
M  V30 3461 N 310.401 -0.613514 1.45168 0
M  V30 3462 C 311.631 -1.39743 1.52169 0
M  V30 3463 C 312.039 -1.88596 0.151086 0
M  V30 3464 O 311.382 -1.6251 -0.856521 0
M  V30 3465 C 311.444 -2.64035 2.43979 0
M  V30 3466 C 311.108 -2.36861 3.90827 0
M  V30 3467 C 312.105 -1.97591 4.80889 0
M  V30 3468 C 309.79 -2.49956 4.35692 0
M  V30 3469 C 311.784 -1.71768 6.1382 0
M  V30 3470 C 309.471 -2.23747 5.68665 0
M  V30 3471 C 310.469 -1.84714 6.57548 0
M  V30 3472 O 310.157 -1.58809 7.88058 0
M  V30 3473 H 309.889 -0.434382 0.517966 0
M  V30 3474 H 312.443 -0.75587 1.90986 0
M  V30 3475 H 310.673 -3.3089 2.00122 0
M  V30 3476 H 312.362 -3.26069 2.41731 0
M  V30 3477 H 313.128 -1.87015 4.47493 0
M  V30 3478 H 309.007 -2.79305 3.66756 0
M  V30 3479 H 312.551 -1.41227 6.83155 0
M  V30 3480 H 308.448 -2.33938 6.01617 0
M  V30 3481 H 309.216 -1.7291 8.00028 0
M  V30 3482 N 311.879 -1.3236 -0.855495 0
M  V30 3483 C 313.29 -1.2056 -1.42556 0
M  V30 3484 C 313.641 0.182209 -1.95352 0
M  V30 3485 O 312.766 1.08088 -1.87472 0
M  V30 3486 C 313.361 -2.1826 -2.59129 0
M  V30 3487 C 311.92 -2.10351 -3.12137 0
M  V30 3488 C 311.067 -2.06674 -1.84882 0
M  V30 3489 H 314.018 -1.442 -0.662727 0
M  V30 3490 H 314.039 -1.78064 -3.36264 0
M  V30 3491 H 313.551 -3.19257 -2.20673 0
M  V30 3492 H 311.652 -1.12599 -3.55179 0
M  V30 3493 H 311.765 -3.00135 -3.73438 0
M  V30 3494 H 310.129 -1.51901 -2.04446 0
M  V30 3495 H 310.912 -3.09451 -1.48643 0
M  V30 3496 N 313.357 1.07166 -1.15556 0
M  V30 3497 C 314.305 2.16517 -0.8499 0
M  V30 3498 C 315.299 1.68468 0.177454 0
M  V30 3499 O 316.505 1.79971 0.0323026 0
M  V30 3500 H 312.88 0.706652 -0.25719 0
M  V30 3501 H 314.851 2.39514 -1.77976 0
M  V30 3502 C 313.6 3.45855 -0.357682 0
M  V30 3503 H 312.923 3.83214 -1.13961 0
M  V30 3504 H 314.363 4.23607 -0.182489 0
M  V30 3505 C 312.822 3.24062 0.921152 0
M  V30 3506 O 313.352 3.48813 1.9923 0
M  V30 3507 N 311.558 2.77539 0.86141 0
M  V30 3508 H 311.105 2.57598 -0.0104408 0
M  V30 3509 H 311.063 2.63337 1.71758 0
M  V30 3510 N 314.835 0.952656 1.25548 0
M  V30 3511 C 315.765 0.489287 2.28316 0
M  V30 3512 C 316.746 -0.463359 1.63667 0
M  V30 3513 O 317.931 -0.36274 1.90782 0
M  V30 3514 C 315.061 -0.235603 3.465 0
M  V30 3515 C 314.015 0.631593 4.23314 0
M  V30 3516 C 313.341 -0.223923 5.34231 0
M  V30 3517 C 314.641 1.90871 4.86174 0
M  V30 3518 H 316.335 1.34822 2.67326 0
M  V30 3519 H 313.881 0.649728 1.28509 0
M  V30 3520 H 315.834 -0.570882 4.17515 0
M  V30 3521 H 314.558 -1.12877 3.06474 0
M  V30 3522 H 313.217 0.949929 3.54079 0
M  V30 3523 H 312.865 -1.11678 4.90446 0
M  V30 3524 H 312.565 0.35299 5.86539 0
M  V30 3525 H 314.089 -0.554214 6.0808 0
M  V30 3526 H 315.503 1.63997 5.49343 0
M  V30 3527 H 313.9 2.43112 5.4865 0
M  V30 3528 H 314.97 2.61304 4.08471 0
M  V30 3529 N 316.313 -1.40141 0.720998 0
M  V30 3530 C 317.243 -2.33339 0.0867621 0
M  V30 3531 C 318.224 -1.53178 -0.739622 0
M  V30 3532 O 319.409 -1.81625 -0.687449 0
M  V30 3533 C 316.539 -3.37194 -0.831728 0
M  V30 3534 C 315.493 -4.27857 -0.110558 0
M  V30 3535 C 314.819 -5.22294 -1.14513 0
M  V30 3536 C 316.119 -5.11872 1.0385 0
M  V30 3537 H 317.813 -2.86626 0.865219 0
M  V30 3538 H 315.359 -1.37814 0.417516 0
M  V30 3539 H 317.312 -4.01335 -1.28485 0
M  V30 3540 H 316.036 -2.82314 -1.64214 0
M  V30 3541 H 314.695 -3.65176 0.322797 0
M  V30 3542 H 314.343 -4.63717 -1.94874 0
M  V30 3543 H 314.043 -5.83797 -0.667446 0
M  V30 3544 H 315.567 -5.89312 -1.59824 0
M  V30 3545 H 316.981 -5.69436 0.664482 0
M  V30 3546 H 315.378 -5.82445 1.4449 0
M  V30 3547 H 316.448 -4.4753 1.86668 0
M  V30 3548 N 317.792 -0.46758 -1.50504 0
M  V30 3549 C 319.017 0.0886943 -2.0721 0
M  V30 3550 C 319.442 1.33057 -1.32956 0
M  V30 3551 O 318.8 1.77354 -0.376197 0
M  V30 3552 C 318.848 0.359202 -3.58806 0
M  V30 3553 O 317.952 1.44034 -3.8643 0
M  V30 3554 H 317.293 -0.0114349 -0.663902 0
M  V30 3555 H 319.823 -0.657613 -1.93744 0
M  V30 3556 H 319.833 0.600742 -4.03553 0
M  V30 3557 H 318.508 -0.548311 -4.1227 0
M  V30 3558 H 317.085 1.18638 -3.53524 0
M  V30 3559 N 319.27 1.56325 -0.20005 0
M  V30 3560 C 320.2 2.22318 0.713916 0
M  V30 3561 C 321.181 1.18788 1.21752 0
M  V30 3562 O 322.366 1.47309 1.26545 0
M  V30 3563 C 319.496 2.88639 1.93144 0
M  V30 3564 C 318.45 3.98457 1.56255 0
M  V30 3565 C 317.776 4.51967 2.85709 0
M  V30 3566 C 319.076 5.16612 0.768747 0
M  V30 3567 H 320.77 2.98952 0.163755 0
M  V30 3568 H 318.316 1.43792 0.0773219 0
M  V30 3569 H 320.269 3.33491 2.57608 0
M  V30 3570 H 318.993 2.09419 2.50621 0
M  V30 3571 H 317.652 3.54305 0.941471 0
M  V30 3572 H 317.3 3.69503 3.41287 0
M  V30 3573 H 317 5.26071 2.6177 0
M  V30 3574 H 318.524 4.99523 3.51154 0
M  V30 3575 H 319.938 5.57977 1.3166 0
M  V30 3576 H 318.335 5.96812 0.627286 0
M  V30 3577 H 319.405 4.84358 -0.229168 0
M  V30 3578 N 320.748 -0.0735177 1.57428 0
M  V30 3579 C 322.025 -0.805903 1.78226 0
M  V30 3580 C 322.405 -1.95874 0.787189 0
M  V30 3581 O 321.753 -2.2779 -0.180029 0
M  V30 3582 C 321.963 -1.28045 3.24662 0
M  V30 3583 C 323.311 -1.71453 3.88444 0
M  V30 3584 O 324.335 -1.37616 3.28543 0
M  V30 3585 O 323.194 -2.34093 4.93825 0
M  V30 3586 H 320.288 -0.386041 0.73137 0
M  V30 3587 H 322.834 -0.0537269 1.69615 0
M  V30 3588 H 321.606 -0.455476 3.8864 0
M  V30 3589 H 321.229 -2.094 3.37991 0
M  V30 3590 N 322.226 -1.5378 -0.344866 0
M  V30 3591 C 323.472 -1.71216 -1.08687 0
M  V30 3592 C 323.805 -0.473281 -1.88345 0
M  V30 3593 O 323.08 0.52968 -1.87149 0
M  V30 3594 C 323.363 -2.97486 -2.02914 0
M  V30 3595 C 323.216 -4.31579 -1.26727 0
M  V30 3596 C 324.535 -3.19422 -3.0275 0
M  V30 3597 H 321.654 -0.62301 -0.393735 0
M  V30 3598 H 324.296 -1.8645 -0.365563 0
M  V30 3599 H 322.446 -2.84629 -2.64421 0
M  V30 3600 H 324.118 -4.56284 -0.67845 0
M  V30 3601 H 322.361 -4.30049 -0.569273 0
M  V30 3602 H 323.032 -5.16106 -1.95803 0
M  V30 3603 H 325.508 -3.316 -2.51357 0
M  V30 3604 H 324.384 -4.09169 -3.65885 0
M  V30 3605 H 324.645 -2.35656 -3.74057 0
M  V30 3606 N 323.704 0.605807 -1.45491 0
M  V30 3607 C 324.651 1.7164 -1.54299 0
M  V30 3608 C 325.621 1.61486 -0.388761 0
M  V30 3609 O 326.806 1.81039 -0.602445 0
M  V30 3610 C 323.946 3.09953 -1.51734 0
M  V30 3611 C 323.059 3.309 -2.77721 0
M  V30 3612 C 322.194 4.59329 -2.66816 0
M  V30 3613 C 321.233 4.7354 -3.87848 0
M  V30 3614 N 320.37 5.9327 -3.75467 0
M  V30 3615 H 325.21 1.63449 -2.49176 0
M  V30 3616 H 322.747 0.796957 -1.23641 0
M  V30 3617 H 324.705 3.89977 -1.48235 0
M  V30 3618 H 323.335 3.17098 -0.604068 0
M  V30 3619 H 322.387 2.44639 -2.913 0
M  V30 3620 H 323.699 3.37274 -3.67488 0
M  V30 3621 H 322.853 5.4755 -2.61292 0
M  V30 3622 H 321.592 4.55355 -1.74651 0
M  V30 3623 H 320.597 3.83741 -3.93729 0
M  V30 3624 H 321.822 4.79309 -4.81082 0
M  V30 3625 H 319.768 5.90338 -2.86072 0
M  V30 3626 H 319.685 6.00811 -4.5887 0
M  V30 3627 H 320.953 6.83984 -3.73879 0
M  V30 3628 N 325.182 1.32811 0.848464 0
M  V30 3629 C 326.43 1.23479 1.59991 0
M  V30 3630 C 326.751 -0.201853 1.93952 0
M  V30 3631 O 326.021 -1.12818 1.60153 0
M  V30 3632 H 324.601 0.454034 0.593179 0
M  V30 3633 H 327.263 1.66412 1.01455 0
M  V30 3634 H 326.359 1.82178 2.53412 0
M  V30 3635 N 326.66 -1.06551 1.16123 0
M  V30 3636 C 327.907 -1.79302 0.941126 0
M  V30 3637 C 328.235 -1.87105 -0.531235 0
M  V30 3638 O 327.49 -1.35692 -1.41018 0
M  V30 3639 C 327.789 -3.23911 1.51052 0
M  V30 3640 C 327.455 -3.36193 3.00475 0
M  V30 3641 C 326.117 -3.39252 3.41265 0
M  V30 3642 C 328.469 -3.38326 3.96465 0
M  V30 3643 C 325.797 -3.42057 4.76669 0
M  V30 3644 C 328.149 -3.4267 5.31752 0
M  V30 3645 C 326.813 -3.4401 5.72026 0
M  V30 3646 H 326.083 -0.656111 0.344382 0
M  V30 3647 H 328.73 -1.25325 1.44796 0
M  V30 3648 H 327.035 -3.80723 0.925063 0
M  V30 3649 H 328.732 -3.78793 1.31593 0
M  V30 3650 H 325.322 -3.34516 2.6795 0
M  V30 3651 H 329.506 -3.35176 3.6602 0
M  V30 3652 H 324.762 -3.41398 5.07206 0
M  V30 3653 H 328.936 -3.43268 6.05921 0
M  V30 3654 H 326.563 -3.45937 6.76928 0
M  V30 3655 N 328.138 -0.959301 -1.25041 0
M  V30 3656 C 329.086 -0.474437 -2.2771 0
M  V30 3657 C 330.08 0.457697 -1.631 0
M  V30 3658 O 331.286 0.333912 -1.76876 0
M  V30 3659 H 327.661 -0.134936 -0.739795 0
M  V30 3660 H 329.632 -1.35251 -2.65988 0
M  V30 3661 C 328.381 0.227884 -3.46952 0
M  V30 3662 H 327.704 -0.480248 -3.96905 0
M  V30 3663 H 329.144 0.531091 -4.20661 0
M  V30 3664 C 327.603 1.452 -3.04004 0
M  V30 3665 O 328.133 2.54949 -3.10426 0
M  V30 3666 N 326.339 1.31502 -2.59144 0
M  V30 3667 H 325.886 0.422065 -2.54119 0
M  V30 3668 H 325.844 2.13521 -2.30773 0
M  V30 3669 N 329.616 1.39756 -0.72842 0
M  V30 3670 C 330.564 2.32485 -0.0731849 0
M  V30 3671 C 331.558 1.52717 0.733063 0
M  V30 3672 O 332.764 1.68428 0.634988 0
M  V30 3673 H 329.139 0.751984 -0.00486469 0
M  V30 3674 H 331.11 2.85382 -0.871761 0
M  V30 3675 C 329.859 3.37773 0.824908 0
M  V30 3676 H 329.182 3.99227 0.213915 0
M  V30 3677 H 330.622 4.05121 1.25111 0
M  V30 3678 C 329.081 2.74287 1.95622 0
M  V30 3679 O 329.611 2.61618 3.04826 0
M  V30 3680 N 327.817 2.32475 1.74367 0
M  V30 3681 H 327.364 2.4298 0.855494 0
M  V30 3682 H 327.322 1.90337 2.50238 0
M  V30 3683 N 331.094 0.475555 1.50254 0
M  V30 3684 C 332.34 -0.0780073 2.0265 0
M  V30 3685 C 332.673 -1.38968 1.35652 0
M  V30 3686 O 331.948 -1.8839 0.483691 0
M  V30 3687 C 332.231 -0.257161 3.59181 0
M  V30 3688 C 332.084 1.07585 4.36744 0
M  V30 3689 C 333.403 -1.00965 4.28362 0
M  V30 3690 H 330.522 -0.0268758 0.73651 0
M  V30 3691 H 333.164 0.622015 1.7953 0
M  V30 3692 H 331.314 -0.853412 3.79011 0
M  V30 3693 H 332.986 1.70902 4.28474 0
M  V30 3694 H 331.229 1.6714 4.00308 0
M  V30 3695 H 331.9 0.904088 5.44546 0
M  V30 3696 H 334.376 -0.504214 4.13034 0
M  V30 3697 H 333.252 -1.10381 5.37687 0
M  V30 3698 H 333.513 -2.04731 3.91839 0
M  V30 3699 N 332.573 -1.56217 0.208337 0
M  V30 3700 C 333.822 -1.97124 -0.427204 0
M  V30 3701 C 334.135 -1.09859 -1.61835 0
M  V30 3702 O 335.341 -1.40606 -2.32255 0
M  V30 3703 C 333.797 -3.50633 -0.811442 0
M  V30 3704 C 333.405 -4.46582 0.35615 0
M  V30 3705 C 335.149 -4.00282 -1.41332 0
M  V30 3706 C 333.056 -5.91379 -0.0497852 0
M  V30 3707 H 331.986 -0.736086 -0.163381 0
M  V30 3708 H 334.637 -1.8099 0.302456 0
M  V30 3709 H 333.019 -3.62319 -1.59815 0
M  V30 3710 H 334.193 -4.46636 1.1337 0
M  V30 3711 H 332.508 -4.07202 0.870396 0
M  V30 3712 H 335.105 -5.0595 -1.72972 0
M  V30 3713 H 335.448 -3.45359 -2.32449 0
M  V30 3714 H 335.981 -3.91764 -0.690323 0
M  V30 3715 H 332.72 -6.50255 0.827529 0
M  V30 3716 H 332.24 -5.94549 -0.791926 0
M  V30 3717 H 333.919 -6.45209 -0.481042 0
M  V30 3718 N 334.051 0.0651679 -1.57465 0
M  V30 3719 C 335.3 0.761916 -1.86756 0
M  V30 3720 C 335.613 1.78406 -0.801925 0
M  V30 3721 O 336.819 2.53084 -0.982885 0
M  V30 3722 C 335.275 1.40603 -3.31299 0
M  V30 3723 C 334.883 0.422115 -4.46007 0
M  V30 3724 C 336.627 2.08476 -3.69781 0
M  V30 3725 C 334.534 1.07252 -5.81593 0
M  V30 3726 H 333.464 0.288308 -0.696702 0
M  V30 3727 H 336.115 0.015344 -1.83494 0
M  V30 3728 H 334.497 2.20109 -3.29193 0
M  V30 3729 H 335.671 -0.343613 -4.59517 0
M  V30 3730 H 333.986 -0.152527 -4.16121 0
M  V30 3731 H 336.583 2.57925 -4.68379 0
M  V30 3732 H 336.926 2.88712 -2.99919 0
M  V30 3733 H 337.459 1.35792 -3.73905 0
M  V30 3734 H 334.198 0.310342 -6.54765 0
M  V30 3735 H 333.718 1.80895 -5.71872 0
M  V30 3736 H 335.397 1.59043 -6.27148 0
M  V30 3737 N 335.529 1.53961 0.336706 0
M  V30 3738 C 336.459 1.85417 1.41925 0
M  V30 3739 C 337.44 0.709856 1.5458 0
M  V30 3740 O 338.625 0.962396 1.68676 0
M  V30 3741 C 335.755 2.06985 2.78881 0
M  V30 3742 C 334.709 3.22813 2.81026 0
M  V30 3743 C 334.035 3.29727 4.20932 0
M  V30 3744 C 335.335 4.60767 2.45949 0
M  V30 3745 H 337.029 2.76079 1.15848 0
M  V30 3746 H 334.575 1.32839 0.555859 0
M  V30 3747 H 336.528 2.27575 3.54665 0
M  V30 3748 H 335.252 1.13061 3.06406 0
M  V30 3749 H 333.911 3.0209 2.07695 0
M  V30 3750 H 333.559 2.33385 4.45579 0
M  V30 3751 H 333.259 4.07566 4.23277 0
M  V30 3752 H 334.783 3.52536 4.98549 0
M  V30 3753 H 336.197 4.81325 3.11446 0
M  V30 3754 H 334.594 5.4106 2.59566 0
M  V30 3755 H 335.664 4.6391 1.41122 0
M  V30 3756 N 337.007 -0.598083 1.45811 0
M  V30 3757 C 338.254 -1.35681 1.50323 0
M  V30 3758 C 338.582 -1.9393 0.148739 0
M  V30 3759 O 337.837 -1.76094 -0.853787 0
M  V30 3760 C 338.136 -2.51669 2.53766 0
M  V30 3761 C 337.802 -2.11508 3.98215 0
M  V30 3762 C 336.464 -2.0027 4.37545 0
M  V30 3763 C 338.816 -1.80308 4.89018 0
M  V30 3764 C 336.144 -1.56067 5.65562 0
M  V30 3765 C 338.496 -1.37589 6.17456 0
M  V30 3766 C 337.16 -1.24916 6.55708 0
M  V30 3767 H 336.43 -0.496492 0.550069 0
M  V30 3768 H 339.077 -0.675052 1.79207 0
M  V30 3769 H 337.382 -3.25225 2.18486 0
M  V30 3770 H 339.079 -3.09895 2.54492 0
M  V30 3771 H 335.669 -2.21185 3.67117 0
M  V30 3772 H 339.853 -1.87884 4.59362 0
M  V30 3773 H 335.109 -1.44886 5.93985 0
M  V30 3774 H 339.283 -1.12495 6.87254 0
M  V30 3775 H 336.91 -0.904386 7.54801 0
M  V30 3776 N 338.485 -1.33259 -0.841409 0
M  V30 3777 C 339.415 -1.25926 -1.96634 0
M  V30 3778 C 340.396 -0.140349 -1.6952 0
M  V30 3779 O 341.581 -0.329707 -1.91381 0
M  V30 3780 C 338.711 -0.99512 -3.32738 0
M  V30 3781 C 337.665 -2.0767 -3.74242 0
M  V30 3782 C 336.991 -1.66474 -5.08125 0
M  V30 3783 C 338.291 -3.49318 -3.88297 0
M  V30 3784 H 339.985 -2.20046 -2.03027 0
M  V30 3785 H 337.531 -1.05931 -0.975425 0
M  V30 3786 H 339.484 -0.930323 -4.11002 0
M  V30 3787 H 338.208 -0.0183004 -3.26595 0
M  V30 3788 H 336.867 -2.13187 -2.98239 0
M  V30 3789 H 336.515 -0.675012 -4.9845 0
M  V30 3790 H 336.215 -2.3885 -5.36865 0
M  V30 3791 H 337.739 -1.61455 -5.88867 0
M  V30 3792 H 339.153 -3.46316 -4.56879 0
M  V30 3793 H 337.55 -4.20158 -4.28471 0
M  V30 3794 H 338.62 -3.8801 -2.9082 0
M  V30 3795 N 339.963 1.05934 -1.16686 0
M  V30 3796 C 341.212 1.78188 -0.945085 0
M  V30 3797 C 341.525 1.88338 0.528021 0
M  V30 3798 O 342.731 2.57258 0.867799 0
M  V30 3799 C 341.187 3.20277 -1.64167 0
M  V30 3800 C 340.795 3.18281 -3.15279 0
M  V30 3801 C 342.539 3.97039 -1.502 0
M  V30 3802 C 340.446 4.55112 -3.7766 0
M  V30 3803 H 339.376 0.667866 -0.349959 0
M  V30 3804 H 342.027 1.18794 -1.39858 0
M  V30 3805 H 340.409 3.79952 -1.11589 0
M  V30 3806 H 341.583 2.68167 -3.74731 0
M  V30 3807 H 339.898 2.55018 -3.29173 0
M  V30 3808 H 342.495 4.98194 -1.94183 0
M  V30 3809 H 342.838 4.13845 -0.451461 0
M  V30 3810 H 343.371 3.43894 -1.99954 0
M  V30 3811 H 340.11 4.43512 -4.82677 0
M  V30 3812 H 339.63 5.05406 -3.22994 0
M  V30 3813 H 341.309 5.24064 -3.79428 0
M  V30 3814 N 341.441 0.965919 1.2453 0
M  V30 3815 C 342.373 0.452465 2.2469 0
M  V30 3816 C 343.386 -0.437821 1.56802 0
M  V30 3817 O 344.575 -0.244283 1.76821 0
M  V30 3818 C 341.675 -0.366258 3.36915 0
M  V30 3819 C 340.848 0.513701 4.34373 0
M  V30 3820 C 339.907 -0.248716 5.25612 0
M  V30 3821 O 338.933 0.356745 5.68081 0
M  V30 3822 N 340.135 -1.53877 5.59734 0
M  V30 3823 H 342.9 1.31361 2.69378 0
M  V30 3824 H 340.461 0.837541 1.38553 0
M  V30 3825 H 342.453 -0.884297 3.94921 0
M  V30 3826 H 341.023 -1.12832 2.91526 0
M  V30 3827 H 340.243 1.21273 3.75082 0
M  V30 3828 H 341.531 1.11391 4.96457 0
M  V30 3829 H 340.929 -2.05243 5.27154 0
M  V30 3830 H 339.486 -2.00254 6.20275 0
M  V30 3831 N 342.919 -1.39368 0.735821 0
M  V30 3832 C 344.144 -2.05319 0.293052 0
M  V30 3833 C 344.569 -1.55115 -1.064 0
M  V30 3834 O 343.927 -0.695261 -1.67439 0
M  V30 3835 C 343.975 -3.59305 0.305323 0
M  V30 3836 O 343.079 -4.06299 -0.706761 0
M  V30 3837 H 342.42 -0.650529 0.13307 0
M  V30 3838 H 344.95 -1.78386 1.00197 0
M  V30 3839 H 344.96 -4.07724 0.149997 0
M  V30 3840 H 343.635 -3.95207 1.29553 0
M  V30 3841 H 342.212 -3.69292 -0.517504 0
M  V30 3842 N 344.397 -0.483516 -1.5 0
M  V30 3843 C 345.327 0.293829 -2.31644 0
M  V30 3844 C 346.308 0.978864 -1.39112 0
M  V30 3845 O 347.493 0.973644 -1.68029 0
M  V30 3846 C 344.623 1.36897 -3.19181 0
M  V30 3847 C 343.577 0.804833 -4.20365 0
M  V30 3848 C 342.903 1.9792 -4.96721 0
M  V30 3849 C 344.203 -0.192313 -5.21946 0
M  V30 3850 H 345.897 -0.387616 -2.9688 0
M  V30 3851 H 343.443 -0.187856 -1.42769 0
M  V30 3852 H 345.396 1.92037 -3.751 0
M  V30 3853 H 344.12 2.07936 -2.51853 0
M  V30 3854 H 342.779 0.275319 -3.65565 0
M  V30 3855 H 342.427 2.67686 -4.25856 0
M  V30 3856 H 342.127 1.60789 -5.65173 0
M  V30 3857 H 343.651 2.53526 -5.55479 0
M  V30 3858 H 345.065 0.270333 -5.72662 0
M  V30 3859 H 343.462 -0.478543 -5.98189 0
M  V30 3860 H 344.532 -1.11409 -4.71928 0
M  V30 3861 N 345.875 1.56104 -0.216619 0
M  V30 3862 C 347.122 1.98172 0.416416 0
M  V30 3863 C 347.45 1.10413 1.60122 0
M  V30 3864 O 346.705 0.147967 1.9514 0
M  V30 3865 C 347.004 3.45923 0.898464 0
M  V30 3866 C 346.67 4.50559 -0.175288 0
M  V30 3867 C 345.332 4.78897 -0.470271 0
M  V30 3868 C 347.684 5.1334 -0.901728 0
M  V30 3869 C 345.012 5.67299 -1.4963 0
M  V30 3870 C 347.364 6.02853 -1.91705 0
M  V30 3871 C 346.028 6.29537 -2.21901 0
M  V30 3872 H 345.298 0.725164 0.152377 0
M  V30 3873 H 347.945 1.88839 -0.318103 0
M  V30 3874 H 346.25 3.52434 1.71165 0
M  V30 3875 H 347.947 3.75841 1.39803 0
M  V30 3876 H 344.537 4.28551 0.0647806 0
M  V30 3877 H 348.721 4.91521 -0.687072 0
M  V30 3878 H 343.977 5.86239 -1.73592 0
M  V30 3879 H 348.151 6.50552 -2.48505 0
M  V30 3880 H 345.778 6.97835 -3.01548 0
M  V30 3881 N 347.353 -0.0568162 1.57498 0
M  V30 3882 C 348.601 -0.751617 1.87604 0
M  V30 3883 C 348.922 -1.77351 0.81066 0
M  V30 3884 O 348.192 -1.95254 -0.159018 0
M  V30 3885 H 346.772 -0.280583 0.692302 0
M  V30 3886 H 349.434 -0.0293483 1.94878 0
M  V30 3887 H 348.53 -1.25852 2.856 0
M  V30 3888 N 348.832 -1.54138 -0.328536 0
M  V30 3889 C 350.081 -1.71318 -1.06456 0
M  V30 3890 C 350.394 -0.491109 -1.89334 0
M  V30 3891 O 351.6 -0.54416 -2.65991 0
M  V30 3892 C 350.056 -3.03 -1.94214 0
M  V30 3893 C 349.664 -4.32595 -1.16471 0
M  V30 3894 C 351.408 -3.29544 -2.67583 0
M  V30 3895 C 349.315 -5.55341 -2.03347 0
M  V30 3896 H 348.245 -0.638429 -0.401155 0
M  V30 3897 H 350.896 -1.80633 -0.323106 0
M  V30 3898 H 349.278 -2.87579 -2.72239 0
M  V30 3899 H 350.452 -4.58766 -0.432525 0
M  V30 3900 H 348.767 -4.12777 -0.548063 0
M  V30 3901 H 351.364 -4.18444 -3.3288 0
M  V30 3902 H 351.707 -2.47206 -3.34955 0
M  V30 3903 H 352.24 -3.45809 -1.96623 0
M  V30 3904 H 348.979 -6.40268 -1.40491 0
M  V30 3905 H 348.499 -5.33397 -2.74313 0
M  V30 3906 H 350.178 -5.91557 -2.62049 0
M  V30 3907 N 350.31 0.590341 -1.46126 0
M  V30 3908 C 351.559 1.34499 -1.50309 0
M  V30 3909 C 351.872 1.94977 -0.156021 0
M  V30 3910 O 353.078 2.71395 -0.0756037 0
M  V30 3911 C 351.534 2.43723 -2.64815 0
M  V30 3912 C 351.142 1.89582 -4.0591 0
M  V30 3913 C 352.886 3.20579 -2.78262 0
M  V30 3914 C 350.793 2.9639 -5.11769 0
M  V30 3915 H 349.723 0.505593 -0.559368 0
M  V30 3916 H 352.374 0.630848 -1.72315 0
M  V30 3917 H 350.756 3.17902 -2.36124 0
M  V30 3918 H 351.93 1.21997 -4.44357 0
M  V30 3919 H 350.245 1.25418 -3.97063 0
M  V30 3920 H 352.842 4.00276 -3.54519 0
M  V30 3921 H 353.185 3.72684 -1.85505 0
M  V30 3922 H 353.718 2.53505 -3.06562 0
M  V30 3923 H 350.457 2.49181 -6.06291 0
M  V30 3924 H 349.977 3.62487 -4.77873 0
M  V30 3925 H 351.656 3.60474 -5.37278 0
M  V30 3926 N 351.788 1.33704 0.83433 0
M  V30 3927 C 353.199 1.22813 1.4062 0
M  V30 3928 C 353.55 -0.151107 1.95617 0
M  V30 3929 O 352.675 -1.05092 1.89168 0
M  V30 3930 C 353.27 2.22355 2.55624 0
M  V30 3931 C 351.829 2.1529 3.08751 0
M  V30 3932 C 350.976 2.09589 1.8157 0
M  V30 3933 H 353.927 1.45236 0.639702 0
M  V30 3934 H 353.948 1.83391 3.33389 0
M  V30 3935 H 353.46 3.22728 2.15566 0
M  V30 3936 H 351.561 1.18235 3.53343 0
M  V30 3937 H 351.674 3.06038 3.68616 0
M  V30 3938 H 350.038 1.55134 2.02004 0
M  V30 3939 H 350.821 3.11777 1.43701 0
M  V30 3940 N 353.266 -1.05314 1.17247 0
M  V30 3941 C 354.196 -2.1498 0.911362 0
M  V30 3942 C 355.177 -1.69471 -0.146169 0
M  V30 3943 O 356.362 -1.942 0.003812 0
M  V30 3944 C 353.492 -3.4472 0.422528 0
M  V30 3945 C 352.446 -4.03789 1.4191 0
M  V30 3946 C 351.772 -5.28858 0.788274 0
M  V30 3947 C 353.072 -4.41418 2.7919 0
M  V30 3948 H 354.766 -2.3708 1.82848 0
M  V30 3949 H 352.312 -1.13938 0.880569 0
M  V30 3950 H 354.265 -4.20787 0.227289 0
M  V30 3951 H 352.989 -3.22269 -0.530123 0
M  V30 3952 H 351.648 -3.2979 1.60106 0
M  V30 3953 H 351.296 -5.02709 -0.171173 0
M  V30 3954 H 350.996 -5.69338 1.45353 0
M  V30 3955 H 352.52 -6.07612 0.603282 0
M  V30 3956 H 353.934 -5.08524 2.64719 0
M  V30 3957 H 352.331 -4.92913 3.42282 0
M  V30 3958 H 353.401 -3.51819 3.33693 0
M  V30 3959 N 354.744 -0.972509 -1.24016 0
M  V30 3960 C 355.969 -0.654417 -1.96805 0
M  V30 3961 C 356.394 0.770398 -1.716 0
M  V30 3962 O 355.752 1.52361 -0.982647 0
M  V30 3963 C 355.8 -0.941031 -3.48105 0
M  V30 3964 O 354.904 -0.0289472 -4.1239 0
M  V30 3965 H 354.245 -0.24692 -0.616382 0
M  V30 3966 H 356.775 -1.30396 -1.57664 0
M  V30 3967 H 356.785 -0.87452 -3.98517 0
M  V30 3968 H 355.46 -1.97939 -3.65777 0
M  V30 3969 H 354.037 -0.149192 -3.72601 0
M  V30 3970 N 356.222 1.38976 -0.743202 0
M  V30 3971 C 357.172 2.27843 -0.084513 0
M  V30 3972 C 358.156 1.44677 0.704094 0
M  V30 3973 O 359.348 1.67511 0.571755 0
M  V30 3974 C 356.477 3.33466 0.815781 0
M  V30 3975 C 355.563 4.24095 0.0208844 0
M  V30 3976 N 355.954 4.95609 -1.0102 0
M  V30 3977 C 354.252 4.45303 0.249293 0
M  V30 3978 C 354.953 5.62287 -1.49024 0
M  V30 3979 N 353.929 5.37571 -0.807377 0
M  V30 3980 H 357.731 2.80593 -0.87436 0
M  V30 3981 H 355.245 1.51755 -0.578283 0
M  V30 3982 H 357.242 3.96008 1.30321 0
M  V30 3983 H 355.902 2.82276 1.6047 0
M  V30 3984 H 356.913 4.98849 -1.39176 0
M  V30 3985 H 353.59 4.0504 1.01237 0
M  V30 3986 H 354.98 6.29519 -2.34853 0
M  V30 3987 N 357.7 0.491464 1.49741 0
M  V30 3988 C 359.111 0.0413169 1.86654 0
M  V30 3989 C 359.462 -1.36985 1.40462 0
M  V30 3990 O 358.587 -2.01917 0.778354 0
M  V30 3991 C 359.182 0.0682023 3.38731 0
M  V30 3992 C 357.741 -0.32656 3.74981 0
M  V30 3993 C 356.888 0.444888 2.73708 0
M  V30 3994 H 359.839 0.704733 1.42194 0
M  V30 3995 H 359.86 -0.729322 3.73445 0
M  V30 3996 H 359.372 1.09539 3.72321 0
M  V30 3997 H 357.473 -1.35734 3.46997 0
M  V30 3998 H 357.586 -0.013741 4.79098 0
M  V30 3999 H 355.95 -0.104062 2.54487 0
M  V30 4000 H 356.733 1.47197 3.10142 0
M  V30 4001 N 359.178 -1.55987 0.224894 0
M  V30 4002 C 360.455 -1.90232 -0.455083 0
M  V30 4003 C 360.835 -1.14269 -1.77499 0
M  V30 4004 O 360.183 -0.253079 -2.27094 0
M  V30 4005 C 360.393 -3.42993 -0.644758 0
M  V30 4006 C 361.741 -4.13821 -0.950669 0
M  V30 4007 O 362.765 -3.4861 -0.731423 0
M  V30 4008 O 361.624 -5.29128 -1.36695 0
M  V30 4009 H 358.718 -0.79108 -0.241084 0
M  V30 4010 H 361.264 -1.67581 0.267327 0
M  V30 4011 H 360.036 -3.90252 0.28613 0
M  V30 4012 H 359.659 -3.71434 -1.41853 0
M  V30 4013 N 360.656 0.0484629 -1.57525 0
M  V30 4014 C 361.604 1.07359 -2.06341 0
M  V30 4015 C 362.598 1.3865 -0.973269 0
M  V30 4016 O 363.804 1.37783 -1.15827 0
M  V30 4017 H 360.179 0.363662 -0.65822 0
M  V30 4018 H 362.15 0.635916 -2.91545 0
M  V30 4019 C 360.899 2.37198 -2.54229 0
M  V30 4020 H 360.222 2.13977 -3.37719 0
M  V30 4021 H 361.662 3.07319 -2.92115 0
M  V30 4022 C 360.121 3.04805 -1.43511 0
M  V30 4023 O 360.651 3.93848 -0.79034 0
M  V30 4024 N 358.857 2.65811 -1.17444 0
M  V30 4025 H 358.404 1.93488 -1.70059 0
M  V30 4026 H 358.362 3.11366 -0.435737 0
M  V30 4027 N 362.134 1.5431 0.320358 0
M  V30 4028 C 363.097 1.83195 1.3774 0
M  V30 4029 C 364.097 0.703906 1.44575 0
M  V30 4030 O 365.287 0.972214 1.44546 0
M  V30 4031 C 362.419 1.99487 2.76438 0
M  V30 4032 H 363.612 2.77642 1.1338 0
M  V30 4033 H 361.165 1.46076 0.556012 0
M  V30 4034 H 361.9 1.07262 3.06048 0
M  V30 4035 H 361.685 2.81575 2.7287 0
M  V30 4036 H 363.175 2.23271 3.52902 0
M  V30 4037 N 363.613 -0.582584 1.46437 0
M  V30 4038 C 364.862 -1.337 1.5102 0
M  V30 4039 C 365.175 -1.94891 0.166359 0
M  V30 4040 O 366.381 -2.71351 0.0899954 0
M  V30 4041 C 364.837 -2.42315 2.66104 0
M  V30 4042 C 364.445 -1.87427 4.06909 0
M  V30 4043 C 366.189 -3.19099 2.79958 0
M  V30 4044 C 364.096 -2.93672 5.13333 0
M  V30 4045 H 363.026 -0.502619 0.562041 0
M  V30 4046 H 365.677 -0.621701 1.72647 0
M  V30 4047 H 364.059 -3.16645 2.37807 0
M  V30 4048 H 365.233 -1.19639 4.44998 0
M  V30 4049 H 363.548 -1.2331 3.97723 0
M  V30 4050 H 366.145 -3.9839 3.56636 0
M  V30 4051 H 366.488 -3.71695 1.87479 0
M  V30 4052 H 367.021 -2.51875 3.07902 0
M  V30 4053 H 363.76 -2.45962 6.07604 0
M  V30 4054 H 363.28 -3.59948 4.79789 0
M  V30 4055 H 364.959 -3.5762 5.39182 0
M  V30 4056 N 365.091 -1.34144 -0.827227 0
M  V30 4057 C 366.337 -1.26446 -1.58554 0
M  V30 4058 C 366.67 0.1664 -1.93486 0
M  V30 4059 O 365.945 1.1107 -1.59667 0
M  V30 4060 C 366.228 -2.15111 -2.8879 0
M  V30 4061 C 366.081 -3.66712 -2.60465 0
M  V30 4062 C 367.4 -2.03311 -3.90324 0
M  V30 4063 H 364.519 -0.46067 -0.575284 0
M  V30 4064 H 367.161 -1.64356 -0.953269 0
M  V30 4065 H 365.311 -1.8291 -3.42748 0
M  V30 4066 H 366.983 -4.09259 -2.1285 0
M  V30 4067 H 365.226 -3.88014 -1.93978 0
M  V30 4068 H 365.897 -4.24112 -3.53317 0
M  V30 4069 H 368.373 -2.31574 -3.45706 0
M  V30 4070 H 367.249 -2.67582 -4.79261 0
M  V30 4071 H 367.51 -1.00879 -4.30437 0
M  V30 4072 N 366.569 1.04691 -1.17803 0
M  V30 4073 C 367.815 1.78045 -0.970969 0
M  V30 4074 C 368.148 1.87686 0.498751 0
M  V30 4075 O 367.423 1.38035 1.37027 0
M  V30 4076 C 367.706 3.2166 -1.61884 0
M  V30 4077 C 367.559 3.20001 -3.161 0
M  V30 4078 C 368.878 4.1962 -1.3269 0
M  V30 4079 H 365.997 0.64633 -0.354155 0
M  V30 4080 H 368.639 1.22333 -1.45378 0
M  V30 4081 H 366.789 3.69232 -1.20831 0
M  V30 4082 H 368.461 2.80467 -3.66246 0
M  V30 4083 H 366.704 2.58203 -3.48588 0
M  V30 4084 H 367.375 4.21386 -3.56564 0
M  V30 4085 H 369.851 3.80567 -1.68249 0
M  V30 4086 H 368.727 5.18339 -1.80599 0
M  V30 4087 H 368.988 4.414 -0.248622 0
M  V30 4088 N 368.047 0.979072 1.23499 0
M  V30 4089 C 368.995 0.510604 2.26926 0
M  V30 4090 C 369.989 -0.431691 1.63807 0
M  V30 4091 O 371.195 -0.30573 1.77385 0
M  V30 4092 H 367.57 0.146688 0.737554 0
M  V30 4093 H 369.541 1.39466 2.63803 0
M  V30 4094 C 368.29 -0.172658 3.47271 0
M  V30 4095 H 367.613 0.543331 3.96091 0
M  V30 4096 H 369.053 -0.464101 4.21452 0
M  V30 4097 C 367.512 -1.40345 3.06276 0
M  V30 4098 O 368.042 -2.49978 3.14442 0
M  V30 4099 N 366.248 -1.27362 2.61203 0
M  V30 4100 H 365.795 -0.381584 2.54758 0
M  V30 4101 H 365.753 -2.09822 2.34141 0
M  V30 4102 N 369.525 -1.3858 0.750561 0
M  V30 4103 C 370.753 -2.04471 0.316098 0
M  V30 4104 C 371.168 -1.56606 -1.05452 0
M  V30 4105 O 370.525 -0.737784 -1.66922 0
M  V30 4106 C 370.576 -3.60025 0.326275 0
M  V30 4107 O 370.297 -4.06133 1.6428 0
M  V30 4108 C 371.798 -4.43131 -0.122429 0
M  V30 4109 H 369.018 -0.65717 0.135528 0
M  V30 4110 H 371.562 -1.77329 1.01857 0
M  V30 4111 H 369.717 -3.86014 -0.327431 0
M  V30 4112 H 370.131 -5.00547 1.56693 0
M  V30 4113 H 371.605 -5.51963 -0.0641473 0
M  V30 4114 H 372.082 -4.23333 -1.16988 0
M  V30 4115 H 372.688 -4.22323 0.50229 0
M  V30 4116 N 371.003 -0.499398 -1.49478 0
M  V30 4117 C 372.233 0.0424839 -2.06556 0
M  V30 4118 C 372.641 1.31514 -1.36018 0
M  V30 4119 O 371.984 1.78555 -0.431718 0
M  V30 4120 C 372.046 0.368074 -3.57611 0
M  V30 4121 C 371.71 -0.806631 -4.49825 0
M  V30 4122 C 372.707 -1.69667 -4.91436 0
M  V30 4123 C 370.392 -1.00498 -4.92144 0
M  V30 4124 C 372.386 -2.76923 -5.74101 0
M  V30 4125 C 370.073 -2.08072 -5.74586 0
M  V30 4126 C 371.071 -2.96119 -6.15469 0
M  V30 4127 O 370.759 -4.01836 -6.96264 0
M  V30 4128 H 370.491 -0.0165165 -0.675798 0
M  V30 4129 H 373.045 -0.695497 -1.93267 0
M  V30 4130 H 371.275 1.15963 -3.68903 0
M  V30 4131 H 372.964 0.848381 -3.96935 0
M  V30 4132 H 373.73 -1.55524 -4.59388 0
M  V30 4133 H 369.609 -0.329036 -4.59824 0
M  V30 4134 H 373.153 -3.45676 -6.05932 0
M  V30 4135 H 369.05 -2.22211 -6.06047 0
M  V30 4136 H 369.818 -3.9917 -7.14567 0
M  V30 4137 N 372.481 1.55866 -0.233164 0
M  V30 4138 C 373.727 1.98897 0.395959 0
M  V30 4139 C 374.06 1.12091 1.58585 0
M  V30 4140 O 373.335 0.181182 1.93654 0
M  V30 4141 C 373.618 3.50658 0.819224 0
M  V30 4142 C 373.471 4.48233 -0.375109 0
M  V30 4143 C 374.79 4.07135 1.67121 0
M  V30 4144 H 371.909 0.723102 0.142451 0
M  V30 4145 H 374.551 1.87082 -0.331725 0
M  V30 4146 H 372.701 3.60857 1.43925 0
M  V30 4147 H 374.373 4.50031 -1.01341 0
M  V30 4148 H 372.616 4.21624 -1.02058 0
M  V30 4149 H 373.287 5.51988 -0.0358328 0
M  V30 4150 H 375.763 3.99952 1.14795 0
M  V30 4151 H 374.639 5.13615 1.93625 0
M  V30 4152 H 374.9 3.54736 2.63846 0
M  V30 4153 N 373.959 -0.0401083 1.57549 0
M  V30 4154 C 375.187 -0.745196 1.93014 0
M  V30 4155 C 375.602 -1.6948 0.831984 0
M  V30 4156 O 374.959 -1.81482 -0.192463 0
M  V30 4157 C 375.01 -1.51176 3.28372 0
M  V30 4158 O 374.731 -0.600284 4.33968 0
M  V30 4159 C 376.232 -2.315 3.78051 0
M  V30 4160 H 373.452 -0.210088 0.637263 0
M  V30 4161 H 375.996 -0.000924689 2.045 0
M  V30 4162 H 374.151 -2.20801 3.18317 0
M  V30 4163 H 374.565 -1.13669 5.12035 0
M  V30 4164 H 376.039 -2.80697 4.75303 0
M  V30 4165 H 376.516 -3.12436 3.08675 0
M  V30 4166 H 377.122 -1.66971 3.91153 0
M  V30 4167 N 375.437 -1.54477 -0.31217 0
M  V30 4168 C 376.848 -1.64344 -0.885891 0
M  V30 4169 C 377.199 -0.54485 -1.88483 0
M  V30 4170 O 376.324 0.320387 -2.14015 0
M  V30 4171 C 376.919 -2.97908 -1.61357 0
M  V30 4172 C 375.478 -3.09933 -2.13585 0
M  V30 4173 C 374.625 -2.59971 -0.964897 0
M  V30 4174 H 377.576 -1.58448 -0.0894528 0
M  V30 4175 H 377.597 -2.88706 -2.47848 0
M  V30 4176 H 377.109 -3.77845 -0.886277 0
M  V30 4177 H 375.21 -2.34694 -2.89395 0
M  V30 4178 H 375.323 -4.15916 -2.37804 0
M  V30 4179 H 373.687 -2.16147 -1.34731 0
M  V30 4180 H 374.47 -3.42376 -0.251742 0
M  V30 4181 N 376.915 0.57481 -1.46744 0
M  V30 4182 C 378.14 1.36341 -1.56288 0
M  V30 4183 C 378.565 1.86954 -0.207347 0
M  V30 4184 O 377.923 1.62006 0.813871 0
M  V30 4185 C 377.971 2.52147 -2.57787 0
M  V30 4186 O 377.075 3.53834 -2.11838 0
M  V30 4187 H 376.416 0.405713 -0.525636 0
M  V30 4188 H 378.946 0.696453 -1.92382 0
M  V30 4189 H 378.956 2.98958 -2.77648 0
M  V30 4190 H 377.631 2.14663 -3.5622 0
M  V30 4191 H 376.208 3.1345 -2.01999 0
M  V30 4192 N 378.394 1.34581 0.820102 0
M  V30 4193 C 379.326 1.22236 1.93884 0
M  V30 4194 C 380.339 0.148776 1.62119 0
M  V30 4195 O 381.528 0.400877 1.7394 0
M  V30 4196 C 378.628 0.856542 3.27897 0
M  V30 4197 C 377.801 2.02569 3.87666 0
M  V30 4198 C 376.86 1.63782 5.00062 0
M  V30 4199 O 375.886 2.35477 5.18208 0
M  V30 4200 N 377.088 0.553611 5.77854 0
M  V30 4201 H 379.853 2.18615 2.05006 0
M  V30 4202 H 377.414 1.27573 0.99683 0
M  V30 4203 H 379.406 0.578806 4.0054 0
M  V30 4204 H 377.976 -0.0171518 3.12595 0
M  V30 4205 H 377.196 2.468 3.07382 0
M  V30 4206 H 378.484 2.80752 4.24329 0
M  V30 4207 H 377.882 -0.0423528 5.65684 0
M  V30 4208 H 376.439 0.335614 6.50935 0
M  V30 4209 N 379.872 -1.04064 1.18357 0
M  V30 4210 C 381.121 -1.76662 0.973313 0
M  V30 4211 C 381.434 -1.89154 -0.497991 0
M  V30 4212 O 382.64 -2.58606 -0.826762 0
M  V30 4213 C 381.096 -3.17624 1.69242 0
M  V30 4214 C 380.704 -3.13225 3.20303 0
M  V30 4215 C 382.448 -3.946 1.56497 0
M  V30 4216 C 380.355 -4.49046 3.84853 0
M  V30 4217 H 379.285 -0.662214 0.36054 0
M  V30 4218 H 381.936 -1.16553 1.41731 0
M  V30 4219 H 380.318 -3.78129 1.1762 0
M  V30 4220 H 381.492 -2.62172 3.78949 0
M  V30 4221 H 379.807 -2.49749 3.33189 0
M  V30 4222 H 382.404 -4.95042 2.02084 0
M  V30 4223 H 382.747 -4.13074 0.517243 0
M  V30 4224 H 383.28 -3.4067 2.05399 0
M  V30 4225 H 380.019 -4.35777 4.89672 0
M  V30 4226 H 379.539 -5.00203 3.30994 0
M  V30 4227 H 381.218 -5.17961 3.87718 0
M  V30 4228 N 381.35 -0.985608 -1.22978 0
M  V30 4229 C 382.596 -0.65836 -1.91816 0
M  V30 4230 C 382.929 0.806692 -1.76653 0
M  V30 4231 O 382.204 1.58252 -1.13078 0
M  V30 4232 C 382.487 -1.056 -3.44268 0
M  V30 4233 C 382.34 -2.57906 -3.68516 0
M  V30 4234 C 383.659 -0.603781 -4.35939 0
M  V30 4235 H 380.778 -0.24065 -0.696604 0
M  V30 4236 H 383.42 -1.22783 -1.44998 0
M  V30 4237 H 381.57 -0.571445 -3.84274 0
M  V30 4238 H 383.242 -3.13976 -3.3796 0
M  V30 4239 H 381.485 -3.00305 -3.13048 0
M  V30 4240 H 382.156 -2.80779 -4.75255 0
M  V30 4241 H 384.632 -1.01987 -4.03408 0
M  V30 4242 H 383.508 -0.910383 -5.41298 0
M  V30 4243 H 383.769 0.495761 -4.39312 0
M  V30 4244 N 382.828 1.3818 -0.7579 0
M  V30 4245 C 384.239 1.82726 -0.383134 0
M  V30 4246 C 384.59 1.63214 1.08884 0
M  V30 4247 O 383.715 1.13566 1.84205 0
M  V30 4248 C 384.31 3.31728 -0.688631 0
M  V30 4249 C 382.869 3.74606 -0.367091 0
M  V30 4250 C 382.016 2.60896 -0.939599 0
M  V30 4251 H 384.967 1.26847 -0.953699 0
M  V30 4252 H 384.988 3.80487 0.0316492 0
M  V30 4253 H 384.5 3.45898 -1.76001 0
M  V30 4254 H 382.601 3.66013 0.697532 0
M  V30 4255 H 382.714 4.71215 -0.865658 0
M  V30 4256 H 381.078 2.52075 -0.3647 0
M  V30 4257 H 381.861 2.77864 -2.0161 0
M  V30 4258 N 384.306 0.507319 1.49211 0
M  V30 4259 C 385.216 -0.272136 2.33016 0
M  V30 4260 C 386.232 -0.961206 1.45041 0
M  V30 4261 O 387.408 -0.941191 1.78055 0
M  V30 4262 C 384.473 -1.31895 3.20631 0
M  V30 4263 C 383.534 -0.642648 4.24463 0
M  V30 4264 C 382.767 -1.63959 5.07891 0
M  V30 4265 O 382.99 -2.87007 4.92933 0
M  V30 4266 O 381.924 -1.19143 5.8999 0
M  V30 4267 H 385.75 0.413982 3.00865 0
M  V30 4268 H 383.335 0.268556 1.46966 0
M  V30 4269 H 385.217 -1.92446 3.7489 0
M  V30 4270 H 383.892 -1.98788 2.5547 0
M  V30 4271 H 382.799 0.00276252 3.741 0
M  V30 4272 H 384.132 -0.0160534 4.92197 0
M  V30 4273 N 385.784 -1.5574 0.241426 0
M  V30 4274 C 387.03 -1.99846 -0.378555 0
M  V30 4275 C 387.385 -1.12665 -1.55963 0
M  V30 4276 O 386.678 -0.180966 -1.90743 0
M  V30 4277 C 386.872 -3.47308 -0.843317 0
M  V30 4278 C 386.701 -4.48756 0.291178 0
M  V30 4279 C 385.471 -4.9949 0.764077 0
M  V30 4280 C 387.669 -5.02039 1.11631 0
M  V30 4281 N 385.651 -5.84676 1.87156 0
M  V30 4282 C 387.022 -5.84343 2.07226 0
M  V30 4283 C 389.077 -4.84354 1.15349 0
M  V30 4284 C 387.78 -6.50851 3.06245 0
M  V30 4285 C 389.806 -5.51636 2.13195 0
M  V30 4286 C 389.168 -6.33724 3.07528 0
M  V30 4287 H 385.267 -0.774968 -0.104634 0
M  V30 4288 H 387.851 -1.91385 0.357751 0
M  V30 4289 H 386.022 -3.56178 -1.54893 0
M  V30 4290 H 387.754 -3.78299 -1.43779 0
M  V30 4291 H 384.509 -4.72311 0.349175 0
M  V30 4292 H 384.933 -6.31967 2.42789 0
M  V30 4293 H 389.575 -4.20525 0.438057 0
M  V30 4294 H 387.293 -7.1385 3.78739 0
M  V30 4295 H 390.879 -5.39909 2.16771 0
M  V30 4296 H 389.759 -6.84867 3.82003 0
M  V30 4297 N 387.262 0.0317525 -1.57568 0
M  V30 4298 C 388.492 0.733884 -1.93126 0
M  V30 4299 C 388.9 1.69563 -0.839352 0
M  V30 4300 O 388.243 1.82681 0.193175 0
M  V30 4301 C 388.305 1.54798 -3.24465 0
M  V30 4302 C 387.969 0.751304 -4.50782 0
M  V30 4303 C 388.966 0.0527632 -5.19873 0
M  V30 4304 C 386.651 0.706639 -4.97305 0
M  V30 4305 C 388.645 -0.679774 -6.33765 0
M  V30 4306 C 386.332 -0.0296449 -6.11093 0
M  V30 4307 C 387.33 -0.721614 -6.79177 0
M  V30 4308 O 387.018 -1.44595 -7.90789 0
M  V30 4309 H 386.75 0.211459 -0.642076 0
M  V30 4310 H 389.304 -0.00585615 -2.05399 0
M  V30 4311 H 387.534 2.33147 -3.08512 0
M  V30 4312 H 389.223 2.13247 -3.4537 0
M  V30 4313 H 389.989 0.0783188 -4.84937 0
M  V30 4314 H 385.868 1.23474 -4.44157 0
M  V30 4315 H 389.412 -1.22042 -6.86842 0
M  V30 4316 H 385.309 -0.0571331 -6.45475 0
M  V30 4317 H 386.077 -1.35935 -8.07133 0
M  V30 4318 N 388.74 1.54641 0.303973 0
M  V30 4319 C 389.987 1.7378 1.03955 0
M  V30 4320 C 390.315 0.521986 1.87365 0
M  V30 4321 O 389.57 -0.496099 1.89308 0
M  V30 4322 C 389.869 2.97753 1.97681 0
M  V30 4323 C 389.535 4.31671 1.30271 0
M  V30 4324 C 388.197 4.68075 1.11619 0
M  V30 4325 C 390.549 5.147 0.82055 0
M  V30 4326 C 387.877 5.8509 0.434304 0
M  V30 4327 C 390.229 6.32416 0.152395 0
M  V30 4328 C 388.893 6.67484 -0.0461067 0
M  V30 4329 H 388.163 0.635908 0.380398 0
M  V30 4330 H 390.81 1.88896 0.314718 0
M  V30 4331 H 389.115 2.77406 2.76682 0
M  V30 4332 H 390.812 3.09756 2.54661 0
M  V30 4333 H 387.402 4.03041 1.45795 0
M  V30 4334 H 391.586 4.87077 0.952374 0
M  V30 4335 H 386.842 6.10806 0.269495 0
M  V30 4336 H 391.016 6.96023 -0.229126 0
M  V30 4337 H 388.643 7.58011 -0.576494 0
M  V30 4338 N 390.218 -0.567019 1.47046 0
M  V30 4339 C 391.148 -1.68482 1.61667 0
M  V30 4340 C 392.129 -1.6358 0.466418 0
M  V30 4341 O 393.314 -1.81354 0.694574 0
M  V30 4342 C 390.444 -3.07124 1.62148 0
M  V30 4343 C 389.398 -3.26867 2.76301 0
M  V30 4344 C 388.724 -4.66196 2.61849 0
M  V30 4345 C 390.024 -3.13186 4.17986 0
M  V30 4346 H 391.718 -1.56502 2.5524 0
M  V30 4347 H 389.264 -0.751486 1.22836 0
M  V30 4348 H 391.217 -3.8516 1.70968 0
M  V30 4349 H 389.941 -3.2004 0.651287 0
M  V30 4350 H 388.6 -2.51237 2.66975 0
M  V30 4351 H 388.248 -4.75898 1.62879 0
M  V30 4352 H 387.948 -4.80356 3.38425 0
M  V30 4353 H 389.472 -5.46379 2.72584 0
M  V30 4354 H 390.886 -3.81049 4.2834 0
M  V30 4355 H 389.283 -3.3886 4.95272 0
M  V30 4356 H 390.353 -2.10057 4.3704 0
M  V30 4357 N 391.696 -1.35014 -0.812953 0
M  V30 4358 C 393.107 -1.25035 -1.38648 0
M  V30 4359 C 393.458 0.119967 -1.95833 0
M  V30 4360 O 392.583 1.02069 -1.90816 0
M  V30 4361 C 393.178 -2.26394 -2.52054 0
M  V30 4362 C 391.737 -2.20175 -3.05287 0
M  V30 4363 C 390.884 -2.12451 -1.78213 0
M  V30 4364 H 393.835 -1.46235 -0.616516 0
M  V30 4365 H 393.856 -1.88672 -3.30429 0
M  V30 4366 H 393.368 -3.26116 -2.10404 0
M  V30 4367 H 391.469 -1.23841 -3.51417 0
M  V30 4368 H 391.582 -3.11863 -3.63701 0
M  V30 4369 H 389.946 -1.58328 -1.9951 0
M  V30 4370 H 390.729 -3.14024 -1.38723 0
M  V30 4371 N 393.175 1.03435 -1.18907 0
M  V30 4372 C 394.422 1.76743 -0.988334 0
M  V30 4373 C 394.75 1.88447 0.481441 0
M  V30 4374 O 394.005 1.39383 1.37371 0
M  V30 4375 C 394.304 3.19792 -1.59586 0
M  V30 4376 C 393.97 3.28108 -3.09283 0
M  V30 4377 C 392.632 3.30084 -3.5014 0
M  V30 4378 C 394.984 3.27696 -4.05296 0
M  V30 4379 C 392.312 3.29299 -4.85571 0
M  V30 4380 C 394.664 3.28451 -5.4065 0
M  V30 4381 C 393.328 3.28723 -5.80946 0
M  V30 4382 H 392.598 0.64675 -0.361657 0
M  V30 4383 H 395.245 1.21442 -1.48068 0
M  V30 4384 H 393.55 3.78136 -1.02568 0
M  V30 4385 H 395.247 3.75171 -1.41589 0
M  V30 4386 H 391.837 3.27294 -2.76725 0
M  V30 4387 H 396.021 3.25354 -3.74778 0
M  V30 4388 H 391.277 3.2783 -5.16079 0
M  V30 4389 H 395.451 3.27082 -6.14809 0
M  V30 4390 H 393.078 3.27868 -6.85862 0
M  V30 4391 N 394.653 0.992116 1.22453 0
M  V30 4392 C 395.883 0.684949 1.94915 0
M  V30 4393 C 396.291 -0.754292 1.73514 0
M  V30 4394 O 395.634 -1.52056 1.03076 0
M  V30 4395 C 395.696 0.910054 3.47791 0
M  V30 4396 C 395.36 2.33363 3.92926 0
M  V30 4397 C 396.357 3.31308 4.00663 0
M  V30 4398 C 394.042 2.66785 4.25595 0
M  V30 4399 C 396.036 4.6075 4.40441 0
M  V30 4400 C 393.723 3.96446 4.65053 0
M  V30 4401 C 394.721 4.9324 4.72444 0
M  V30 4402 O 394.409 6.20584 5.1101 0
M  V30 4403 H 394.141 0.25258 0.62704 0
M  V30 4404 H 396.695 1.32939 1.56577 0
M  V30 4405 H 394.925 0.208443 3.86138 0
M  V30 4406 H 396.614 0.598257 4.01467 0
M  V30 4407 H 397.38 3.0682 3.75615 0
M  V30 4408 H 393.259 1.92148 4.19047 0
M  V30 4409 H 396.803 5.363 4.46126 0
M  V30 4410 H 392.7 4.20724 4.89552 0
M  V30 4411 H 393.468 6.24509 5.29085 0
M  V30 4412 N 396.131 -1.37776 0.765217 0
M  V30 4413 C 397.094 -2.28686 0.153416 0
M  V30 4414 C 398.094 -1.47727 -0.635081 0
M  V30 4415 O 399.284 -1.68027 -0.459632 0
M  V30 4416 C 396.416 -3.31608 -0.790495 0
M  V30 4417 H 397.609 -2.84297 0.954723 0
M  V30 4418 H 395.162 -1.46932 0.53299 0
M  V30 4419 H 395.897 -2.81109 -1.61705 0
M  V30 4420 H 395.682 -3.9144 -0.227348 0
M  V30 4421 H 397.172 -3.99559 -1.21419 0
M  V30 4422 N 397.609 -0.515225 -1.4894 0
M  V30 4423 C 398.542 0.302518 -2.26186 0
M  V30 4424 C 399.52 0.957895 -1.31389 0
M  V30 4425 O 400.704 0.985198 -1.60705 0
M  V30 4426 C 397.831 1.42719 -3.07163 0
M  V30 4427 C 396.877 0.884736 -4.17223 0
M  V30 4428 S 397.71 -0.235767 -5.34981 0
M  V30 4429 C 398.866 0.891731 -6.19515 0
M  V30 4430 H 399.099 -0.353076 -2.95196 0
M  V30 4431 H 396.632 -0.300753 -1.51443 0
M  V30 4432 H 398.59 2.07152 -3.54398 0
M  V30 4433 H 397.251 2.05445 -2.37595 0
M  V30 4434 H 396.444 1.72801 -4.73451 0
M  V30 4435 H 396.046 0.317362 -3.72651 0
M  V30 4436 H 398.338 1.79377 -6.53322 0
M  V30 4437 H 399.281 0.367751 -7.07144 0
M  V30 4438 H 399.689 1.16548 -5.52338 0
M  V30 4439 N 399.087 1.5561 -0.249682 0
M  V30 4440 C 400.017 2.24477 0.642826 0
M  V30 4441 C 400.998 1.22601 1.17911 0
M  V30 4442 O 402.183 1.5126 1.21795 0
M  V30 4443 C 399.313 2.94638 1.83863 0
M  V30 4444 C 398.267 4.03227 1.435 0
M  V30 4445 C 397.593 4.60828 2.71186 0
M  V30 4446 C 398.893 5.18796 0.604002 0
M  V30 4447 H 400.587 2.99321 0.0685625 0
M  V30 4448 H 398.133 1.43965 0.0315363 0
M  V30 4449 H 400.086 3.41517 2.46868 0
M  V30 4450 H 398.81 2.17287 2.43832 0
M  V30 4451 H 397.469 3.57121 0.828275 0
M  V30 4452 H 397.117 3.80174 3.29358 0
M  V30 4453 H 396.817 5.34132 2.44901 0
M  V30 4454 H 398.341 5.10442 3.35084 0
M  V30 4455 H 399.755 5.61883 1.13842 0
M  V30 4456 H 398.152 5.98506 0.437097 0
M  V30 4457 H 399.222 4.83384 -0.383147 0
M  V30 4458 N 400.565 -0.0233959 1.57583 0
M  V30 4459 C 401.512 -1.02224 2.06927 0
M  V30 4460 C 402.482 -1.35575 0.959617 0
M  V30 4461 O 403.667 -1.45815 1.23055 0
M  V30 4462 C 400.807 -2.31636 2.5581 0
M  V30 4463 C 399.92 -2.04394 3.80588 0
M  V30 4464 C 399.055 -3.27717 4.18061 0
M  V30 4465 C 398.094 -2.96056 5.3574 0
M  V30 4466 N 397.231 -4.11847 5.68618 0
M  V30 4467 H 402.071 -0.594504 2.9201 0
M  V30 4468 H 399.608 -0.281921 1.44373 0
M  V30 4469 H 401.566 -3.07258 2.82221 0
M  V30 4470 H 400.196 -2.72122 1.73636 0
M  V30 4471 H 399.248 -1.19244 3.61227 0
M  V30 4472 H 400.56 -1.77042 4.66323 0
M  V30 4473 H 399.714 -4.11702 4.4563 0
M  V30 4474 H 398.453 -3.58188 3.30988 0
M  V30 4475 H 397.458 -2.10474 5.07918 0
M  V30 4476 H 398.683 -2.66857 6.24471 0
M  V30 4477 H 396.629 -4.42258 4.84504 0
M  V30 4478 H 396.546 -3.87938 6.48876 0
M  V30 4479 H 397.814 -4.96689 6.00766 0
M  V30 4480 N 402.043 -1.548 -0.295768 0
M  V30 4481 C 403.271 -1.78327 -1.04914 0
M  V30 4482 C 403.686 -0.545316 -1.80753 0
M  V30 4483 O 403.043 0.485013 -1.75937 0
M  V30 4484 C 403.094 -2.99418 -2.02561 0
M  V30 4485 O 402.815 -4.18431 -1.29798 0
M  V30 4486 C 404.316 -3.35375 -2.89895 0
M  V30 4487 H 401.536 -0.594618 -0.310918 0
M  V30 4488 H 404.08 -2.01763 -0.333454 0
M  V30 4489 H 402.235 -2.78175 -2.69624 0
M  V30 4490 H 402.649 -4.86736 -1.95419 0
M  V30 4491 H 404.123 -4.23332 -3.54251 0
M  V30 4492 H 404.6 -2.53761 -3.58472 0
M  V30 4493 H 405.206 -3.58796 -2.28355 0
M  V30 4494 N 403.521 0.559213 -1.47345 0
M  V30 4495 C 404.767 1.31843 -1.54095 0
M  V30 4496 C 405.1 1.93149 -0.201726 0
M  V30 4497 O 404.375 1.77759 0.789428 0
M  V30 4498 C 404.658 2.43006 -2.65744 0
M  V30 4499 C 404.511 1.86581 -4.09277 0
M  V30 4500 C 405.83 3.44943 -2.73318 0
M  V30 4501 H 402.949 0.478012 -0.560957 0
M  V30 4502 H 405.591 0.625977 -1.79392 0
M  V30 4503 H 403.741 3.02072 -2.44305 0
M  V30 4504 H 405.413 1.31792 -4.42073 0
M  V30 4505 H 403.656 1.17268 -4.17649 0
M  V30 4506 H 404.327 2.66933 -4.83168 0
M  V30 4507 H 406.803 2.95793 -2.92653 0
M  V30 4508 H 405.679 4.20153 -3.53218 0
M  V30 4509 H 405.94 4.03665 -1.80296 0
M  V30 4510 N 404.999 1.35443 0.805782 0
M  V30 4511 C 406.41 1.25768 1.37983 0
M  V30 4512 C 406.761 -0.10958 1.95894 0
M  V30 4513 O 405.886 -1.01056 1.91355 0
M  V30 4514 C 406.481 2.27727 2.5085 0
M  V30 4515 C 405.04 2.2179 3.04115 0
M  V30 4516 C 404.187 2.13393 1.77084 0
M  V30 4517 H 407.138 1.4656 0.608752 0
M  V30 4518 H 407.159 1.90422 3.29424 0
M  V30 4519 H 406.671 3.27227 2.08671 0
M  V30 4520 H 404.772 1.25703 3.50756 0
M  V30 4521 H 404.885 3.13788 3.62042 0
M  V30 4522 H 403.249 1.59384 1.98668 0
M  V30 4523 H 404.032 3.14755 1.37056 0
M  V30 4524 N 406.477 -1.02803 1.19454 0
M  V30 4525 C 407.702 -1.80378 1.02364 0
M  V30 4526 C 408.127 -1.83282 -0.423007 0
M  V30 4527 O 407.485 -1.25945 -1.30413 0
M  V30 4528 C 407.533 -3.23248 1.59821 0
M  V30 4529 O 406.637 -4.04 0.828105 0
M  V30 4530 H 405.978 -0.556799 0.361761 0
M  V30 4531 H 408.508 -1.29385 1.58495 0
M  V30 4532 H 408.518 -3.73994 1.63073 0
M  V30 4533 H 407.193 -3.2045 2.65113 0
M  V30 4534 H 405.77 -3.62635 0.86891 0
M  V30 4535 N 407.956 -0.998596 -1.21925 0
M  V30 4536 C 408.903 -0.553621 -2.24062 0
M  V30 4537 C 409.873 0.416999 -1.6078 0
M  V30 4538 O 411.058 0.320482 -1.88089 0
M  V30 4539 C 408.198 0.119959 -3.44891 0
M  V30 4540 C 407.311 -0.893077 -4.22668 0
M  V30 4541 C 406.446 -0.192424 -5.30851 0
M  V30 4542 C 405.485 -1.19344 -6.00353 0
M  V30 4543 N 404.622 -0.520707 -7.00166 0
M  V30 4544 H 409.462 -1.4293 -2.61486 0
M  V30 4545 H 406.999 -0.715838 -1.28507 0
M  V30 4546 H 408.957 0.527459 -4.13852 0
M  V30 4547 H 407.587 0.959389 -3.08214 0
M  V30 4548 H 406.639 -1.41886 -3.52948 0
M  V30 4549 H 407.951 -1.65512 -4.70539 0
M  V30 4550 H 407.105 0.271515 -6.06092 0
M  V30 4551 H 405.844 0.602075 -4.83969 0
M  V30 4552 H 404.849 -1.66795 -5.23889 0
M  V30 4553 H 406.074 -1.98891 -6.49322 0
M  V30 4554 H 404.02 0.254252 -6.55507 0
M  V30 4555 H 403.937 -1.2211 -7.46073 0
M  V30 4556 H 405.205 -0.0797596 -7.79459 0
M  V30 4557 N 409.434 1.37368 -0.772513 0
M  V30 4558 C 410.845 1.8231 -0.402493 0
M  V30 4559 C 411.196 1.6436 1.07146 0
M  V30 4560 O 410.321 1.15514 1.82991 0
M  V30 4561 C 410.916 3.30979 -0.723776 0
M  V30 4562 C 409.475 3.74195 -0.406802 0
M  V30 4563 C 408.622 2.59885 -0.967218 0
M  V30 4564 H 411.573 1.25829 -0.967099 0
M  V30 4565 H 411.594 3.80499 -0.00870832 0
M  V30 4566 H 411.106 3.44011 -1.7966 0
M  V30 4567 H 409.207 3.66732 0.658673 0
M  V30 4568 H 409.32 4.7027 -0.915588 0
M  V30 4569 H 407.684 2.51674 -0.391416 0
M  V30 4570 H 408.467 2.7571 -2.04546 0
M  V30 4571 N 410.912 0.523116 1.48665 0
M  V30 4572 C 411.875 -0.232592 2.28017 0
M  V30 4573 C 412.875 -0.874021 1.34972 0
M  V30 4574 O 414.065 -0.735132 1.57929 0
M  V30 4575 C 411.197 -1.33586 3.13636 0
M  V30 4576 H 412.39 0.464008 2.96289 0
M  V30 4577 H 409.943 0.278816 1.53793 0
M  V30 4578 H 410.678 -2.06593 2.4998 0
M  V30 4579 H 410.463 -0.881125 3.82071 0
M  V30 4580 H 411.953 -1.86759 3.73511 0
M  V30 4581 N 412.39 -1.55475 0.257931 0
M  V30 4582 C 413.638 -1.98813 -0.363009 0
M  V30 4583 C 413.959 -1.14757 -1.57657 0
M  V30 4584 O 413.229 -0.232956 -1.9451 0
M  V30 4585 H 411.809 -0.734308 -0.137113 0
M  V30 4586 H 414.471 -1.9156 0.359281 0
M  V30 4587 H 413.567 -3.04941 -0.664634 0
M  V30 4588 N 413.868 0.0150385 -1.57593 0
M  V30 4589 C 414.798 1.01047 -2.10503 0
M  V30 4590 C 415.779 1.36816 -1.01071 0
M  V30 4591 O 416.964 1.45455 -1.28672 0
M  V30 4592 C 414.094 2.30708 -2.59598 0
M  V30 4593 C 413.048 2.09142 -3.73421 0
M  V30 4594 C 412.374 3.44685 -4.08774 0
M  V30 4595 C 413.674 1.46619 -5.01298 0
M  V30 4596 H 415.368 0.569978 -2.93925 0
M  V30 4597 H 412.914 0.272724 -1.41394 0
M  V30 4598 H 414.867 3.00687 -2.95238 0
M  V30 4599 H 413.591 2.76843 -1.73279 0
M  V30 4600 H 412.25 1.41592 -3.38153 0
M  V30 4601 H 411.898 3.88495 -3.195 0
M  V30 4602 H 411.598 3.31077 -4.8545 0
M  V30 4603 H 413.122 4.16004 -4.4696 0
M  V30 4604 H 414.536 2.06535 -5.34805 0
M  V30 4605 H 412.933 1.43544 -5.82679 0
M  V30 4606 H 414.003 0.433611 -4.82957 0
M  V30 4607 N 415.346 1.54954 0.287554 0
M  V30 4608 C 416.592 1.75132 1.02257 0
M  V30 4609 C 416.925 0.542858 1.86458 0
M  V30 4610 O 416.2 -0.459856 1.88986 0
M  V30 4611 C 416.483 3.04812 1.91733 0
M  V30 4612 C 416.336 4.35985 1.10622 0
M  V30 4613 C 417.655 3.30438 2.90687 0
M  V30 4614 H 414.774 0.637194 0.370341 0
M  V30 4615 H 417.416 1.87678 0.296111 0
M  V30 4616 H 415.566 2.94247 2.53675 0
M  V30 4617 H 417.238 4.58487 0.508636 0
M  V30 4618 H 415.481 4.31865 0.409271 0
M  V30 4619 H 416.152 5.23017 1.76513 0
M  V30 4620 H 418.628 3.40701 2.38877 0
M  V30 4621 H 417.504 4.22467 3.50447 0
M  V30 4622 H 417.765 2.49377 3.65053 0
M  V30 4623 N 416.824 -0.551391 1.4764 0
M  V30 4624 C 418.073 -1.30467 1.53822 0
M  V30 4625 C 418.386 -1.94495 0.207661 0
M  V30 4626 O 419.592 -2.71099 0.147533 0
M  V30 4627 C 418.048 -2.36616 2.71184 0
M  V30 4628 C 417.656 -1.78754 4.10793 0
M  V30 4629 C 419.4 -3.13088 2.86663 0
M  V30 4630 C 417.307 -2.82717 5.19447 0
M  V30 4631 H 416.237 -0.490584 0.572576 0
M  V30 4632 H 418.888 -0.58494 1.73927 0
M  V30 4633 H 417.27 -3.11529 2.4447 0
M  V30 4634 H 418.444 -1.10173 4.47435 0
M  V30 4635 H 416.759 -1.14846 4.00249 0
M  V30 4636 H 419.356 -3.90736 3.65007 0
M  V30 4637 H 419.699 -3.67635 1.95321 0
M  V30 4638 H 420.232 -2.45288 3.13175 0
M  V30 4639 H 416.971 -2.33018 6.12685 0
M  V30 4640 H 416.491 -3.4969 4.87316 0
M  V30 4641 H 418.17 -3.46102 5.46646 0
M  V30 4642 N 418.302 -1.35869 -0.798587 0
M  V30 4643 C 419.548 -1.2978 -1.55836 0
M  V30 4644 C 419.881 0.125322 -1.93795 0
M  V30 4645 O 419.156 1.07658 -1.61987 0
M  V30 4646 C 419.439 -2.21188 -2.84162 0
M  V30 4647 C 419.292 -3.72155 -2.52628 0
M  V30 4648 C 420.611 -2.11545 -3.85923 0
M  V30 4649 H 417.73 -0.472769 -0.565383 0
M  V30 4650 H 420.372 -1.66341 -0.918192 0
M  V30 4651 H 418.522 -1.90139 -3.38791 0
M  V30 4652 H 420.194 -4.13682 -2.04121 0
M  V30 4653 H 418.437 -3.92042 -1.85704 0
M  V30 4654 H 419.108 -4.31511 -3.44242 0
M  V30 4655 H 421.584 -2.38855 -3.40716 0
M  V30 4656 H 420.46 -2.77688 -4.73477 0
M  V30 4657 H 420.721 -1.09987 -4.282 0
M  V30 4658 N 419.78 1.02168 -1.19998 0
M  V30 4659 C 420.71 2.12488 -0.96804 0
M  V30 4660 C 421.691 1.69799 0.101185 0
M  V30 4661 O 422.876 1.94121 -0.0552993 0
M  V30 4662 C 420.006 3.43479 -0.513776 0
M  V30 4663 C 418.96 3.99884 -1.52566 0
M  V30 4664 C 418.286 5.26582 -0.928214 0
M  V30 4665 C 419.586 4.33861 -2.90795 0
M  V30 4666 H 421.28 2.32149 -1.89069 0
M  V30 4667 H 418.826 1.11564 -0.910468 0
M  V30 4668 H 420.779 4.20036 -0.338774 0
M  V30 4669 H 419.503 3.23561 0.444493 0
M  V30 4670 H 418.162 3.25429 -1.68794 0
M  V30 4671 H 417.81 5.02986 0.0378289 0
M  V30 4672 H 417.51 5.65284 -1.60397 0
M  V30 4673 H 419.034 6.05799 -0.764167 0
M  V30 4674 H 420.448 5.01327 -2.78109 0
M  V30 4675 H 418.845 4.83664 -3.55231 0
M  V30 4676 H 419.915 3.42848 -3.42904 0
M  V30 4677 N 421.258 1.00505 1.21394 0
M  V30 4678 C 422.188 0.585684 2.26035 0
M  V30 4679 C 423.169 -0.393525 1.65485 0
M  V30 4680 O 424.354 -0.281497 1.92149 0
M  V30 4681 C 421.484 -0.0884283 3.47187 0
M  V30 4682 C 420.438 0.810567 4.20254 0
M  V30 4683 C 419.764 0.00286382 5.347 0
M  V30 4684 C 421.064 2.1132 4.77641 0
M  V30 4685 H 422.758 1.46039 2.61368 0
M  V30 4686 H 420.304 0.703648 1.25638 0
M  V30 4687 H 422.257 -0.393286 4.19561 0
M  V30 4688 H 420.981 -0.997766 3.10986 0
M  V30 4689 H 419.64 1.09925 3.49731 0
M  V30 4690 H 419.288 -0.907765 4.94741 0
M  V30 4691 H 418.988 0.601444 5.84514 0
M  V30 4692 H 420.512 -0.295808 6.09883 0
M  V30 4693 H 421.926 1.87148 5.41893 0
M  V30 4694 H 420.323 2.66164 5.37845 0
M  V30 4695 H 421.393 2.78393 3.9702 0
M  V30 4696 N 422.737 -1.36956 0.779787 0
M  V30 4697 C 423.962 -2.04283 0.358224 0
M  V30 4698 C 424.387 -1.58422 -1.01411 0
M  V30 4699 O 423.745 -0.748179 -1.65142 0
M  V30 4700 C 423.793 -3.58152 0.419479 0
M  V30 4701 O 422.897 -4.08342 -0.577142 0
M  V30 4702 H 422.238 -0.645967 0.153698 0
M  V30 4703 H 424.768 -1.75108 1.05822 0
M  V30 4704 H 424.778 -4.07041 0.279636 0
M  V30 4705 H 423.453 -3.90886 1.42061 0
M  V30 4706 H 422.03 -3.70751 -0.399755 0
M  V30 4707 N 424.215 -0.530993 -1.48385 0
M  V30 4708 C 425.145 0.219985 -2.32461 0
M  V30 4709 C 426.126 0.934111 -1.42156 0
M  V30 4710 O 427.311 0.919694 -1.71042 0
M  V30 4711 C 424.441 1.26674 -3.23375 0
M  V30 4712 C 423.395 0.67069 -4.22712 0
M  V30 4713 C 422.721 1.82017 -5.02766 0
M  V30 4714 C 424.021 -0.358268 -5.2107 0
M  V30 4715 H 425.715 -0.48187 -2.95497 0
M  V30 4716 H 423.261 -0.233182 -1.42099 0
M  V30 4717 H 425.214 1.80006 -3.81019 0
M  V30 4718 H 423.938 1.99818 -2.58341 0
M  V30 4719 H 422.597 0.158878 -3.66256 0
M  V30 4720 H 422.245 2.54002 -4.34157 0
M  V30 4721 H 421.945 1.42727 -5.70003 0
M  V30 4722 H 423.469 2.35725 -5.63264 0
M  V30 4723 H 424.883 0.0880081 -5.73232 0
M  V30 4724 H 423.28 -0.66861 -5.96364 0
M  V30 4725 H 424.35 -1.26367 -4.68145 0
M  V30 4726 N 425.693 1.55336 -0.266172 0
M  V30 4727 C 426.625 2.19544 0.658247 0
M  V30 4728 C 427.638 1.17746 1.12427 0
M  V30 4729 O 428.827 1.44517 1.04772 0
M  V30 4730 C 425.927 2.80032 1.9088 0
M  V30 4731 C 425.1 4.07436 1.59106 0
M  V30 4732 C 424.159 4.52056 2.69317 0
M  V30 4733 O 423.185 5.18023 2.35883 0
M  V30 4734 N 424.387 4.21448 3.99201 0
M  V30 4735 H 427.152 2.99503 0.108754 0
M  V30 4736 H 424.713 1.61667 -0.0869059 0
M  V30 4737 H 426.705 3.06831 2.63888 0
M  V30 4738 H 425.275 2.04119 2.36758 0
M  V30 4739 H 424.495 3.88021 0.695243 0
M  V30 4740 H 425.783 4.90462 1.35367 0
M  V30 4741 H 425.181 3.68528 4.29189 0
M  V30 4742 H 423.738 4.53039 4.68614 0
M  V30 4743 N 427.171 -0.0066808 1.57599 0
M  V30 4744 C 428.101 -0.999296 2.11036 0
M  V30 4745 C 429.082 -1.36278 1.01795 0
M  V30 4746 O 430.267 -1.4477 1.29442 0
M  V30 4747 C 427.397 -2.29328 2.60818 0
M  V30 4748 C 426.351 -2.07159 3.74525 0
M  V30 4749 C 425.677 -3.42512 4.10596 0
M  V30 4750 C 426.977 -1.43959 5.02069 0
M  V30 4751 H 428.671 -0.554382 2.94223 0
M  V30 4752 H 426.217 -0.265221 1.41536 0
M  V30 4753 H 428.17 -2.99117 2.96828 0
M  V30 4754 H 426.894 -2.7592 1.74745 0
M  V30 4755 H 425.553 -1.39797 3.38899 0
M  V30 4756 H 425.201 -3.86795 3.21556 0
M  V30 4757 H 424.901 -3.28498 4.87199 0
M  V30 4758 H 426.425 -4.13628 4.4916 0
M  V30 4759 H 427.839 -2.03696 5.35893 0
M  V30 4760 H 426.236 -1.40452 5.83432 0
M  V30 4761 H 427.306 -0.407992 4.83181 0
M  V30 4762 N 428.649 -1.55105 -0.279332 0
M  V30 4763 C 429.579 -1.90557 -1.34945 0
M  V30 4764 C 430.56 -0.766738 -1.51839 0
M  V30 4765 O 431.745 -1.02434 -1.64988 0
M  V30 4766 C 428.875 -2.17193 -2.71006 0
M  V30 4767 C 427.829 -3.33021 -2.68851 0
M  V30 4768 C 427.155 -3.45123 -4.08405 0
M  V30 4769 C 428.455 -4.69578 -2.28678 0
M  V30 4770 H 430.149 -2.80188 -1.05522 0
M  V30 4771 H 427.695 -1.34811 -0.506173 0
M  V30 4772 H 429.648 -2.40581 -3.45975 0
M  V30 4773 H 428.372 -1.24355 -3.01999 0
M  V30 4774 H 427.031 -3.0959 -1.9634 0
M  V30 4775 H 426.679 -2.49762 -4.3661 0
M  V30 4776 H 426.379 -4.22995 -4.07859 0
M  V30 4777 H 427.903 -3.70796 -4.85121 0
M  V30 4778 H 429.317 -4.92553 -2.93368 0
M  V30 4779 H 427.714 -5.5032 -2.39306 0
M  V30 4780 H 428.784 -4.68828 -1.23807 0
M  V30 4781 N 430.127 0.543554 -1.4793 0
M  V30 4782 C 431.374 1.30008 -1.55255 0
M  V30 4783 C 431.702 1.93245 -0.220612 0
M  V30 4784 O 430.957 1.79141 0.787843 0
M  V30 4785 C 431.256 2.42078 -2.62932 0
M  V30 4786 C 430.922 1.96583 -4.0579 0
M  V30 4787 C 429.584 1.83893 -4.44676 0
M  V30 4788 C 431.936 1.62034 -4.95373 0
M  V30 4789 C 429.264 1.34969 -5.70964 0
M  V30 4790 C 431.616 1.14577 -6.22137 0
M  V30 4791 C 430.28 1.00493 -6.59892 0
M  V30 4792 H 429.55 0.475735 -0.568117 0
M  V30 4793 H 432.197 0.608075 -1.81589 0
M  V30 4794 H 430.502 3.16892 -2.30406 0
M  V30 4795 H 432.199 3.00236 -2.65818 0
M  V30 4796 H 428.789 2.07407 -3.75074 0
M  V30 4797 H 432.973 1.70705 -4.66019 0
M  V30 4798 H 428.229 1.2274 -5.98953 0
M  V30 4799 H 432.403 0.869109 -6.90955 0
M  V30 4800 H 430.03 0.623624 -7.57638 0
M  V30 4801 N 431.605 1.3629 0.791371 0
M  V30 4802 C 432.535 1.33137 1.91825 0
M  V30 4803 C 433.516 0.203168 1.68882 0
M  V30 4804 O 434.701 0.400509 1.90025 0
M  V30 4805 C 431.831 1.11793 3.28816 0
M  V30 4806 C 430.785 2.21417 3.66277 0
M  V30 4807 C 430.111 1.85218 5.01596 0
M  V30 4808 C 431.411 3.63489 3.75064 0
M  V30 4809 H 433.105 2.2743 1.9472 0
M  V30 4810 H 430.651 1.09479 0.935437 0
M  V30 4811 H 432.604 1.08222 4.07266 0
M  V30 4812 H 431.328 0.139501 3.26302 0
M  V30 4813 H 429.987 2.2411 2.90121 0
M  V30 4814 H 429.635 0.859544 4.95602 0
M  V30 4815 H 429.335 2.58611 5.27631 0
M  V30 4816 H 430.859 1.832 5.82469 0
M  V30 4817 H 432.273 3.63034 4.43711 0
M  V30 4818 H 430.67 4.35771 4.12582 0
M  V30 4819 H 431.74 3.98536 2.76219 0
M  V30 4820 N 433.083 -1.0153 1.20538 0
M  V30 4821 C 434.013 -2.11972 0.979295 0
M  V30 4822 C 434.994 -1.6985 -0.0921787 0
M  V30 4823 O 436.179 -1.94089 0.0655932 0
M  V30 4824 C 433.309 -3.43201 0.531984 0
M  V30 4825 C 432.263 -3.9907 1.54685 0
M  V30 4826 C 431.589 -5.26082 0.956127 0
M  V30 4827 C 432.889 -4.32313 2.93092 0
M  V30 4828 H 434.583 -2.31143 1.90298 0
M  V30 4829 H 432.129 -1.11079 0.916372 0
M  V30 4830 H 434.082 -4.1985 0.361044 0
M  V30 4831 H 432.806 -3.23792 -0.427327 0
M  V30 4832 H 431.465 -3.2453 1.70517 0
M  V30 4833 H 431.113 -5.02999 -0.0111538 0
M  V30 4834 H 430.813 -5.64426 1.63393 0
M  V30 4835 H 432.337 -6.05386 0.796284 0
M  V30 4836 H 433.751 -4.99845 2.80763 0
M  V30 4837 H 432.148 -4.81774 3.57791 0
M  V30 4838 H 433.218 -3.41025 3.44717 0
M  V30 4839 N 434.561 -1.01147 -1.20859 0
M  V30 4840 C 435.524 -0.582224 -2.21682 0
M  V30 4841 C 436.524 0.344887 -1.57058 0
M  V30 4842 O 437.714 0.134281 -1.73682 0
M  V30 4843 C 434.846 0.150496 -3.40568 0
M  V30 4844 H 436.039 -1.47408 -2.61172 0
M  V30 4845 H 433.592 -0.800695 -1.34233 0
M  V30 4846 H 434.327 1.0575 -3.06574 0
M  V30 4847 H 434.112 -0.515444 -3.88697 0
M  V30 4848 H 435.602 0.438344 -4.15293 0
M  V30 4849 N 436.039 1.36541 -0.78704 0
M  V30 4850 C 436.949 2.3387 -0.184896 0
M  V30 4851 C 437.965 1.60927 0.661697 0
M  V30 4852 O 439.141 1.92927 0.57804 0
M  V30 4853 C 436.206 3.40122 0.672145 0
M  V30 4854 C 435.267 4.28867 -0.19267 0
M  V30 4855 C 434.5 5.30045 0.623561 0
M  V30 4856 O 434.723 5.39232 1.8597 0
M  V30 4857 O 433.657 6.01895 0.0247068 0
M  V30 4858 H 437.483 2.87126 -0.989562 0
M  V30 4859 H 435.068 1.38969 -0.548455 0
M  V30 4860 H 436.95 4.05093 1.16094 0
M  V30 4861 H 435.625 2.89169 1.45474 0
M  V30 4862 H 434.532 3.66945 -0.728166 0
M  V30 4863 H 435.865 4.83165 -0.938722 0
M  V30 4864 N 437.518 0.538854 1.48102 0
M  V30 4865 C 438.45 -0.256278 2.27763 0
M  V30 4866 C 439.463 -0.89633 1.35904 0
M  V30 4867 O 440.652 -0.773275 1.60881 0
M  V30 4868 C 437.752 -1.37896 3.09577 0
M  V30 4869 C 436.925 -0.839159 4.29275 0
M  V30 4870 C 435.984 -1.84405 4.9283 0
M  V30 4871 O 435.01 -1.39746 5.51779 0
M  V30 4872 N 436.212 -3.17666 4.85869 0
M  V30 4873 H 438.977 0.426968 2.96643 0
M  V30 4874 H 436.538 0.373747 1.57527 0
M  V30 4875 H 438.53 -2.04955 3.48963 0
M  V30 4876 H 437.1 -1.96572 2.4306 0
M  V30 4877 H 436.32 0.00769287 3.94199 0
M  V30 4878 H 437.608 -0.457548 5.06739 0
M  V30 4879 H 437.006 -3.56609 4.39143 0
M  V30 4880 H 435.563 -3.80334 5.29329 0
M  V30 4881 N 438.996 -1.55193 0.274407 0
M  V30 4882 C 440.412 -1.59401 -0.0797543 0
M  V30 4883 C 440.612 -1.29162 -1.54659 0
M  V30 4884 O 439.668 -1.05215 -2.29534 0
M  V30 4885 C 440.981 -2.99257 0.294238 0
M  V30 4886 C 442.529 -3.12072 0.240796 0
M  V30 4887 C 443.004 -4.54194 0.589218 0
M  V30 4888 N 444.495 -4.60033 0.540744 0
M  V30 4889 C 445.23 -5.68027 0.783147 0
M  V30 4890 N 444.726 -6.8417 1.09013 0
M  V30 4891 N 446.519 -5.57572 0.711993 0
M  V30 4892 H 438.67 -1.73113 1.23067 0
M  V30 4893 H 440.933 -0.807197 0.497129 0
M  V30 4894 H 440.639 -3.26217 1.31435 0
M  V30 4895 H 440.513 -3.75427 -0.365281 0
M  V30 4896 H 442.9 -2.84877 -0.770024 0
M  V30 4897 H 442.981 -2.38117 0.934563 0
M  V30 4898 H 442.625 -4.82115 1.59772 0
M  V30 4899 H 442.555 -5.26448 -0.126331 0
M  V30 4900 H 445.046 -3.76599 0.313327 0
M  V30 4901 H 445.359 -7.6243 1.26178 0
M  V30 4902 H 443.704 -6.85787 1.12789 0
M  V30 4903 H 446.895 -4.65714 0.472014 0
M  V30 4904 H 447.068 -6.41659 0.90429 0
M  V30 4905 N 440.474 -0.00167713 -1.576 0
M  V30 4906 C 441.699 0.69739 -1.95323 0
M  V30 4907 C 442.124 1.6642 -0.876706 0
M  V30 4908 O 441.482 1.80548 0.165007 0
M  V30 4909 C 441.53 1.40403 -3.32144 0
M  V30 4910 O 440.634 2.5185 -3.26566 0
M  V30 4911 H 439.975 0.185373 -0.637599 0
M  V30 4912 H 442.505 -0.0553665 -2.04525 0
M  V30 4913 H 442.515 1.76707 -3.67748 0
M  V30 4914 H 441.19 0.695167 -4.10049 0
M  V30 4915 H 439.767 2.17861 -3.0264 0
M  V30 4916 N 441.952 1.55251 0.271103 0
M  V30 4917 C 442.882 1.9127 1.33933 0
M  V30 4918 C 443.863 0.77478 1.5143 0
M  V30 4919 O 445.048 1.03307 1.64442 0
M  V30 4920 C 442.178 2.18627 2.69851 0
M  V30 4921 C 441.132 3.34442 2.67081 0
M  V30 4922 C 440.458 3.47284 4.06569 0
M  V30 4923 C 441.758 4.70784 2.26185 0
M  V30 4924 H 443.452 2.80744 1.04035 0
M  V30 4925 H 440.998 1.35077 0.499017 0
M  V30 4926 H 442.951 2.42413 3.44694 0
M  V30 4927 H 441.675 1.25955 3.01335 0
M  V30 4928 H 440.334 3.10627 1.94695 0
M  V30 4929 H 439.982 2.52074 4.35279 0
M  V30 4930 H 439.682 4.25152 4.0561 0
M  V30 4931 H 441.206 3.73363 4.83148 0
M  V30 4932 H 442.62 4.94102 2.90751 0
M  V30 4933 H 441.017 5.51582 2.36384 0
M  V30 4934 H 442.087 4.69478 1.21319 0
M  V30 4935 N 443.43 -0.535701 1.48216 0
M  V30 4936 C 444.658 -1.31671 1.59594 0
M  V30 4937 C 445.073 -1.87083 0.254056 0
M  V30 4938 O 444.43 -1.66112 -0.755854 0
M  V30 4939 C 444.481 -2.47158 2.63809 0
M  V30 4940 O 444.202 -1.94032 3.92789 0
M  V30 4941 C 445.703 -3.39062 2.85573 0
M  V30 4942 H 442.923 -0.400623 0.538277 0
M  V30 4943 H 445.467 -0.646827 1.94001 0
M  V30 4944 H 443.622 -3.10043 2.32276 0
M  V30 4945 H 444.036 -2.69585 4.49916 0
M  V30 4946 H 445.51 -4.16459 3.62306 0
M  V30 4947 H 445.987 -3.93941 1.94184 0
M  V30 4948 H 446.593 -2.81975 3.18387 0
M  V30 4949 N 444.908 -1.36708 -0.784132 0
M  V30 4950 C 446.136 -1.34398 -1.57305 0
M  V30 4951 C 446.551 0.0735577 -1.88657 0
M  V30 4952 O 445.908 1.03193 -1.50524 0
M  V30 4953 C 445.959 -2.17053 -2.89085 0
M  V30 4954 O 445.68 -3.53281 -2.59083 0
M  V30 4955 C 447.181 -2.22583 -3.83369 0
M  V30 4956 H 444.401 -0.460819 -0.487736 0
M  V30 4957 H 446.945 -1.79879 -0.972819 0
M  V30 4958 H 445.1 -1.75113 -3.45564 0
M  V30 4959 H 445.514 -3.9647 -3.43383 0
M  V30 4960 H 446.988 -2.84763 -4.72878 0
M  V30 4961 H 447.465 -1.23075 -4.21603 0
M  V30 4962 H 448.071 -2.64781 -3.32823 0
M  V30 4963 N 446.386 1.0089 -1.21074 0
M  V30 4964 C 447.635 1.74019 -1.01981 0
M  V30 4965 C 447.948 1.90408 0.447665 0
M  V30 4966 O 449.154 2.60707 0.757906 0
M  V30 4967 C 447.61 3.13026 -1.77603 0
M  V30 4968 C 447.218 3.04623 -3.28495 0
M  V30 4969 C 448.962 3.90312 -1.66904 0
M  V30 4970 C 446.869 4.38685 -3.96623 0
M  V30 4971 H 445.799 0.652422 -0.377971 0
M  V30 4972 H 448.45 1.12755 -1.44771 0
M  V30 4973 H 446.832 3.74878 -1.27604 0
M  V30 4974 H 448.006 2.52032 -3.85767 0
M  V30 4975 H 446.321 2.40827 -3.39693 0
M  V30 4976 H 448.918 4.8951 -2.15138 0
M  V30 4977 H 449.261 4.11558 -0.62658 0
M  V30 4978 H 449.794 3.35104 -2.14359 0
M  V30 4979 H 446.533 4.22641 -5.01054 0
M  V30 4980 H 446.053 4.91252 -3.4414 0
M  V30 4981 H 447.732 5.075 -4.01314 0
M  V30 4982 N 447.864 1.01787 1.20321 0
M  V30 4983 C 449.113 0.703249 1.89043 0
M  V30 4984 C 449.426 -0.770445 1.79787 0
M  V30 4985 O 450.632 -1.19767 2.43656 0
M  V30 4986 C 449.088 1.20749 3.3904 0
M  V30 4987 C 448.696 2.70817 3.56878 0
M  V30 4988 C 450.44 0.968352 4.13308 0
M  V30 4989 C 448.347 3.14716 5.00708 0
M  V30 4990 H 447.277 0.259354 0.707991 0
M  V30 4991 H 449.928 1.23072 1.36108 0
M  V30 4992 H 448.31 0.607989 3.91305 0
M  V30 4993 H 449.484 3.36327 3.14993 0
M  V30 4994 H 447.799 2.92888 2.95983 0
M  V30 4995 H 450.396 1.27173 5.19356 0
M  V30 4996 H 450.739 -0.095149 4.16191 0
M  V30 4997 H 451.272 1.53129 3.67146 0
M  V30 4998 H 448.011 4.20347 5.02979 0
M  V30 4999 H 447.531 2.53927 5.43398 0
M  V30 5000 H 449.21 3.07426 5.69296 0
M  V30 5001 N 449.342 -1.36122 0.79427 0
M  V30 5002 C 450.274 -2.28683 0.153903 0
M  V30 5003 C 451.287 -1.49707 -0.639669 0
M  V30 5004 O 452.476 -1.7209 -0.474054 0
M  V30 5005 C 449.576 -3.29202 -0.804921 0
M  V30 5006 C 448.749 -4.37358 -0.060366 0
M  V30 5007 C 447.808 -5.17811 -0.935849 0
M  V30 5008 O 446.834 -5.67853 -0.391309 0
M  V30 5009 N 448.036 -5.34721 -2.25951 0
M  V30 5010 H 450.801 -2.84278 0.949008 0
M  V30 5011 H 448.362 -1.4834 0.648611 0
M  V30 5012 H 450.354 -3.79914 -1.39455 0
M  V30 5013 H 448.924 -2.74212 -1.50088 0
M  V30 5014 H 448.144 -3.87746 0.710382 0
M  V30 5015 H 449.432 -5.06777 0.45324 0
M  V30 5016 H 448.83 -4.95687 -2.72601 0
M  V30 5017 H 447.387 -5.88657 -2.79867 0
M  V30 5018 N 450.82 -0.546701 -1.47814 0
M  V30 5019 C 452.067 -0.0187407 -2.02491 0
M  V30 5020 C 452.395 1.32685 -1.42215 0
M  V30 5021 O 451.65 1.87413 -0.563454 0
M  V30 5022 C 451.949 0.134869 -3.57145 0
M  V30 5023 C 451.615 -1.13849 -4.3629 0
M  V30 5024 C 450.277 -1.48743 -4.57634 0
M  V30 5025 C 452.629 -1.98277 -4.82012 0
M  V30 5026 C 449.957 -2.67932 -5.21948 0
M  V30 5027 C 452.309 -3.16659 -5.4764 0
M  V30 5028 C 450.973 -3.51879 -5.67219 0
M  V30 5029 H 450.243 -0.0068577 -0.740968 0
M  V30 5030 H 452.89 -0.716097 -1.77607 0
M  V30 5031 H 451.195 0.915118 -3.80963 0
M  V30 5032 H 452.892 0.558556 -3.97091 0
M  V30 5033 H 449.482 -0.856767 -4.19949 0
M  V30 5034 H 453.666 -1.72628 -4.6531 0
M  V30 5035 H 448.922 -2.95401 -5.35302 0
M  V30 5036 H 453.096 -3.82374 -5.82033 0
M  V30 5037 H 450.723 -4.44331 -6.16825 0
M  V30 5038 N 452.299 1.55045 -0.282633 0
M  V30 5039 C 453.246 2.22822 0.601566 0
M  V30 5040 C 454.216 1.20431 1.14392 0
M  V30 5041 O 455.401 1.48996 1.19184 0
M  V30 5042 C 452.541 2.95873 1.77632 0
M  V30 5043 C 451.654 4.12999 1.26711 0
M  V30 5044 C 450.789 4.73676 2.40426 0
M  V30 5045 C 449.828 5.82981 1.86545 0
M  V30 5046 N 448.965 6.3769 2.93762 0
M  V30 5047 H 453.805 2.97995 0.0169528 0
M  V30 5048 H 451.342 1.471 -0.00339964 0
M  V30 5049 H 453.3 3.36447 2.46697 0
M  V30 5050 H 451.93 2.2311 2.33285 0
M  V30 5051 H 450.982 3.77494 0.469314 0
M  V30 5052 H 452.294 4.91803 0.832518 0
M  V30 5053 H 451.448 5.17008 3.17471 0
M  V30 5054 H 450.187 3.94164 2.87203 0
M  V30 5055 H 449.192 5.39092 1.07983 0
M  V30 5056 H 450.417 6.64366 1.40694 0
M  V30 5057 H 448.363 5.61069 3.39908 0
M  V30 5058 H 448.28 7.11788 2.54744 0
M  V30 5059 H 449.548 6.8568 3.7076 0
M  V30 5060 N 453.777 0.010035 1.57597 0
M  V30 5061 C 454.71 -1.01234 2.04516 0
M  V30 5062 C 455.688 -1.32886 0.937024 0
M  V30 5063 O 456.872 -1.44879 1.20592 0
M  V30 5064 C 453.999 -2.33738 2.45121 0
M  V30 5065 C 453.045 -2.17679 3.66767 0
M  V30 5066 S 453.878 -1.49343 5.14254 0
M  V30 5067 C 455.034 -2.83256 5.58137 0
M  V30 5068 H 455.267 -0.612866 2.90914 0
M  V30 5069 H 452.8 -0.201124 1.53084 0
M  V30 5070 H 454.758 -3.09922 2.69182 0
M  V30 5071 H 453.419 -2.70823 1.59103 0
M  V30 5072 H 452.612 -3.1559 3.92962 0
M  V30 5073 H 452.214 -1.4964 3.42759 0
M  V30 5074 H 454.506 -3.79538 5.6121 0
M  V30 5075 H 455.449 -2.61749 6.57946 0
M  V30 5076 H 455.857 -2.87627 4.85727 0
M  V30 5077 N 455.255 -1.55392 -0.262866 0
M  V30 5078 C 456.504 -1.75679 -0.990943 0
M  V30 5079 C 456.817 -0.57097 -1.87081 0
M  V30 5080 O 458.023 -0.656486 -2.63444 0
M  V30 5081 C 456.479 -3.10964 -1.81188 0
M  V30 5082 C 456.087 -4.37146 -0.980188 0
M  V30 5083 C 457.831 -3.40597 -2.53365 0
M  V30 5084 C 455.738 -5.63466 -1.7961 0
M  V30 5085 H 454.668 -0.654868 -0.373716 0
M  V30 5086 H 457.319 -1.81841 -0.246203 0
M  V30 5087 H 455.701 -2.98867 -2.59797 0
M  V30 5088 H 456.875 -4.60187 -0.237558 0
M  V30 5089 H 455.19 -4.14731 -0.372497 0
M  V30 5090 H 457.787 -4.32186 -3.14833 0
M  V30 5091 H 458.13 -2.6119 -3.24169 0
M  V30 5092 H 458.663 -3.53838 -1.81779 0
M  V30 5093 H 455.402 -6.4565 -1.13209 0
M  V30 5094 H 454.922 -5.44552 -2.51443 0
M  V30 5095 H 456.601 -6.02139 -2.36723 0
M  V30 5096 N 456.733 0.527833 -1.48498 0
M  V30 5097 C 457.98 1.28354 -1.56625 0
M  V30 5098 C 458.308 1.93 -0.241096 0
M  V30 5099 O 457.563 1.79967 0.768798 0
M  V30 5100 C 457.862 2.39275 -2.65485 0
M  V30 5101 C 457.528 1.92268 -4.07853 0
M  V30 5102 C 456.19 1.79166 -4.46602 0
M  V30 5103 C 458.542 1.56771 -4.97064 0
M  V30 5104 C 455.87 1.28905 -5.72364 0
M  V30 5105 C 458.222 1.07972 -6.23318 0
M  V30 5106 C 456.886 0.934887 -6.60921 0
M  V30 5107 H 456.156 0.469682 -0.573131 0
M  V30 5108 H 458.803 0.588781 -1.82224 0
M  V30 5109 H 457.108 3.1443 -2.33754 0
M  V30 5110 H 458.805 2.974 -2.68988 0
M  V30 5111 H 455.395 2.03417 -3.77252 0
M  V30 5112 H 459.579 1.65753 -4.67803 0
M  V30 5113 H 454.835 1.16381 -6.00221 0
M  V30 5114 H 459.009 0.795775 -6.91838 0
M  V30 5115 H 456.636 0.543231 -7.58257 0
M  V30 5116 N 458.211 1.37122 0.776871 0
M  V30 5117 C 459.459 1.31787 1.53221 0
M  V30 5118 C 459.78 -0.0987589 1.9475 0
M  V30 5119 O 459.05 -1.0417 1.65908 0
M  V30 5120 H 457.63 0.484839 0.568278 0
M  V30 5121 H 460.292 1.71556 0.924917 0
M  V30 5122 H 459.388 1.95355 2.43398 0
M  V30 5123 N 459.689 -1.00246 1.21608 0
M  V30 5124 C 460.652 -2.07233 0.979133 0
M  V30 5125 C 461.652 -1.6072 -0.0508219 0
M  V30 5126 O 462.842 -1.73196 0.186712 0
M  V30 5127 C 459.974 -3.37546 0.477016 0
M  V30 5128 H 461.167 -2.29687 1.92831 0
M  V30 5129 H 458.72 -1.17261 1.03342 0
M  V30 5130 H 459.455 -3.20773 -0.476966 0
M  V30 5131 H 459.24 -3.72638 1.21997 0
M  V30 5132 H 460.73 -4.16285 0.331181 0
M  V30 5133 N 461.167 -1.02423 -1.1978 0
M  V30 5134 C 462.583 -0.740459 -1.41384 0
M  V30 5135 C 462.783 0.676827 -1.89793 0
M  V30 5136 O 461.839 1.4435 -2.0717 0
M  V30 5137 C 463.152 -1.77264 -2.42895 0
M  V30 5138 C 464.7 -1.79165 -2.56649 0
M  V30 5139 C 465.175 -2.8133 -3.6141 0
M  V30 5140 N 466.666 -2.80118 -3.68901 0
M  V30 5141 C 467.401 -3.55824 -4.49641 0
M  V30 5142 N 466.897 -4.41231 -5.34123 0
M  V30 5143 N 468.69 -3.44387 -4.44246 0
M  V30 5144 H 460.841 -1.9391 -0.866764 0
M  V30 5145 H 463.104 -0.838074 -0.443098 0
M  V30 5146 H 462.81 -2.7884 -2.14339 0
M  V30 5147 H 462.684 -1.59108 -3.42001 0
M  V30 5148 H 465.071 -0.782702 -2.84531 0
M  V30 5149 H 465.152 -2.01396 -1.57713 0
M  V30 5150 H 464.796 -3.82394 -3.34271 0
M  V30 5151 H 464.726 -2.56359 -4.59986 0
M  V30 5152 H 467.217 -2.1817 -3.08562 0
M  V30 5153 H 467.53 -4.95747 -5.92836 0
M  V30 5154 H 465.875 -4.45306 -5.33599 0
M  V30 5155 H 469.066 -2.7708 -3.77285 0
M  V30 5156 H 469.239 -4.0364 -5.06931 0
M  V30 5157 N 462.645 1.35699 -0.801477 0
M  V30 5158 C 463.922 1.9324 -0.302937 0
M  V30 5159 C 464.302 1.73209 1.20672 0
M  V30 5160 O 463.65 1.09809 2.00385 0
M  V30 5161 C 463.86 3.41728 -0.708747 0
M  V30 5162 C 465.208 4.18868 -0.695328 0
M  V30 5163 O 466.232 3.5022 -0.649971 0
M  V30 5164 O 465.091 5.41342 -0.749081 0
M  V30 5165 H 462.185 0.82331 -0.0780367 0
M  V30 5166 H 464.731 1.44806 -0.884832 0
M  V30 5167 H 463.503 3.50015 -1.74944 0
M  V30 5168 H 463.126 3.97471 -0.101384 0
M  V30 5169 N 464.123 0.554532 1.47522 0
M  V30 5170 C 465.353 0.0342074 2.06572 0
M  V30 5171 C 465.761 -1.26375 1.40805 0
M  V30 5172 O 465.104 -1.7683 0.49769 0
M  V30 5173 C 465.166 -0.235096 3.5873 0
M  V30 5174 C 464.83 0.973024 4.46521 0
M  V30 5175 C 465.827 1.8779 4.848 0
M  V30 5176 C 463.512 1.18694 4.88075 0
M  V30 5177 C 465.506 2.98039 5.63428 0
M  V30 5178 C 463.193 2.29254 5.66468 0
M  V30 5179 C 464.191 3.18757 6.04055 0
M  V30 5180 O 463.879 4.27401 6.8087 0
M  V30 5181 H 463.611 0.041587 0.67472 0
M  V30 5182 H 466.165 0.766748 1.90552 0
M  V30 5183 H 464.395 -1.02191 3.72953 0
M  V30 5184 H 466.084 -0.700477 3.9981 0
M  V30 5185 H 466.85 1.72467 4.53299 0
M  V30 5186 H 462.729 0.49947 4.58286 0
M  V30 5187 H 466.273 3.67926 5.92685 0
M  V30 5188 H 462.17 2.4455 5.97382 0
M  V30 5189 H 462.938 4.25415 6.9926 0
M  V30 5190 N 465.601 -1.54893 0.290851 0
M  V30 5191 C 466.826 -2.04804 -0.32712 0
M  V30 5192 C 467.251 -1.16721 -1.47506 0
M  V30 5193 O 466.609 -0.169107 -1.8051 0
M  V30 5194 C 466.657 -3.52268 -0.770689 0
M  V30 5195 O 465.761 -3.67236 -1.87647 0
M  V30 5196 H 465.102 -0.660789 -0.0652227 0
M  V30 5197 H 467.632 -2.00036 0.429739 0
M  V30 5198 H 467.642 -3.9393 -1.06223 0
M  V30 5199 H 466.317 -4.15843 0.069096 0
M  V30 5200 H 464.894 -3.37479 -1.58626 0
M  V30 5201 N 467.08 -0.0183926 -1.57589 0
M  V30 5202 C 468.326 0.663543 -1.91638 0
M  V30 5203 C 468.659 1.72392 -0.894134 0
M  V30 5204 O 467.934 1.94316 0.0846449 0
M  V30 5205 C 468.217 1.28984 -3.36207 0
M  V30 5206 C 468.07 0.239761 -4.49161 0
M  V30 5207 C 469.389 2.2109 -3.80536 0
M  V30 5208 H 466.508 0.239746 -0.696915 0
M  V30 5209 H 469.15 -0.073456 -1.89858 0
M  V30 5210 H 467.3 1.91799 -3.37854 0
M  V30 5211 H 468.972 -0.390119 -4.59647 0
M  V30 5212 H 467.215 -0.435972 -4.31604 0
M  V30 5213 H 467.886 0.717383 -5.47319 0
M  V30 5214 H 470.362 1.68273 -3.80557 0
M  V30 5215 H 469.238 2.61869 -4.82406 0
M  V30 5216 H 469.499 3.09764 -3.15434 0
M  V30 5217 N 468.558 1.5553 0.254621 0
M  V30 5218 C 469.969 1.67518 0.824286 0
M  V30 5219 C 470.32 0.614429 1.86331 0
M  V30 5220 O 469.445 -0.240736 2.15057 0
M  V30 5221 C 470.04 3.03692 1.50189 0
M  V30 5222 C 468.599 3.17646 2.01935 0
M  V30 5223 C 467.746 2.63373 0.867746 0
M  V30 5224 H 470.697 1.58671 0.0305843 0
M  V30 5225 H 470.718 2.97706 2.36962 0
M  V30 5226 H 470.23 3.80874 0.745431 0
M  V30 5227 H 468.331 2.45273 2.80485 0
M  V30 5228 H 468.444 4.24455 2.22204 0
M  V30 5229 H 466.808 2.20999 1.26616 0
M  V30 5230 H 467.591 3.43074 0.124498 0
M  V30 5231 N 470.036 -0.519951 1.48776 0
M  V30 5232 C 471.285 -1.27175 1.56555 0
M  V30 5233 C 471.598 -1.9401 0.248869 0
M  V30 5234 O 472.804 -2.70725 0.205004 0
M  V30 5235 C 471.26 -2.30811 2.76142 0
M  V30 5236 C 470.868 -1.7 4.14493 0
M  V30 5237 C 472.612 -3.06937 2.9324 0
M  V30 5238 C 470.519 -2.71635 5.25327 0
M  V30 5239 H 469.449 -0.478329 0.582853 0
M  V30 5240 H 472.1 -0.547916 1.75129 0
M  V30 5241 H 470.482 -3.06274 2.51023 0
M  V30 5242 H 471.656 -1.00658 4.49672 0
M  V30 5243 H 469.971 -1.06331 4.02595 0
M  V30 5244 H 472.568 -3.82905 3.73213 0
M  V30 5245 H 472.911 -3.63409 2.03075 0
M  V30 5246 H 473.444 -2.38589 3.18308 0
M  V30 5247 H 470.183 -2.1997 6.1749 0
M  V30 5248 H 469.703 -3.39275 4.94624 0
M  V30 5249 H 471.382 -3.34429 5.53865 0
M  V30 5250 N 471.514 -1.37532 -0.769588 0
M  V30 5251 C 472.763 -1.32183 -1.5235 0
M  V30 5252 C 473.076 0.0906555 -1.9539 0
M  V30 5253 O 474.282 0.266628 -2.70188 0
M  V30 5254 C 472.738 -2.32029 -2.75119 0
M  V30 5255 C 472.346 -3.78816 -2.3917 0
M  V30 5256 C 474.09 -2.35694 -3.53056 0
M  V30 5257 C 471.997 -4.70388 -3.58453 0
M  V30 5258 H 470.927 -0.491275 -0.571984 0
M  V30 5259 H 473.578 -1.63004 -0.842739 0
M  V30 5260 H 471.96 -1.94229 -3.45096 0
M  V30 5261 H 473.134 -4.25466 -1.76962 0
M  V30 5262 H 471.449 -3.78117 -1.74402 0
M  V30 5263 H 474.046 -3.01312 -4.41718 0
M  V30 5264 H 474.389 -1.37117 -3.93071 0
M  V30 5265 H 474.922 -2.72212 -2.90078 0
M  V30 5266 H 471.661 -5.70102 -3.23518 0
M  V30 5267 H 471.181 -4.28442 -4.19758 0
M  V30 5268 H 472.86 -4.87628 -4.25239 0
M  V30 5269 N 472.992 0.995999 -1.22138 0
M  V30 5270 C 474.238 1.7386 -1.05567 0
M  V30 5271 C 474.593 1.8808 0.405418 0
M  V30 5272 O 473.886 1.41062 1.29661 0
M  V30 5273 C 474.08 3.14553 -1.6968 0
M  V30 5274 C 473.909 3.14053 -3.21871 0
M  V30 5275 C 472.679 3.20121 -3.90961 0
M  V30 5276 C 474.877 2.98451 -4.18845 0
M  V30 5277 N 472.859 3.09342 -5.30265 0
M  V30 5278 C 474.23 2.95667 -5.4496 0
M  V30 5279 C 476.285 2.8282 -4.09777 0
M  V30 5280 C 474.988 2.78852 -6.63049 0
M  V30 5281 C 477.014 2.67364 -5.27513 0
M  V30 5282 C 476.376 2.65264 -6.52544 0
M  V30 5283 H 472.475 0.645989 -0.440706 0
M  V30 5284 H 475.059 1.1831 -1.54631 0
M  V30 5285 H 473.23 3.68353 -1.2317 0
M  V30 5286 H 474.962 3.77358 -1.4623 0
M  V30 5287 H 471.717 3.27679 -3.4194 0
M  V30 5288 H 472.141 3.0727 -6.03253 0
M  V30 5289 H 476.783 2.83243 -3.139 0
M  V30 5290 H 474.501 2.77175 -7.59078 0
M  V30 5291 H 478.087 2.56256 -5.22326 0
M  V30 5292 H 476.967 2.5345 -7.42114 0
M  V30 5293 N 474.47 1.03057 1.19235 0
M  V30 5294 C 475.717 0.728019 1.88961 0
M  V30 5295 C 476.045 -0.743515 1.79728 0
M  V30 5296 O 475.3 -1.55729 1.1852 0
M  V30 5297 C 475.599 1.1268 3.39172 0
M  V30 5298 C 475.265 2.5969 3.68608 0
M  V30 5299 C 473.927 2.99854 3.76352 0
M  V30 5300 C 476.279 3.54793 3.81801 0
M  V30 5301 C 473.607 4.34031 3.94758 0
M  V30 5302 C 475.959 4.88675 4.0172 0
M  V30 5303 C 474.623 5.28526 4.07697 0
M  V30 5304 H 473.893 0.266401 0.691456 0
M  V30 5305 H 476.54 1.29373 1.41191 0
M  V30 5306 H 474.845 0.479722 3.88852 0
M  V30 5307 H 476.542 0.870203 3.91444 0
M  V30 5308 H 473.132 2.27575 3.63191 0
M  V30 5309 H 477.316 3.24914 3.7516 0
M  V30 5310 H 472.572 4.6444 3.97625 0
M  V30 5311 H 476.746 5.6228 4.1087 0
M  V30 5312 H 474.373 6.32506 4.21712 0
M  V30 5313 N 475.948 -1.35272 0.808662 0
M  V30 5314 C 476.881 -2.27595 0.165994 0
M  V30 5315 C 477.859 -1.48189 -0.669241 0
M  V30 5316 O 479.043 -1.77444 -0.636073 0
M  V30 5317 C 476.17 -3.29843 -0.769505 0
M  V30 5318 C 475.216 -4.26498 -0.0136267 0
M  V30 5319 S 476.049 -5.18878 1.32384 0
M  V30 5320 C 477.205 -6.24666 0.392838 0
M  V30 5321 H 477.438 -2.81755 0.948756 0
M  V30 5322 H 474.971 -1.42103 0.603828 0
M  V30 5323 H 476.929 -3.89247 -1.30374 0
M  V30 5324 H 475.59 -2.74558 -1.52567 0
M  V30 5325 H 474.783 -4.98769 -0.724227 0
M  V30 5326 H 474.385 -3.71274 0.450713 0
M  V30 5327 H 476.677 -6.7619 -0.4211 0
M  V30 5328 H 477.62 -6.99741 1.0848 0
M  V30 5329 H 478.028 -5.64499 -0.0123908 0
M  V30 5330 N 477.426 -0.562348 -1.47226 0
M  V30 5331 C 478.666 -0.0426374 -2.04356 0
M  V30 5332 C 479.03 1.28487 -1.42671 0
M  V30 5333 O 480.231 1.89259 -1.90878 0
M  V30 5334 C 478.502 0.0433826 -3.57374 0
M  V30 5335 S 480.061 0.508472 -4.35844 0
M  V30 5336 H 476.879 -0.0276234 -0.710463 0
M  V30 5337 H 479.481 -0.750245 -1.80531 0
M  V30 5338 H 478.185 -0.927072 -3.99792 0
M  V30 5339 H 477.716 0.774387 -3.85703 0
M  V30 5340 H 479.731 1.76719 -4.63665 0
M  V30 5341 N 478.904 1.54736 -0.299062 0
M  V30 5342 C 479.867 2.22127 0.565012 0
M  V30 5343 C 480.867 1.20669 1.06281 0
M  V30 5344 O 482.057 1.45417 0.959145 0
M  V30 5345 C 479.189 2.90611 1.78208 0
M  V30 5346 H 480.382 2.99891 -0.0237448 0
M  V30 5347 H 477.935 1.5622 -0.0498788 0
M  V30 5348 H 478.67 2.16921 2.41072 0
M  V30 5349 H 478.455 3.64984 1.43281 0
M  V30 5350 H 479.945 3.42026 2.396 0
M  V30 5351 N 480.382 0.0267497 1.57577 0
M  V30 5352 C 481.629 -0.652404 1.91703 0
M  V30 5353 C 481.957 -1.72271 0.902936 0
M  V30 5354 O 481.212 -1.955 -0.0884843 0
M  V30 5355 C 481.511 -1.30914 3.3256 0
M  V30 5356 C 481.177 -0.369441 4.49384 0
M  V30 5357 C 479.839 -0.110791 4.81072 0
M  V30 5358 C 482.191 0.275971 5.20469 0
M  V30 5359 C 479.519 0.801116 5.81205 0
M  V30 5360 C 481.871 1.17592 6.21575 0
M  V30 5361 C 480.535 1.44348 6.51705 0
M  V30 5362 H 479.805 -0.238732 0.70149 0
M  V30 5363 H 482.452 0.0880091 1.91298 0
M  V30 5364 H 480.757 -2.12425 3.29216 0
M  V30 5365 H 482.454 -1.84115 3.56234 0
M  V30 5366 H 479.044 -0.581211 4.24641 0
M  V30 5367 H 483.228 0.0892 4.9622 0
M  V30 5368 H 478.484 1.01614 6.02897 0
M  V30 5369 H 482.658 1.68223 6.75777 0
M  V30 5370 H 480.285 2.15176 7.29111 0
M  V30 5371 N 481.861 -1.55662 -0.24637 0
M  V30 5372 C 483.091 -1.81312 -0.990438 0
M  V30 5373 C 483.499 -0.600234 -1.79426 0
M  V30 5374 O 482.842 0.440537 -1.78339 0
M  V30 5375 C 482.904 -3.0032 -1.97607 0
M  V30 5376 C 482.568 -4.36322 -1.35912 0
M  V30 5377 C 483.565 -5.14295 -0.761348 0
M  V30 5378 C 481.25 -4.83019 -1.37833 0
M  V30 5379 C 483.244 -6.37114 -0.190998 0
M  V30 5380 C 480.931 -6.05786 -0.804128 0
M  V30 5381 C 481.929 -6.82672 -0.211489 0
M  V30 5382 O 481.617 -8.03121 0.353845 0
M  V30 5383 H 481.349 -0.607233 -0.297058 0
M  V30 5384 H 483.903 -2.0356 -0.274351 0
M  V30 5385 H 482.133 -2.73829 -2.73047 0
M  V30 5386 H 483.822 -3.13057 -2.58361 0
M  V30 5387 H 484.588 -4.79337 -0.739013 0
M  V30 5388 H 480.467 -4.23165 -1.829 0
M  V30 5389 H 484.011 -6.97069 0.272206 0
M  V30 5390 H 479.908 -6.40222 -0.823792 0
M  V30 5391 H 480.676 -8.18131 0.245761 0
M  V30 5392 N 483.339 0.512053 -1.4905 0
M  V30 5393 C 484.302 1.59704 -1.64399 0
M  V30 5394 C 485.302 1.52285 -0.516317 0
M  V30 5395 O 486.492 1.55635 -0.782527 0
M  V30 5396 C 483.624 2.9935 -1.63102 0
M  V30 5397 H 484.817 1.47428 -2.61161 0
M  V30 5398 H 482.37 0.735469 -1.37915 0
M  V30 5399 H 483.105 3.17116 -0.678836 0
M  V30 5400 H 482.89 3.06144 -2.44986 0
M  V30 5401 H 484.38 3.782 -1.77072 0
M  V30 5402 N 484.817 1.37938 0.762283 0
M  V30 5403 C 485.747 1.37176 1.88958 0
M  V30 5404 C 486.728 0.238945 1.68413 0
M  V30 5405 O 487.913 0.440726 1.89133 0
M  V30 5406 C 485.043 1.18742 3.2637 0
M  V30 5407 C 483.997 2.29136 3.61498 0
M  V30 5408 C 483.323 1.95816 4.97554 0
M  V30 5409 C 484.623 3.71363 3.6727 0
M  V30 5410 H 486.317 2.31509 1.89853 0
M  V30 5411 H 483.863 1.11438 0.912005 0
M  V30 5412 H 485.816 1.16837 4.04879 0
M  V30 5413 H 484.54 0.208683 3.25933 0
M  V30 5414 H 483.199 2.30213 2.85303 0
M  V30 5415 H 482.847 0.964475 4.93667 0
M  V30 5416 H 482.547 2.69745 5.22026 0
M  V30 5417 H 484.071 1.95513 5.78452 0
M  V30 5418 H 485.485 3.72364 4.35911 0
M  V30 5419 H 483.882 4.44425 4.03245 0
M  V30 5420 H 484.952 4.04305 2.67704 0
M  V30 5421 N 486.295 -0.989507 1.22664 0
M  V30 5422 C 487.225 -2.09847 1.02404 0
M  V30 5423 C 488.206 -1.70007 -0.0561303 0
M  V30 5424 O 489.391 -1.93906 0.106748 0
M  V30 5425 C 486.521 -3.41996 0.604663 0
M  V30 5426 C 485.475 -3.95699 1.63115 0
M  V30 5427 C 484.801 -5.23936 1.0675 0
M  V30 5428 C 486.101 -4.25999 3.02196 0
M  V30 5429 H 487.795 -2.27054 1.95158 0
M  V30 5430 H 485.341 -1.09111 0.939727 0
M  V30 5431 H 487.294 -4.1899 0.45002 0
M  V30 5432 H 486.018 -3.24626 -0.35855 0
M  V30 5433 H 484.677 -3.2084 1.77362 0
M  V30 5434 H 484.325 -5.02909 0.0955422 0
M  V30 5435 H 484.025 -5.60833 1.75328 0
M  V30 5436 H 485.549 -6.0356 0.924516 0
M  V30 5437 H 486.963 -4.93777 2.91303 0
M  V30 5438 H 485.36 -4.74076 3.67929 0
M  V30 5439 H 486.43 -3.33636 3.51873 0
M  V30 5440 N 487.773 -1.03688 -1.18687 0
M  V30 5441 C 489.019 -0.74888 -1.89112 0
M  V30 5442 C 489.374 0.715345 -1.78607 0
M  V30 5443 O 488.667 1.51498 -1.17299 0
M  V30 5444 C 488.861 -1.14477 -3.3857 0
M  V30 5445 C 488.69 -2.64594 -3.63621 0
M  V30 5446 C 487.46 -3.31685 -3.812 0
M  V30 5447 C 489.658 -3.62811 -3.64517 0
M  V30 5448 N 487.64 -4.70822 -3.93955 0
M  V30 5449 C 489.011 -4.87603 -3.8294 0
M  V30 5450 C 491.066 -3.56495 -3.47585 0
M  V30 5451 C 489.769 -6.0684 -3.86184 0
M  V30 5452 C 491.795 -4.75155 -3.52111 0
M  V30 5453 C 491.157 -5.98765 -3.71026 0
M  V30 5454 H 487.256 -0.32603 -0.710794 0
M  V30 5455 H 489.84 -1.3258 -1.42586 0
M  V30 5456 H 488.011 -0.595974 -3.838 0
M  V30 5457 H 489.743 -0.808187 -3.96548 0
M  V30 5458 H 486.498 -2.82091 -3.80423 0
M  V30 5459 H 486.922 -5.43122 -4.04163 0
M  V30 5460 H 491.564 -2.61907 -3.31911 0
M  V30 5461 H 489.282 -7.01788 -4.00648 0
M  V30 5462 H 492.868 -4.71905 -3.40289 0
M  V30 5463 H 491.748 -6.89047 -3.74412 0
M  V30 5464 N 489.251 1.34841 -0.815825 0
M  V30 5465 C 490.5 1.97755 -0.396976 0
M  V30 5466 C 490.813 1.65422 1.04379 0
M  V30 5467 O 492.019 2.21771 1.5662 0
M  V30 5468 C 490.475 3.53818 -0.658869 0
M  V30 5469 C 490.083 3.95051 -2.11278 0
M  V30 5470 C 491.827 4.23397 -0.305834 0
M  V30 5471 C 489.734 5.43997 -2.31994 0
M  V30 5472 H 488.664 0.739985 -0.1447 0
M  V30 5473 H 491.315 1.53781 -1.00118 0
M  V30 5474 H 489.697 3.95997 0.0154112 0
M  V30 5475 H 490.871 3.63998 -2.82564 0
M  V30 5476 H 489.186 3.38388 -2.42657 0
M  V30 5477 H 491.783 5.32899 -0.43854 0
M  V30 5478 H 492.126 4.09508 0.748952 0
M  V30 5479 H 492.659 3.8667 -0.934403 0
M  V30 5480 H 489.398 5.62865 -3.35952 0
M  V30 5481 H 488.918 5.76589 -1.65244 0
M  V30 5482 H 490.597 6.10584 -2.14001 0
M  V30 5483 N 490.729 0.570148 1.46925 0
M  V30 5484 C 491.977 0.0508523 2.02036 0
M  V30 5485 C 492.298 -1.30885 1.44548 0
M  V30 5486 O 491.568 -1.85647 0.625453 0
M  V30 5487 H 490.148 0.0158088 0.746833 0
M  V30 5488 H 492.81 0.743086 1.80178 0
M  V30 5489 H 491.906 -0.027575 3.12088 0
M  V30 5490 N 492.207 -1.54576 0.307264 0
M  V30 5491 C 493.447 -2.02172 -0.300962 0
M  V30 5492 C 493.811 -1.19081 -1.50611 0
M  V30 5493 O 495.012 -1.56405 -2.18612 0
M  V30 5494 C 493.283 -3.51576 -0.642591 0
M  V30 5495 S 494.842 -4.21127 -1.23279 0
M  V30 5496 H 491.66 -0.705021 -0.0920141 0
M  V30 5497 H 494.262 -1.90563 0.436594 0
M  V30 5498 H 492.966 -4.09681 0.242901 0
M  V30 5499 H 492.497 -3.67234 -1.41077 0
M  V30 5500 H 494.512 -4.27426 -2.52034 0
M  V30 5501 N 493.685 -0.035106 -1.57561 0
M  V30 5502 C 494.617 0.973604 -2.07494 0
M  V30 5503 C 495.63 1.28504 -0.999534 0
M  V30 5504 O 496.819 1.24864 -1.27559 0
M  V30 5505 C 493.919 2.29945 -2.48955 0
M  V30 5506 C 493.092 2.1723 -3.79644 0
M  V30 5507 C 492.151 3.328 -4.07592 0
M  V30 5508 O 491.177 3.09418 -4.77754 0
M  V30 5509 N 492.379 4.56779 -3.58236 0
M  V30 5510 H 495.144 0.547525 -2.94656 0
M  V30 5511 H 492.705 0.151515 -1.61189 0
M  V30 5512 H 494.697 3.06097 -2.64739 0
M  V30 5513 H 493.267 2.64173 -1.67126 0
M  V30 5514 H 492.487 1.25768 -3.73599 0
M  V30 5515 H 493.775 2.05945 -4.65257 0
M  V30 5516 H 493.173 4.78668 -3.01485 0
M  V30 5517 H 491.73 5.30079 -3.79288 0
M  V30 5518 N 495.163 1.55791 0.238111 0
M  V30 5519 C 496.093 1.94068 1.29846 0
M  V30 5520 C 497.074 0.806726 1.49753 0
M  V30 5521 O 498.259 1.06772 1.62214 0
M  V30 5522 C 495.389 2.24302 2.65153 0
M  V30 5523 C 494.343 3.40032 2.59927 0
M  V30 5524 C 493.669 3.55829 3.99111 0
M  V30 5525 C 494.969 4.75476 2.16148 0
M  V30 5526 H 496.663 2.82887 0.980563 0
M  V30 5527 H 494.209 1.36105 0.470253 0
M  V30 5528 H 496.162 2.4967 3.39475 0
M  V30 5529 H 494.886 1.32318 2.98596 0
M  V30 5530 H 493.545 3.14687 1.88063 0
M  V30 5531 H 493.193 2.6125 4.29834 0
M  V30 5532 H 492.893 4.3366 3.96501 0
M  V30 5533 H 494.417 3.83528 4.7512 0
M  V30 5534 H 495.831 5.00158 2.80205 0
M  V30 5535 H 494.228 5.56472 2.24631 0
M  V30 5536 H 495.298 4.71946 1.11333 0
M  V30 5537 N 496.642 -0.504142 1.49319 0
M  V30 5538 C 498.053 -1.08572 1.51885 0
M  V30 5539 C 498.404 -1.93842 0.303255 0
M  V30 5540 O 497.529 -2.0828 -0.58724 0
M  V30 5541 C 498.124 -1.97574 2.75227 0
M  V30 5542 C 496.683 -2.509 2.80581 0
M  V30 5543 C 495.83 -1.28447 2.45757 0
M  V30 5544 H 498.781 -0.288194 1.56061 0
M  V30 5545 H 498.802 -2.82219 2.55211 0
M  V30 5546 H 498.314 -1.35486 3.63683 0
M  V30 5547 H 496.415 -3.16636 1.96398 0
M  V30 5548 H 496.528 -2.88268 3.82673 0
M  V30 5549 H 494.892 -1.60868 1.97468 0
M  V30 5550 H 495.675 -0.68072 3.36483 0
M  V30 5551 N 498.12 -1.38341 -0.754957 0
M  V30 5552 C 499.052 -1.31347 -1.87831 0
M  V30 5553 C 500.065 -0.225955 -1.61224 0
M  V30 5554 O 501.254 -0.48341 -1.7183 0
M  V30 5555 C 498.354 -1.01201 -3.23437 0
M  V30 5556 C 497.527 -2.20834 -3.77559 0
M  V30 5557 C 496.586 -1.87454 -4.91678 0
M  V30 5558 O 495.612 -2.59934 -5.06382 0
M  V30 5559 N 496.814 -0.828682 -5.74555 0
M  V30 5560 H 499.579 -2.28147 -1.94342 0
M  V30 5561 H 497.14 -1.32184 -0.934828 0
M  V30 5562 H 499.132 -0.769249 -3.97322 0
M  V30 5563 H 497.702 -0.132011 -3.12321 0
M  V30 5564 H 496.922 -2.61184 -2.95256 0
M  V30 5565 H 498.21 -3.00678 -4.10451 0
M  V30 5566 H 497.608 -0.227591 -5.65242 0
M  V30 5567 H 496.165 -0.645802 -6.48593 0
M  V30 5568 N 499.598 0.982988 -1.23187 0
M  V30 5569 C 500.875 1.69814 -0.970707 0
M  V30 5570 C 501.255 2.04811 0.511424 0
M  V30 5571 O 500.603 1.73924 1.48198 0
M  V30 5572 C 500.813 2.94143 -1.87831 0
M  V30 5573 C 502.161 3.66712 -2.14026 0
M  V30 5574 O 503.185 3.04171 -1.8536 0
M  V30 5575 O 502.044 4.79258 -2.62629 0
M  V30 5576 H 499.138 0.741659 -0.365884 0
M  V30 5577 H 501.684 1.03844 -1.34218 0
M  V30 5578 H 500.456 2.64858 -2.88038 0
M  V30 5579 H 500.079 3.6785 -1.50905 0
M  V30 5580 N 501.076 1.04316 1.18135 0
M  V30 5581 C 502.325 0.74319 1.87509 0
M  V30 5582 C 502.638 -0.732136 1.81381 0
M  V30 5583 O 503.844 -1.14572 2.46141 0
M  V30 5584 C 502.3 1.27913 3.36402 0
M  V30 5585 C 501.908 2.78326 3.51053 0
M  V30 5586 C 503.652 1.0558 4.11161 0
M  V30 5587 C 501.559 3.25266 4.93919 0
M  V30 5588 H 500.489 0.274313 0.702331 0
M  V30 5589 H 503.14 1.25931 1.33467 0
M  V30 5590 H 501.522 0.690853 3.89927 0
M  V30 5591 H 502.696 3.42933 3.07788 0
M  V30 5592 H 501.011 2.991 2.89704 0
M  V30 5593 H 503.608 1.38161 5.16542 0
M  V30 5594 H 503.951 -0.00684729 4.16299 0
M  V30 5595 H 504.484 1.60882 3.63816 0
M  V30 5596 H 501.223 4.30922 4.9395 0
M  V30 5597 H 500.743 2.65396 5.3789 0
M  V30 5598 H 502.422 3.19433 5.62647 0
M  V30 5599 N 502.554 -1.34406 0.822964 0
M  V30 5600 C 503.801 -1.98284 0.411057 0
M  V30 5601 C 504.129 -1.65245 -1.02588 0
M  V30 5602 O 503.384 -0.91619 -1.72929 0
M  V30 5603 C 503.683 -3.52981 0.560268 0
M  V30 5604 C 503.349 -4.05931 1.96293 0
M  V30 5605 C 502.011 -4.20103 2.34664 0
M  V30 5606 C 504.363 -4.34412 2.87985 0
M  V30 5607 C 501.691 -4.60082 3.64062 0
M  V30 5608 C 504.043 -4.75838 4.16847 0
M  V30 5609 C 502.707 -4.88215 4.55195 0
M  V30 5610 H 501.977 -0.725573 0.150416 0
M  V30 5611 H 504.624 -1.60349 1.04692 0
M  V30 5612 H 502.929 -3.91477 -0.158982 0
M  V30 5613 H 504.626 -4.00385 0.222087 0
M  V30 5614 H 501.216 -3.95363 1.65487 0
M  V30 5615 H 505.4 -4.23001 2.59584 0
M  V30 5616 H 500.656 -4.67856 3.93599 0
M  V30 5617 H 504.83 -4.96834 4.87984 0
M  V30 5618 H 502.457 -5.18952 5.55512 0
M  V30 5619 N 504.032 -0.577932 -1.46621 0
M  V30 5620 C 505.281 -0.0594281 -2.01612 0
M  V30 5621 C 505.594 1.30663 -1.45556 0
M  V30 5622 O 506.8 1.91621 -1.92337 0
M  V30 5623 C 505.256 -0.0556666 -3.59857 0
M  V30 5624 C 504.864 -1.41975 -4.24908 0
M  V30 5625 C 506.608 0.409143 -4.22524 0
M  V30 5626 C 504.515 -1.37397 -5.75218 0
M  V30 5627 H 503.445 -0.0184469 -0.753774 0
M  V30 5628 H 506.096 -0.728869 -1.68404 0
M  V30 5629 H 504.478 0.679843 -3.90121 0
M  V30 5630 H 505.652 -2.17461 -4.0626 0
M  V30 5631 H 503.967 -1.82419 -3.74316 0
M  V30 5632 H 506.564 0.46211 -5.32699 0
M  V30 5633 H 506.907 1.42565 -3.91128 0
M  V30 5634 H 507.44 -0.272152 -3.96868 0
M  V30 5635 H 504.179 -2.36714 -6.11267 0
M  V30 5636 H 503.699 -0.661239 -5.96144 0
M  V30 5637 H 505.378 -1.08484 -6.3784 0
M  V30 5638 N 505.51 1.54411 -0.315457 0
M  V30 5639 C 506.44 2.27002 0.547039 0
M  V30 5640 C 507.421 1.27492 1.12605 0
M  V30 5641 O 508.606 1.5629 1.15269 0
M  V30 5642 C 505.736 3.02171 1.71201 0
M  V30 5643 C 504.69 4.0895 1.26268 0
M  V30 5644 C 504.016 4.71915 2.51396 0
M  V30 5645 C 505.316 5.20891 0.383419 0
M  V30 5646 H 507.01 2.99343 -0.0584517 0
M  V30 5647 H 504.556 1.4397 -0.0295527 0
M  V30 5648 H 506.509 3.51681 2.32161 0
M  V30 5649 H 505.233 2.27433 2.34397 0
M  V30 5650 H 503.892 3.60312 0.676062 0
M  V30 5651 H 503.54 3.93801 3.12937 0
M  V30 5652 H 503.24 5.44039 2.22026 0
M  V30 5653 H 504.764 5.24195 3.13133 0
M  V30 5654 H 506.178 5.66206 0.899082 0
M  V30 5655 H 504.575 5.99821 0.182857 0
M  V30 5656 H 505.645 4.81324 -0.587821 0
M  V30 5657 N 506.988 0.0434614 1.5754 0
M  V30 5658 C 508.218 -0.640905 1.96408 0
M  V30 5659 C 508.626 -1.65365 0.919297 0
M  V30 5660 O 507.969 -1.83395 -0.105795 0
M  V30 5661 C 508.031 -1.39141 3.31482 0
M  V30 5662 C 507.695 -0.535375 4.53853 0
M  V30 5663 C 508.692 0.195335 5.19533 0
M  V30 5664 C 506.377 -0.468564 5.0011 0
M  V30 5665 C 508.371 0.981377 6.298 0
M  V30 5666 C 506.058 0.321171 6.10255 0
M  V30 5667 C 507.056 1.04484 6.74961 0
M  V30 5668 O 506.744 1.8216 7.8299 0
M  V30 5669 H 506.476 -0.180584 0.651433 0
M  V30 5670 H 509.03 0.103848 2.05137 0
M  V30 5671 H 507.26 -2.18162 3.19284 0
M  V30 5672 H 508.949 -1.96526 3.55151 0
M  V30 5673 H 509.715 0.15314 4.84758 0
M  V30 5674 H 505.594 -1.02142 4.49542 0
M  V30 5675 H 509.138 1.54674 6.80237 0
M  V30 5676 H 505.035 0.365032 6.44467 0
M  V30 5677 H 505.803 1.74289 7.99728 0
M  V30 5678 N 508.466 -1.55915 -0.229846 0
M  V30 5679 C 509.714 -1.7819 -0.953565 0
M  V30 5680 C 510.035 -0.610504 -1.85197 0
M  V30 5681 O 509.305 0.372988 -1.92316 0
M  V30 5682 H 507.885 -0.657208 -0.355087 0
M  V30 5683 H 510.547 -1.9337 -0.243693 0
M  V30 5684 H 509.643 -2.70011 -1.56527 0
M  V30 5685 N 509.944 0.496216 -1.49584 0
M  V30 5686 C 511.36 0.827814 -1.36453 0
M  V30 5687 C 511.56 1.97464 -0.401285 0
M  V30 5688 O 510.616 2.51958 0.165296 0
M  V30 5689 C 511.929 1.16352 -2.77277 0
M  V30 5690 C 513.477 1.27145 -2.86013 0
M  V30 5691 C 513.952 1.64042 -4.27615 0
M  V30 5692 N 515.443 1.71082 -4.30448 0
M  V30 5693 C 516.178 2.01085 -5.36984 0
M  V30 5694 N 515.674 2.2928 -6.5376 0
M  V30 5695 N 517.467 2.02376 -5.24405 0
M  V30 5696 H 509.618 -0.259947 -2.10803 0
M  V30 5697 H 511.881 -0.0537163 -0.946477 0
M  V30 5698 H 511.587 0.394153 -3.49484 0
M  V30 5699 H 511.461 2.10582 -3.12946 0
M  V30 5700 H 513.848 2.03152 -2.1404 0
M  V30 5701 H 513.929 0.309542 -2.5392 0
M  V30 5702 H 513.573 0.88583 -5.00115 0
M  V30 5703 H 513.503 2.6134 -4.57175 0
M  V30 5704 H 515.994 1.51434 -3.46232 0
M  V30 5705 H 516.307 2.51376 -7.30774 0
M  V30 5706 H 514.652 2.26726 -6.56978 0
M  V30 5707 H 517.843 1.79829 -4.32179 0
M  V30 5708 H 518.016 2.25425 -6.07526 0
M  V30 5709 N 511.423 1.38739 0.74761 0
M  V30 5710 C 512.353 1.39173 1.87492 0
M  V30 5711 C 513.334 0.256794 1.6815 0
M  V30 5712 O 514.519 0.460762 1.88655 0
M  V30 5713 C 511.649 1.22197 3.25093 0
M  V30 5714 C 510.603 2.32957 3.59047 0
M  V30 5715 C 509.929 2.01082 4.95449 0
M  V30 5716 C 511.229 3.75237 3.6331 0
M  V30 5717 H 512.923 2.3351 1.87386 0
M  V30 5718 H 510.469 1.12399 0.900134 0
M  V30 5719 H 512.422 1.21124 4.03617 0
M  V30 5720 H 511.146 0.243241 3.25693 0
M  V30 5721 H 509.805 2.33226 2.82845 0
M  V30 5722 H 509.453 1.01678 4.92616 0
M  V30 5723 H 509.153 2.75267 5.19136 0
M  V30 5724 H 510.677 2.01638 5.76346 0
M  V30 5725 H 512.091 3.76966 4.31937 0
M  V30 5726 H 510.488 4.48677 3.98509 0
M  V30 5727 H 511.558 4.07122 2.634 0
M  V30 5728 N 512.901 -0.976442 1.23707 0
M  V30 5729 C 514.148 -1.71827 1.07153 0
M  V30 5730 C 514.476 -1.9053 -0.390982 0
M  V30 5731 O 513.731 -1.45779 -1.30564 0
M  V30 5732 C 514.03 -3.11814 1.74662 0
M  V30 5733 C 513.696 -3.12978 3.24585 0
M  V30 5734 C 512.358 -3.13003 3.6549 0
M  V30 5735 C 514.71 -3.07986 4.20469 0
M  V30 5736 C 512.038 -3.05757 5.00729 0
M  V30 5737 C 514.39 -3.02282 5.55705 0
M  V30 5738 C 513.054 -3.00631 5.95968 0
M  V30 5739 H 512.324 -0.628758 0.392102 0
M  V30 5740 H 514.971 -1.14239 1.53693 0
M  V30 5741 H 513.276 -3.72812 1.20492 0
M  V30 5742 H 514.973 -3.67989 1.59328 0
M  V30 5743 H 511.563 -3.13718 2.92026 0
M  V30 5744 H 515.747 -3.07103 3.89874 0
M  V30 5745 H 511.003 -3.02834 5.31132 0
M  V30 5746 H 515.177 -2.97376 6.29714 0
M  V30 5747 H 512.804 -2.94771 7.00724 0
M  V30 5748 N 514.379 -1.04941 -1.1758 0
M  V30 5749 C 515.628 -0.753124 -1.87112 0
M  V30 5750 C 515.941 0.722507 -1.81767 0
M  V30 5751 O 517.147 1.13265 -2.46746 0
M  V30 5752 C 515.603 -1.29695 -3.35719 0
M  V30 5753 C 515.211 -2.80184 -3.49572 0
M  V30 5754 C 516.955 -1.07759 -4.10595 0
M  V30 5755 C 514.862 -3.2788 -4.92187 0
M  V30 5756 H 513.792 -0.278034 -0.700866 0
M  V30 5757 H 516.443 -1.26637 -1.32798 0
M  V30 5758 H 514.825 -0.711522 -3.89555 0
M  V30 5759 H 515.999 -3.44561 -3.05965 0
M  V30 5760 H 514.314 -3.00632 -2.88113 0
M  V30 5761 H 516.911 -1.40899 -5.15802 0
M  V30 5762 H 517.254 -0.0152302 -4.16297 0
M  V30 5763 H 517.787 -1.62809 -3.62957 0
M  V30 5764 H 514.526 -4.33535 -4.91658 0
M  V30 5765 H 514.046 -2.68245 -5.36475 0
M  V30 5766 H 515.725 -3.22412 -5.60945 0
M  V30 5767 N 515.857 1.33968 -0.830081 0
M  V30 5768 C 517.103 1.98357 -0.422191 0
M  V30 5769 C 517.436 1.65633 1.01387 0
M  V30 5770 O 516.711 0.931648 1.70735 0
M  V30 5771 C 516.994 3.54492 -0.633043 0
M  V30 5772 C 516.847 3.96934 -2.11574 0
M  V30 5773 C 518.166 4.40039 -0.0735584 0
M  V30 5774 H 515.285 0.720544 -0.154871 0
M  V30 5775 H 517.927 1.58749 -1.04397 0
M  V30 5776 H 516.077 3.88361 -0.103775 0
M  V30 5777 H 517.749 3.73363 -2.7092 0
M  V30 5778 H 515.992 3.46984 -2.60354 0
M  V30 5779 H 516.663 5.05651 -2.21406 0
M  V30 5780 H 519.139 4.12764 -0.52585 0
M  V30 5781 H 518.015 5.48327 -0.250841 0
M  V30 5782 H 518.276 4.30124 1.02202 0
M  V30 5783 N 517.335 0.585699 1.46312 0
M  V30 5784 C 518.265 -0.133556 2.33118 0
M  V30 5785 C 519.246 -0.880707 1.45525 0
M  V30 5786 O 520.431 -0.855579 1.74337 0
M  V30 5787 C 517.561 -1.14585 3.27853 0
M  V30 5788 C 516.515 -0.513341 4.2491 0
M  V30 5789 C 515.841 -1.63231 5.09175 0
M  V30 5790 C 517.141 0.551413 5.19381 0
M  V30 5791 H 518.835 0.59121 2.93505 0
M  V30 5792 H 516.381 0.285761 1.41136 0
M  V30 5793 H 518.334 -1.65741 3.87438 0
M  V30 5794 H 517.058 -1.90093 2.65579 0
M  V30 5795 H 515.717 -0.0228349 3.66593 0
M  V30 5796 H 515.365 -2.37713 4.43285 0
M  V30 5797 H 515.065 -1.21473 5.74907 0
M  V30 5798 H 516.589 -2.14658 5.71624 0
M  V30 5799 H 518.003 0.124804 5.73164 0
M  V30 5800 H 516.4 0.889486 5.93471 0
M  V30 5801 H 517.47 1.43655 4.63132 0
M  V30 5802 N 518.813 -1.54241 0.323641 0
M  V30 5803 C 520.06 -2.0057 -0.27891 0
M  V30 5804 C 520.388 -1.21181 -1.52136 0
M  V30 5805 O 519.643 -0.282043 -1.93657 0
M  V30 5806 C 519.942 -3.5129 -0.658031 0
M  V30 5807 C 519.608 -4.48281 0.485252 0
M  V30 5808 C 518.27 -4.74519 0.799055 0
M  V30 5809 C 520.622 -5.05909 1.25322 0
M  V30 5810 C 517.95 -5.55643 1.88354 0
M  V30 5811 C 520.302 -5.88215 2.32779 0
M  V30 5812 C 518.966 -6.12755 2.64741 0
M  V30 5813 H 518.236 -0.733938 -0.10206 0
M  V30 5814 H 520.883 -1.862 0.447435 0
M  V30 5815 H 519.188 -3.63388 -1.4648 0
M  V30 5816 H 520.885 -3.84578 -1.1358 0
M  V30 5817 H 517.475 -4.27979 0.230593 0
M  V30 5818 H 521.659 -4.8562 1.02404 0
M  V30 5819 H 516.915 -5.72888 2.13564 0
M  V30 5820 H 521.089 -6.31888 2.92729 0
M  V30 5821 H 518.716 -6.75404 3.48904 0
M  V30 5822 N 520.291 -0.0518155 -1.57515 0
M  V30 5823 C 521.538 0.621823 -1.92716 0
M  V30 5824 C 521.866 1.70813 -0.930229 0
M  V30 5825 O 521.121 1.95616 0.0573708 0
M  V30 5826 C 521.42 1.25607 -3.34601 0
M  V30 5827 C 521.086 0.297901 -4.49915 0
M  V30 5828 C 519.748 0.034243 -4.81188 0
M  V30 5829 C 522.1 -0.358738 -5.19964 0
M  V30 5830 C 519.428 -0.893479 -5.79857 0
M  V30 5831 C 521.78 -1.27466 -6.19625 0
M  V30 5832 C 520.444 -1.54698 -6.49326 0
M  V30 5833 H 519.714 0.227541 -0.705199 0
M  V30 5834 H 522.361 -0.118432 -1.91133 0
M  V30 5835 H 520.666 2.07161 -3.32553 0
M  V30 5836 H 522.363 1.78424 -3.59118 0
M  V30 5837 H 518.953 0.513581 -4.25512 0
M  V30 5838 H 523.137 -0.168133 -4.96015 0
M  V30 5839 H 518.393 -1.11193 -6.01204 0
M  V30 5840 H 522.567 -1.78953 -6.73015 0
M  V30 5841 H 520.194 -2.26748 -7.25596 0
M  V30 5842 N 521.769 1.56035 0.221574 0
M  V30 5843 C 523.009 1.80822 0.953038 0
M  V30 5844 C 523.373 0.625316 1.81532 0
M  V30 5845 O 524.574 0.752491 2.58052 0
M  V30 5846 C 522.845 3.10503 1.76983 0
M  V30 5847 S 524.404 3.56604 2.55693 0
M  V30 5848 H 521.222 0.634849 0.320137 0
M  V30 5849 H 523.824 1.94274 0.218619 0
M  V30 5850 H 522.528 3.94636 1.12651 0
M  V30 5851 H 522.059 2.99858 2.54655 0
M  V30 5852 H 524.074 3.1994 3.79279 0
M  V30 5853 N 523.247 -0.488276 1.49845 0
M  V30 5854 C 524.472 -1.26997 1.63971 0
M  V30 5855 C 524.897 -1.85427 0.315994 0
M  V30 5856 O 524.255 -1.66475 -0.718032 0
M  V30 5857 C 524.303 -2.36689 2.72049 0
M  V30 5858 O 523.407 -3.40882 2.32107 0
M  V30 5859 H 522.748 -0.374376 0.548396 0
M  V30 5860 H 525.278 -0.583104 1.96115 0
M  V30 5861 H 525.288 -2.82262 2.94605 0
M  V30 5862 H 523.963 -1.93529 3.68129 0
M  V30 5863 H 522.54 -3.01139 2.19931 0
M  V30 5864 N 524.725 -1.39134 -0.740242 0
M  V30 5865 C 525.973 -1.35803 -1.49673 0
M  V30 5866 C 526.294 0.0470897 -1.94943 0
M  V30 5867 O 525.564 0.997347 -1.68611 0
M  V30 5868 H 524.144 -0.499736 -0.555224 0
M  V30 5869 H 526.806 -1.73947 -0.879107 0
M  V30 5870 H 525.902 -2.0174 -2.38133 0
M  V30 5871 N 526.204 0.969867 -1.24223 0
M  V30 5872 C 527.134 2.08191 -1.05729 0
M  V30 5873 C 528.115 1.70075 0.0290765 0
M  V30 5874 O 529.3 1.93712 -0.137583 0
M  V30 5875 C 526.43 3.40991 -0.658995 0
M  V30 5876 C 525.384 3.93054 -1.69389 0
M  V30 5877 C 524.71 5.22171 -1.15072 0
M  V30 5878 C 526.01 4.21137 -3.08935 0
M  V30 5879 H 527.704 2.23921 -1.98746 0
M  V30 5880 H 525.25 1.07602 -0.956967 0
M  V30 5881 H 527.203 4.18221 -0.51662 0
M  V30 5882 H 525.927 3.25155 0.30686 0
M  V30 5883 H 524.586 3.17977 -1.82444 0
M  V30 5884 H 524.234 5.02694 -0.175539 0
M  V30 5885 H 523.934 5.57973 -1.84229 0
M  V30 5886 H 525.458 6.02013 -1.02042 0
M  V30 5887 H 526.872 4.8908 -2.99121 0
M  V30 5888 H 525.269 4.68163 -3.75425 0
M  V30 5889 H 526.339 3.27996 -3.57137 0
M  V30 5890 N 527.682 1.05563 1.17022 0
M  V30 5891 C 528.929 0.767937 1.87374 0
M  V30 5892 C 529.257 -0.705224 1.81265 0
M  V30 5893 O 528.512 -1.5318 1.21796 0
M  V30 5894 C 528.811 1.19849 3.36706 0
M  V30 5895 C 528.477 2.6745 3.63017 0
M  V30 5896 C 527.139 3.0777 3.69907 0
M  V30 5897 C 529.491 3.62811 3.74189 0
M  V30 5898 C 526.819 4.42307 3.85463 0
M  V30 5899 C 529.171 4.97087 3.91264 0
M  V30 5900 C 527.835 5.37055 3.96394 0
M  V30 5901 H 527.105 0.281008 0.68565 0
M  V30 5902 H 529.752 1.32339 1.38415 0
M  V30 5903 H 528.057 0.562096 3.87747 0
M  V30 5904 H 529.754 0.953038 3.8951 0
M  V30 5905 H 526.344 2.35228 3.58282 0
M  V30 5906 H 530.528 3.32798 3.68183 0
M  V30 5907 H 525.784 4.72769 3.87684 0
M  V30 5908 H 529.958 5.70869 3.9885 0
M  V30 5909 H 527.585 6.41308 4.082 0
M  V30 5910 N 529.16 -1.33526 0.837174 0
M  V30 5911 C 530.406 -1.9813 0.432704 0
M  V30 5912 C 530.739 -1.66168 -1.00508 0
M  V30 5913 O 530.014 -0.94069 -1.70239 0
M  V30 5914 C 530.297 -3.54151 0.651834 0
M  V30 5915 C 530.15 -3.95806 2.13676 0
M  V30 5916 C 531.469 -4.39993 0.0968937 0
M  V30 5917 H 528.588 -0.719713 0.15869 0
M  V30 5918 H 531.23 -1.58193 1.05237 0
M  V30 5919 H 529.38 -3.88301 0.124369 0
M  V30 5920 H 531.052 -3.71921 2.72896 0
M  V30 5921 H 529.295 -3.45599 2.62191 0
M  V30 5922 H 529.966 -5.0447 2.24084 0
M  V30 5923 H 532.442 -4.12479 0.547733 0
M  V30 5924 H 531.318 -5.48186 0.279917 0
M  V30 5925 H 531.579 -4.3066 -0.9992 0
M  V30 5926 N 530.638 -0.59345 -1.46 0
M  V30 5927 C 531.568 0.121192 -2.33185 0
M  V30 5928 C 532.549 0.872977 -1.4599 0
M  V30 5929 O 533.734 0.846321 -1.74789 0
M  V30 5930 C 530.864 1.12844 -3.28456 0
M  V30 5931 C 529.818 0.4908 -4.25177 0
M  V30 5932 C 529.144 1.60529 -5.10034 0
M  V30 5933 C 530.444 -0.578949 -5.19081 0
M  V30 5934 H 532.138 -0.606767 -2.93187 0
M  V30 5935 H 529.684 -0.293242 -1.40983 0
M  V30 5936 H 531.637 1.63684 -3.88311 0
M  V30 5937 H 530.361 1.88681 -2.66584 0
M  V30 5938 H 529.02 0.00339328 -3.666 0
M  V30 5939 H 528.668 2.35359 -4.44539 0
M  V30 5940 H 528.368 1.18422 -5.75543 0
M  V30 5941 H 529.892 2.11623 -5.72755 0
M  V30 5942 H 531.306 -0.155199 -5.7309 0
M  V30 5943 H 529.703 -0.920947 -5.92991 0
M  V30 5944 H 530.773 -1.46109 -4.62364 0
M  V30 5945 N 532.116 1.54067 -0.331816 0
M  V30 5946 C 533.362 2.01012 0.268667 0
M  V30 5947 C 533.695 1.2195 1.51136 0
M  V30 5948 O 532.97 0.303972 1.9211 0
M  V30 5949 C 533.253 3.55158 0.59456 0
M  V30 5950 C 533.106 4.4494 -0.659409 0
M  V30 5951 C 534.425 4.16939 1.4089 0
M  V30 5952 H 531.544 0.730698 0.0961756 0
M  V30 5953 H 534.186 1.84593 -0.450031 0
M  V30 5954 H 532.336 3.6928 1.20685 0
M  V30 5955 H 534.008 4.42675 -1.29756 0
M  V30 5956 H 532.251 4.1428 -1.28665 0
M  V30 5957 H 532.922 5.50643 -0.386804 0
M  V30 5958 H 535.398 4.06443 0.891272 0
M  V30 5959 H 534.274 5.24889 1.60569 0
M  V30 5960 H 534.535 3.70798 2.40752 0
M  V30 5961 N 533.594 0.0601682 1.57485 0
M  V30 5962 C 534.544 -0.920969 2.08572 0
M  V30 5963 C 535.528 -1.26617 0.992827 0
M  V30 5964 O 536.72 -1.24708 1.25606 0
M  V30 5965 C 533.849 -2.19267 2.64153 0
M  V30 5966 C 532.935 -1.87447 3.80427 0
M  V30 5967 N 533.326 -1.26025 4.89848 0
M  V30 5968 C 531.624 -2.17265 3.89502 0
M  V30 5969 C 532.325 -1.12036 5.70809 0
M  V30 5970 N 531.301 -1.62624 5.18705 0
M  V30 5971 H 535.103 -0.441561 2.90564 0
M  V30 5972 H 532.617 -0.144043 1.6176 0
M  V30 5973 H 534.614 -2.90462 2.99061 0
M  V30 5974 H 533.274 -2.67806 1.83603 0
M  V30 5975 H 534.285 -0.931336 5.09457 0
M  V30 5976 H 530.962 -2.68262 3.19909 0
M  V30 5977 H 532.352 -0.642783 6.68818 0
M  V30 5978 N 535.072 -1.5615 -0.213296 0
M  V30 5979 C 536.302 -1.83372 -0.951757 0
M  V30 5980 C 536.71 -0.638158 -1.78113 0
M  V30 5981 O 536.053 0.402609 -1.79234 0
M  V30 5982 C 536.115 -3.04444 -1.91192 0
M  V30 5983 C 535.779 -4.39107 -1.26627 0
M  V30 5984 C 536.776 -5.15794 -0.652087 0
M  V30 5985 C 534.461 -4.85834 -1.27556 0
M  V30 5986 C 536.455 -6.37376 -0.055814 0
M  V30 5987 C 534.142 -6.07356 -0.675451 0
M  V30 5988 C 535.14 -6.82967 -0.0666367 0
M  V30 5989 O 534.828 -8.0219 0.524119 0
M  V30 5990 H 534.56 -0.613398 -0.284111 0
M  V30 5991 H 537.114 -2.04096 -0.231112 0
M  V30 5992 H 535.344 -2.79559 -2.67178 0
M  V30 5993 H 537.033 -3.18466 -2.51662 0
M  V30 5994 H 537.799 -4.80796 -0.637172 0
M  V30 5995 H 533.678 -4.26949 -1.73883 0
M  V30 5996 H 537.222 -6.96334 0.420004 0
M  V30 5997 H 533.119 -6.41825 -0.687806 0
M  V30 5998 H 533.887 -8.17426 0.419243 0
M  V30 5999 N 536.55 0.480323 -1.50102 0
M  V30 6000 C 537.966 0.813295 -1.37323 0
M  V30 6001 C 538.166 1.97027 -0.422206 0
M  V30 6002 O 537.222 2.5212 0.138563 0
M  V30 6003 C 538.535 1.13404 -2.78496 0
M  V30 6004 C 540.083 1.24104 -2.87345 0
M  V30 6005 C 540.558 1.59497 -4.29331 0
M  V30 6006 N 542.049 1.66507 -4.32238 0
M  V30 6007 C 542.784 1.95378 -5.39087 0
M  V30 6008 N 542.28 2.22333 -6.56155 0
M  V30 6009 N 544.073 1.96803 -5.26522 0
M  V30 6010 H 536.224 -0.282291 -2.10516 0
M  V30 6011 H 538.487 -0.063752 -0.945854 0
M  V30 6012 H 538.193 0.357064 -3.49883 0
M  V30 6013 H 538.067 2.07251 -3.15162 0
M  V30 6014 H 540.454 2.00871 -2.16183 0
M  V30 6015 H 540.535 0.282593 -2.54234 0
M  V30 6016 H 540.179 0.832736 -5.01027 0
M  V30 6017 H 540.109 2.56477 -4.59921 0
M  V30 6018 H 542.6 1.47753 -3.47818 0
M  V30 6019 H 542.913 2.43611 -7.33399 0
M  V30 6020 H 541.258 2.19745 -6.59346 0
M  V30 6021 H 544.449 1.75235 -4.34062 0
M  V30 6022 H 544.622 2.18969 -6.09883 0
M  V30 6023 N 538.028 1.39524 0.732853 0
M  V30 6024 C 539.444 1.21176 1.03868 0
M  V30 6025 C 539.644 0.0748448 2.01361 0
M  V30 6026 O 538.7 -0.57281 2.45917 0
M  V30 6027 C 540.013 2.54667 1.59892 0
M  V30 6028 C 541.561 2.6153 1.71962 0
M  V30 6029 C 542.036 3.95248 2.31394 0
M  V30 6030 N 543.527 3.96899 2.38801 0
M  V30 6031 C 544.262 4.97138 2.85729 0
M  V30 6032 N 543.758 6.07775 3.32537 0
M  V30 6033 N 545.551 4.84516 2.84957 0
M  V30 6034 H 537.702 2.12225 0.086304 0
M  V30 6035 H 539.965 0.942614 0.100907 0
M  V30 6036 H 539.671 3.38423 0.95721 0
M  V30 6037 H 539.545 2.74538 2.58668 0
M  V30 6038 H 541.932 1.78156 2.35254 0
M  V30 6039 H 542.013 2.45507 0.718327 0
M  V30 6040 H 541.657 4.79054 1.68729 0
M  V30 6041 H 541.587 4.08593 3.32204 0
M  V30 6042 H 544.078 3.16998 2.05719 0
M  V30 6043 H 544.391 6.8017 3.66862 0
M  V30 6044 H 542.736 6.11366 3.30541 0
M  V30 6045 H 545.927 3.97185 2.47713 0
M  V30 6046 H 546.1 5.62783 3.21215 0
M  V30 6047 N 539.506 -0.963266 1.24736 0
M  V30 6048 C 540.734 -1.74166 1.11686 0
M  V30 6049 C 541.149 -1.8589 -0.330187 0
M  V30 6050 O 540.506 -1.35042 -1.2276 0
M  V30 6051 C 540.557 -3.15989 1.75595 0
M  V30 6052 O 540.278 -3.04847 3.14642 0
M  V30 6053 C 541.779 -4.10145 1.68213 0
M  V30 6054 H 538.999 -0.546031 0.389989 0
M  V30 6055 H 541.543 -1.20907 1.64929 0
M  V30 6056 H 539.698 -3.66219 1.26343 0
M  V30 6057 H 540.112 -3.9425 3.4593 0
M  V30 6058 H 541.586 -5.07299 2.17604 0
M  V30 6059 H 542.063 -4.3445 0.644208 0
M  V30 6060 H 542.669 -3.65827 2.16912 0
M  V30 6061 N 540.985 -1.06182 -1.16461 0
M  V30 6062 C 541.935 -0.641619 -2.18786 0
M  V30 6063 C 542.919 0.327122 -1.5754 0
M  V30 6064 O 544.111 0.142746 -1.76423 0
M  V30 6065 C 541.24 -0.0283734 -3.43288 0
M  V30 6066 C 540.326 -1.02154 -4.11613 0
M  V30 6067 N 540.717 -2.19671 -4.55608 0
M  V30 6068 C 539.015 -0.852229 -4.37782 0
M  V30 6069 C 539.716 -2.82583 -5.0845 0
M  V30 6070 N 538.692 -2.10318 -5.01266 0
M  V30 6071 H 542.494 -1.53684 -2.50516 0
M  V30 6072 H 540.008 -0.933349 -1.329 0
M  V30 6073 H 542.005 0.29049 -4.15887 0
M  V30 6074 H 540.665 0.862118 -3.13046 0
M  V30 6075 H 541.676 -2.57453 -4.49375 0
M  V30 6076 H 538.353 -0.0136314 -4.17498 0
M  V30 6077 H 539.743 -3.82298 -5.52538 0
M  V30 6078 N 542.463 1.3308 -0.844243 0
M  V30 6079 C 543.693 2.01515 -0.455541 0
M  V30 6080 C 544.101 1.63655 0.949406 0
M  V30 6081 O 543.444 0.84848 1.62931 0
M  V30 6082 C 543.506 3.55967 -0.502801 0
M  V30 6083 C 543.17 4.17222 -1.86481 0
M  V30 6084 C 544.167 4.36205 -2.8288 0
M  V30 6085 C 541.852 4.53528 -2.15911 0
M  V30 6086 C 543.846 4.90649 -4.06869 0
M  V30 6087 C 541.533 5.07679 -3.40155 0
M  V30 6088 C 542.531 5.26186 -4.35451 0
M  V30 6089 O 542.219 5.79183 -5.57496 0
M  V30 6090 H 541.951 0.65199 -0.178565 0
M  V30 6091 H 544.505 1.70867 -1.1399 0
M  V30 6092 H 542.735 3.85965 0.23836 0
M  V30 6093 H 544.424 4.05688 -0.131169 0
M  V30 6094 H 545.19 4.085 -2.61444 0
M  V30 6095 H 541.069 4.38414 -1.42528 0
M  V30 6096 H 544.613 5.0501 -4.81259 0
M  V30 6097 H 540.51 5.34815 -3.61446 0
M  V30 6098 H 541.278 5.97591 -5.5931 0
M  V30 6099 N 543.941 0.601185 1.45683 0
M  V30 6100 C 545.218 0.0261659 1.95582 0
M  V30 6101 C 545.598 -1.4399 1.5437 0
M  V30 6102 O 544.946 -2.13919 0.80318 0
M  V30 6103 C 545.156 0.217557 3.48321 0
M  V30 6104 C 546.504 0.0950076 4.24494 0
M  V30 6105 O 547.528 0.147345 3.55895 0
M  V30 6106 O 546.387 -0.025261 5.46494 0
M  V30 6107 H 543.481 -0.0393688 0.826062 0
M  V30 6108 H 546.027 0.670798 1.55879 0
M  V30 6109 H 544.799 1.23601 3.71266 0
M  V30 6110 H 544.422 -0.46264 3.94899 0
M  V30 6111 N 545.419 -1.53889 0.339982 0
M  V30 6112 C 546.649 -2.04973 -0.258738 0
M  V30 6113 C 547.057 -1.21485 -1.45045 0
M  V30 6114 O 546.4 -0.2422 -1.82096 0
M  V30 6115 C 546.462 -3.51783 -0.740853 0
M  V30 6116 C 546.126 -4.55802 0.330734 0
M  V30 6117 C 547.123 -5.06512 1.17226 0
M  V30 6118 C 544.808 -4.99966 0.483637 0
M  V30 6119 C 546.802 -5.99963 2.15227 0
M  V30 6120 C 544.489 -5.93229 1.46704 0
M  V30 6121 C 545.487 -6.43115 2.29981 0
M  V30 6122 O 545.175 -7.34545 3.26649 0
M  V30 6123 H 544.907 -0.673807 -0.0544037 0
M  V30 6124 H 547.461 -1.99492 0.489107 0
M  V30 6125 H 545.691 -3.54717 -1.53988 0
M  V30 6126 H 547.38 -3.85857 -1.25973 0
M  V30 6127 H 548.146 -4.73158 1.0652 0
M  V30 6128 H 544.025 -4.6074 -0.15471 0
M  V30 6129 H 547.569 -6.38825 2.80265 0
M  V30 6130 H 543.466 -6.25998 1.57468 0
M  V30 6131 H 544.234 -7.52468 3.22078 0
M  V30 6132 N 546.897 -0.0685191 -1.57451 0
M  V30 6133 C 548.122 0.613919 -1.98106 0
M  V30 6134 C 548.547 1.62551 -0.946501 0
M  V30 6135 O 547.905 1.81085 0.0882824 0
M  V30 6136 C 547.953 1.26189 -3.378 0
M  V30 6137 O 547.057 2.37773 -3.36954 0
M  V30 6138 H 546.398 0.158163 -0.644888 0
M  V30 6139 H 548.928 -0.142063 -2.04106 0
M  V30 6140 H 548.938 1.60951 -3.74912 0
M  V30 6141 H 547.613 0.520625 -4.12629 0
M  V30 6142 H 546.19 2.04829 -3.11608 0
M  V30 6143 N 548.375 1.56261 0.205012 0
M  V30 6144 C 549.6 1.84491 0.947512 0
M  V30 6145 C 550.025 0.650894 1.76479 0
M  V30 6146 O 549.383 -0.40035 1.76824 0
M  V30 6147 C 549.431 3.10863 1.82747 0
M  V30 6148 O 548.535 2.90719 2.925 0
M  V30 6149 H 547.876 0.607783 0.267386 0
M  V30 6150 H 550.406 2.03485 0.213323 0
M  V30 6151 H 550.416 3.41399 2.23407 0
M  V30 6152 H 549.091 3.97392 1.2269 0
M  V30 6153 H 547.668 2.71457 2.55667 0
M  V30 6154 N 549.853 -0.472356 1.50355 0
M  V30 6155 C 550.785 -1.58795 1.65278 0
M  V30 6156 C 551.798 -1.53782 0.534313 0
M  V30 6157 O 552.987 -1.59193 0.807446 0
M  V30 6158 C 550.087 -2.97672 1.62001 0
M  V30 6159 C 549.26 -3.27568 2.89859 0
M  V30 6160 C 548.319 -4.45993 2.79242 0
M  V30 6161 O 547.345 -4.46364 3.53197 0
M  V30 6162 N 548.547 -5.47578 1.92713 0
M  V30 6163 H 551.312 -1.46411 2.61503 0
M  V30 6164 H 548.873 -0.660751 1.47803 0
M  V30 6165 H 550.865 -3.74862 1.52513 0
M  V30 6166 H 549.435 -3.03832 0.735159 0
M  V30 6167 H 548.655 -2.39003 3.13483 0
M  V30 6168 H 549.943 -3.44352 3.74565 0
M  V30 6169 H 549.341 -5.50099 1.31939 0
M  V30 6170 H 547.898 -6.23757 1.8913 0
M  V30 6171 N 551.331 -1.39911 -0.725443 0
M  V30 6172 C 552.294 -1.39156 -1.82121 0
M  V30 6173 C 553.294 -0.287018 -1.58218 0
M  V30 6174 O 554.484 -0.545421 -1.65441 0
M  V30 6175 C 551.616 -1.1736 -3.20062 0
M  V30 6176 H 552.809 -2.36672 -1.84191 0
M  V30 6177 H 550.362 -1.25615 -0.930079 0
M  V30 6178 H 551.097 -0.205648 -3.23647 0
M  V30 6179 H 550.882 -1.97358 -3.3881 0
M  V30 6180 H 552.372 -1.19596 -4.00108 0
M  V30 6181 N 552.809 0.956637 -1.25245 0
M  V30 6182 C 553.757 2.0743 -1.0524 0
M  V30 6183 C 554.751 1.69392 0.0160725 0
M  V30 6184 O 555.957 1.7946 -0.139382 0
M  V30 6185 H 552.332 0.678921 -0.323373 0
M  V30 6186 H 554.303 2.2146 -1.99995 0
M  V30 6187 C 553.052 3.40872 -0.685702 0
M  V30 6188 H 552.375 3.70607 -1.49968 0
M  V30 6189 H 553.815 4.19939 -0.585415 0
M  V30 6190 C 552.274 3.31367 0.608082 0
M  V30 6191 O 552.804 3.66214 1.65076 0
M  V30 6192 N 551.01 2.84486 0.592955 0
M  V30 6193 H 550.557 2.56326 -0.25592 0
M  V30 6194 H 550.515 2.78509 1.45877 0
M  V30 6195 N 554.287 1.06798 1.15896 0
M  V30 6196 C 555.536 0.782796 1.8589 0
M  V30 6197 C 555.849 -0.693498 1.82893 0
M  V30 6198 O 557.055 -1.09325 2.48516 0
M  V30 6199 C 555.511 1.3502 3.33613 0
M  V30 6200 C 555.119 2.8571 3.45071 0
M  V30 6201 C 556.863 1.14278 4.08829 0
M  V30 6202 C 554.77 3.35669 4.86909 0
M  V30 6203 H 553.7 0.289149 0.696354 0
M  V30 6204 H 556.351 1.28734 1.30766 0
M  V30 6205 H 554.733 0.773407 3.88374 0
M  V30 6206 H 555.907 3.49385 3.00445 0
M  V30 6207 H 554.222 3.05178 2.83294 0
M  V30 6208 H 556.819 1.49087 5.13495 0
M  V30 6209 H 557.162 0.0814575 4.1622 0
M  V30 6210 H 557.695 1.68563 3.60321 0
M  V30 6211 H 554.434 4.41302 4.84698 0
M  V30 6212 H 553.954 2.76745 5.32139 0
M  V30 6213 H 555.633 3.31296 5.55745 0
M  V30 6214 O 555.804 -1.27943 0.985539 0
M  V30 6215 H 556.495 -1.83099 0.632003 0
M  V30 END ATOM
M  V30 BEGIN BOND
M  V30 END BOND
M  V30 END CTAB
M  END
$$$$
