drugbank_target|Q02762 Ubiquinol-cytochrome c reductase iron-sulfur subunit (DB03152; DB08690)
 OpenBabel12092120433D

  0  0  0     0  0            999 V3000
M  V30 BEGIN CTAB
M  V30 COUNTS 2762 2793 0 0 0
M  V30 BEGIN ATOM
M  V30 1 H -0.908 1.98254 -0.117106 0
M  V30 2 N 0 1.576 0 0
M  V30 3 C 0.933 2.03868 1.02534 0
M  V30 4 C 1.911 0.928543 1.3348 0
M  V30 5 O 3.095 1.19667 1.45644 0
M  V30 6 C 0.222 2.43627 2.35294 0
M  V30 7 C -0.732 3.65373 2.2001 0
M  V30 8 S 0.101 5.13292 1.52614 0
M  V30 9 C 1.257 5.56322 2.86805 0
M  V30 10 H 1.49 2.90518 0.631377 0
M  V30 11 H -0.977 1.52953 0.210867 0
M  V30 12 H 0.981 2.67203 3.11629 0
M  V30 13 H -0.358 1.57376 2.7183 0
M  V30 14 H -1.165 3.90944 3.18086 0
M  V30 15 H -1.563 3.418 1.51819 0
M  V30 16 H 0.729 5.58782 3.83104 0
M  V30 17 H 1.672 6.56266 2.65933 0
M  V30 18 H 2.08 4.83886 2.90714 0
M  V30 19 N 1.4781 -0.272755 1.55222 0
M  V30 20 C 2.7031 -1.02683 1.80197 0
M  V30 21 C 3.1281 -1.79142 0.573551 0
M  V30 22 O 2.4861 -1.74917 -0.476849 0
M  V30 23 C 2.5341 -1.9609 3.02624 0
M  V30 24 O 1.6381 -3.04863 2.77727 0
M  V30 25 H 0.9791 -0.293557 0.595584 0
M  V30 26 H 3.5091 -0.30159 2.02365 0
M  V30 27 H 3.5191 -2.38039 3.31363 0
M  V30 28 H 2.1941 -1.39851 3.91682 0
M  V30 29 H 0.7711 -2.67228 2.60084 0
M  V30 30 N 2.9562 -1.48159 -0.537278 0
M  V30 31 C 3.9042 -1.62573 -1.66352 0
M  V30 32 C 4.8982 -0.492366 -1.62087 0
M  V30 33 O 6.1042 -0.670847 -1.67032 0
M  V30 34 H 2.4792 -0.511992 -0.550789 0
M  V30 35 H 4.4502 -2.57176 -1.51337 0
M  V30 36 C 3.1992 -1.67583 -3.04649 0
M  V30 37 H 2.5222 -2.54151 -3.08622 0
M  V30 38 H 3.9622 -1.81713 -3.83088 0
M  V30 39 C 2.4212 -0.413039 -3.34358 0
M  V30 40 O 2.9512 0.477259 -3.98855 0
M  V30 41 N 1.1572 -0.286961 -2.8918 0
M  V30 42 H 0.7042 -1.01241 -2.36871 0
M  V30 43 H 0.6622 0.556963 -3.09427 0
M  V30 44 N 4.4343 0.785586 -1.36625 0
M  V30 45 C 5.3973 1.87999 -1.31107 0
M  V30 46 C 6.3973 1.59316 -0.217959 0
M  V30 47 O 7.5873 1.67656 -0.472977 0
M  V30 48 C 4.7193 3.24861 -1.03334 0
M  V30 49 H 5.9123 1.94307 -2.2844 0
M  V30 50 H 3.4653 0.983813 -1.21453 0
M  V30 51 H 4.2003 3.24235 -0.0647432 0
M  V30 52 H 3.9853 3.4707 -1.82441 0
M  V30 53 H 5.4753 4.04929 -1.02088 0
M  V30 54 N 5.9124 1.20967 1.01018 0
M  V30 55 C 6.8224 0.980157 2.13143 0
M  V30 56 C 7.8384 -0.0660665 1.73875 0
M  V30 57 O 9.0144 0.122821 2.01025 0
M  V30 58 C 6.0794 0.54216 3.42435 0
M  V30 59 C 5.1404 1.65999 3.95908 0
M  V30 60 C 4.3734 1.2428 5.19028 0
M  V30 61 O 4.5964 0.114196 5.70286 0
M  V30 62 O 3.5304 2.05271 5.65816 0
M  V30 63 H 7.3564 1.91913 2.35379 0
M  V30 64 H 4.9414 0.994099 1.11526 0
M  V30 65 H 6.8234 0.30744 4.20277 0
M  V30 66 H 5.4984 -0.36815 3.216 0
M  V30 67 H 4.4054 1.94906 3.19316 0
M  V30 68 H 5.7384 2.54753 4.21143 0
M  V30 69 N 7.3905 -1.2043 1.01659 0
M  V30 70 C 8.6675 -1.8548 0.621004 0
M  V30 71 C 9.0475 -1.9091 -0.900919 0
M  V30 72 O 8.3955 -1.41694 -1.79263 0
M  V30 73 C 8.6055 -3.25119 1.2688 0
M  V30 74 C 9.9535 -4.01403 1.38423 0
M  V30 75 O 10.9775 -3.34473 1.22501 0
M  V30 76 O 9.8365 -5.21265 1.64151 0
M  V30 77 H 6.9305 -0.798761 0.214266 0
M  V30 78 H 9.4765 -1.28019 1.11396 0
M  V30 79 H 8.2485 -3.15932 2.30873 0
M  V30 80 H 7.8715 -3.90212 0.762917 0
M  V30 81 N 8.8686 -0.792821 -1.36206 0
M  V30 82 C 9.8186 -0.166598 -2.27391 0
M  V30 83 C 10.8026 0.651479 -1.47121 0
M  V30 84 O 11.9946 0.510994 -1.69463 0
M  V30 85 C 9.1236 0.695033 -3.36191 0
M  V30 86 C 8.2096 -0.132019 -4.23894 0
M  V30 87 N 8.6006 -1.18822 -4.91645 0
M  V30 88 C 6.8986 0.0885952 -4.45912 0
M  V30 89 C 7.5996 -1.69198 -5.56549 0
M  V30 90 N 6.5756 -1.00065 -5.34311 0
M  V30 91 H 10.3776 -0.974947 -2.77258 0
M  V30 92 H 7.8916 -0.632616 -1.49572 0
M  V30 93 H 9.8886 1.1596 -4.00448 0
M  V30 94 H 8.5486 1.50189 -2.87877 0
M  V30 95 H 9.5596 -1.57069 -4.93507 0
M  V30 96 H 6.2366 0.865688 -4.08426 0
M  V30 97 H 7.6266 -2.57395 -6.20643 0
M  V30 98 N 10.3467 1.47872 -0.545128 0
M  V30 99 C 11.3097 2.28337 0.198717 0
M  V30 100 C 12.3097 1.36255 0.853888 0
M  V30 101 O 13.4997 1.59003 0.711606 0
M  V30 102 C 10.6317 3.15585 1.28915 0
M  V30 103 H 11.8247 2.95567 -0.507941 0
M  V30 104 H 9.3777 1.53362 -0.301616 0
M  V30 105 H 10.1127 2.53019 2.02859 0
M  V30 106 H 9.8977 3.83337 0.824309 0
M  V30 107 H 11.3877 3.76243 1.81194 0
M  V30 108 N 11.8248 0.280983 1.55075 0
M  V30 109 C 13.0728 -0.333455 1.9933 0
M  V30 110 C 13.3938 -1.55937 1.17085 0
M  V30 111 O 12.6638 -1.94143 0.261805 0
M  V30 112 H 11.2438 -0.126197 0.736263 0
M  V30 113 H 13.9058 0.387678 1.91005 0
M  V30 114 H 13.0018 -0.619292 3.05894 0
M  V30 115 N 13.3029 -1.57598 0.00835791 0
M  V30 116 C 14.5309 -1.95214 -0.68549 0
M  V30 117 C 14.9459 -0.883706 -1.66841 0
M  V30 118 O 14.3029 0.136565 -1.81988 0
M  V30 119 C 14.3539 -3.32865 -1.41007 0
M  V30 120 O 14.0749 -4.35609 -0.466552 0
M  V30 121 C 15.5759 -3.84991 -2.19765 0
M  V30 122 H 12.7959 -0.643422 -0.190392 0
M  V30 123 H 15.3399 -2.04406 0.0619607 0
M  V30 124 H 13.4949 -3.24956 -2.10908 0
M  V30 125 H 13.9089 -5.15288 -0.978699 0
M  V30 126 H 15.3829 -4.8371 -2.65948 0
M  V30 127 H 15.8599 -3.18137 -3.02796 0
M  V30 128 H 16.4659 -3.96103 -1.54864 0
M  V30 129 N 14.781 0.264519 -1.55364 0
M  V30 130 C 16.197 0.61215 -1.47394 0
M  V30 131 C 16.397 1.89134 -0.695018 0
M  V30 132 O 15.453 2.51563 -0.217275 0
M  V30 133 C 16.766 0.731235 -2.91674 0
M  V30 134 C 18.314 0.82473 -3.01939 0
M  V30 135 C 18.789 0.975522 -4.4749 0
M  V30 136 N 20.28 1.04083 -4.51354 0
M  V30 137 C 21.015 1.17646 -5.61201 0
M  V30 138 N 20.511 1.27874 -6.80896 0
M  V30 139 N 22.304 1.20823 -5.48961 0
M  V30 140 H 14.455 -0.575456 -2.04456 0
M  V30 141 H 16.718 -0.196099 -0.927496 0
M  V30 142 H 16.424 -0.138392 -3.51428 0
M  V30 143 H 16.298 1.60883 -3.41169 0
M  V30 144 H 18.685 1.68482 -2.42276 0
M  V30 145 H 18.766 -0.0776479 -2.55682 0
M  V30 146 H 18.41 0.120058 -5.07758 0
M  V30 147 H 18.34 1.89268 -4.91412 0
M  V30 148 H 20.831 0.973846 -3.65136 0
M  V30 149 H 21.144 1.38081 -7.60364 0
M  V30 150 H 19.489 1.24863 -6.83692 0
M  V30 151 H 22.68 1.12469 -4.54388 0
M  V30 152 H 22.853 1.31049 -6.3461 0
M  V30 153 N 16.2591 1.48442 0.529413 0
M  V30 154 C 17.6751 1.34575 0.858004 0
M  V30 155 C 17.8751 0.3572 1.98309 0
M  V30 156 O 16.9311 -0.221379 2.51528 0
M  V30 157 C 18.2441 2.74617 1.22499 0
M  V30 158 C 19.7921 2.83109 1.33484 0
M  V30 159 C 20.2671 4.23854 1.73526 0
M  V30 160 N 21.7581 4.2653 1.80628 0
M  V30 161 C 22.4931 5.32372 2.12997 0
M  V30 162 N 21.9891 6.48491 2.43786 0
M  V30 163 N 23.7821 5.19766 2.14008 0
M  V30 164 H 15.9331 2.1133 -0.212925 0
M  V30 165 H 18.1961 0.947439 -0.0326199 0
M  V30 166 H 17.9021 3.4852 0.471905 0
M  V30 167 H 17.7761 3.08177 2.17501 0
M  V30 168 H 20.1631 2.09462 2.0787 0
M  V30 169 H 20.2441 2.53168 0.366027 0
M  V30 170 H 19.8881 4.98018 0.997013 0
M  V30 171 H 19.8181 4.5124 2.71459 0
M  V30 172 H 22.3091 3.42772 1.59108 0
M  V30 173 H 22.6221 7.24993 2.67592 0
M  V30 174 H 20.9671 6.51765 2.41304 0
M  V30 175 H 24.1581 4.28066 1.89412 0
M  V30 176 H 24.3311 6.02354 2.38902 0
M  V30 177 N 17.7372 -0.778329 1.37039 0
M  V30 178 C 19.0142 -1.52551 1.22424 0
M  V30 179 C 19.3942 -2.10288 -0.184964 0
M  V30 180 O 18.7422 -1.94953 -1.19187 0
M  V30 181 C 18.9522 -2.61164 2.31504 0
M  V30 182 C 20.3002 -3.28746 2.68721 0
M  V30 183 O 21.3242 -2.71455 2.30631 0
M  V30 184 O 20.1832 -4.3231 3.3432 0
M  V30 185 H 17.2772 -0.675343 0.477326 0
M  V30 186 H 19.8232 -0.815859 1.48801 0
M  V30 187 H 18.5952 -2.16574 3.25901 0
M  V30 188 H 18.2182 -3.39737 2.06554 0
M  V30 189 N 19.2153 -1.21501 -1.00376 0
M  V30 190 C 20.4623 -1.03299 -1.74171 0
M  V30 191 C 20.7903 0.433326 -1.89612 0
M  V30 192 O 20.0453 1.33779 -1.42834 0
M  V30 193 C 20.3443 -1.67673 -3.15627 0
M  V30 194 C 20.0103 -3.17533 -3.2013 0
M  V30 195 C 18.6723 -3.58427 -3.21067 0
M  V30 196 C 21.0243 -4.13504 -3.17275 0
M  V30 197 C 18.3523 -4.93794 -3.16835 0
M  V30 198 C 20.7043 -5.48834 -3.14585 0
M  V30 199 C 19.3683 -5.89123 -3.13831 0
M  V30 200 H 18.6383 -0.377999 -0.637336 0
M  V30 201 H 21.2853 -1.51111 -1.17634 0
M  V30 202 H 19.5903 -1.12158 -3.75404 0
M  V30 203 H 21.2873 -1.51091 -3.71446 0
M  V30 204 H 17.8773 -2.84965 -3.20145 0
M  V30 205 H 22.0613 -3.82936 -3.15711 0
M  V30 206 H 17.3173 -5.24255 -3.1459 0
M  V30 207 H 21.4913 -6.22934 -3.1133 0
M  V30 208 H 19.1183 -6.93984 -3.10307 0
M  V30 209 N 20.6934 1.19889 -1.02296 0
M  V30 210 C 21.6234 2.25141 -0.619174 0
M  V30 211 C 22.6044 1.66051 0.368915 0
M  V30 212 O 23.7894 1.92546 0.252941 0
M  V30 213 C 20.9194 3.4728 0.0368783 0
M  V30 214 C 19.8734 4.19005 -0.872865 0
M  V30 215 C 19.1994 5.34637 -0.0822402 0
M  V30 216 C 20.4994 4.74452 -2.18387 0
M  V30 217 H 22.1934 2.59171 -1.49903 0
M  V30 218 H 19.7394 1.24579 -0.722222 0
M  V30 219 H 21.6924 4.20098 0.330958 0
M  V30 220 H 20.4164 3.12433 0.95149 0
M  V30 221 H 19.0754 3.48061 -1.15105 0
M  V30 222 H 18.7234 4.96034 0.83422 0
M  V30 223 H 18.4234 5.83557 -0.688149 0
M  V30 224 H 19.9474 6.10255 0.205238 0
M  V30 225 H 21.3614 5.39055 -1.95172 0
M  V30 226 H 19.7584 5.33834 -2.74119 0
M  V30 227 H 20.8284 3.92844 -2.84257 0
M  V30 228 N 22.1715 0.800033 1.35784 0
M  V30 229 C 23.4015 0.389041 2.02904 0
M  V30 230 C 23.8095 -1.0027 1.60445 0
M  V30 231 O 23.1525 -1.65633 0.794453 0
M  V30 232 C 23.2145 0.385495 3.57427 0
M  V30 233 C 22.8785 1.72662 4.23127 0
M  V30 234 C 23.8755 2.68385 4.4527 0
M  V30 235 C 21.5605 2.00883 4.60381 0
M  V30 236 C 23.5545 3.90517 5.03761 0
M  V30 237 C 21.2415 3.2328 5.18588 0
M  V30 238 C 22.2395 4.17915 5.40218 0
M  V30 239 O 21.9275 5.38153 5.97199 0
M  V30 240 H 21.6595 0.157032 0.657508 0
M  V30 241 H 24.2135 1.08311 1.74522 0
M  V30 242 H 22.4435 -0.365128 3.84972 0
M  V30 243 H 24.1325 -0.00228296 4.059 0
M  V30 244 H 24.8985 2.47872 4.16874 0
M  V30 245 H 20.7775 1.28037 4.42863 0
M  V30 246 H 24.3215 4.64395 5.2056 0
M  V30 247 H 20.2185 3.43667 5.4641 0
M  V30 248 H 20.9865 5.3936 6.15656 0
M  V30 249 N 23.6496 -1.47581 0.552962 0
M  V30 250 C 24.8796 -2.06575 0.0320091 0
M  V30 251 C 25.2876 -1.4067 -1.26525 0
M  V30 252 O 24.6306 -0.495808 -1.76883 0
M  V30 253 C 24.6926 -3.58705 -0.238913 0
M  V30 254 C 24.3566 -4.46625 0.968272 0
M  V30 255 C 25.3536 -4.85 1.87274 0
M  V30 256 C 23.0386 -4.88201 1.18175 0
M  V30 257 C 25.0326 -5.63745 2.9744 0
M  V30 258 C 22.7196 -5.66712 2.28651 0
M  V30 259 C 23.7176 -6.04394 3.18114 0
M  V30 260 O 23.4056 -6.81324 4.26676 0
M  V30 261 H 23.1376 -0.674763 0.0408689 0
M  V30 262 H 25.6916 -1.90634 0.764719 0
M  V30 263 H 23.9216 -3.72844 -1.02588 0
M  V30 264 H 25.6106 -3.99735 -0.704731 0
M  V30 265 H 26.3766 -4.53482 1.71984 0
M  V30 266 H 22.2556 -4.58339 0.494593 0
M  V30 267 H 25.7996 -5.93077 3.67296 0
M  V30 268 H 21.6966 -5.97642 2.43915 0
M  V30 269 H 22.4646 -6.99712 4.24671 0
M  V30 270 N 25.1277 -0.289203 -1.54924 0
M  V30 271 C 26.0907 0.579144 -2.21762 0
M  V30 272 C 27.0907 1.07047 -1.1999 0
M  V30 273 O 28.2807 0.968384 -1.44803 0
M  V30 274 C 25.4127 1.80055 -2.8947 0
M  V30 275 H 26.6057 -0.00464908 -2.999 0
M  V30 276 H 24.1587 -0.0399306 -1.56249 0
M  V30 277 H 24.8937 2.42449 -2.15381 0
M  V30 278 H 24.6787 1.45602 -3.64064 0
M  V30 279 H 26.1687 2.41773 -3.40493 0
M  V30 280 N 26.6058 1.57591 -0.0167156 0
M  V30 281 C 27.8338 1.95575 0.675128 0
M  V30 282 C 28.2488 0.892542 1.6637 0
M  V30 283 O 27.6058 -0.126912 1.82058 0
M  V30 284 C 27.6568 3.33608 1.39239 0
M  V30 285 O 27.3778 4.3585 0.443444 0
M  V30 286 C 28.8788 3.86151 2.17721 0
M  V30 287 H 26.0988 0.644423 0.186978 0
M  V30 288 H 28.6428 2.0437 -0.0728 0
M  V30 289 H 26.7978 3.2607 2.09182 0
M  V30 290 H 27.2118 5.158 0.951358 0
M  V30 291 H 28.6858 4.85114 2.63379 0
M  V30 292 H 29.1628 3.19738 3.01105 0
M  V30 293 H 29.7688 3.96918 1.52761 0
M  V30 294 N 28.0839 -0.256276 1.55502 0
M  V30 295 C 29.0469 -1.30047 1.88734 0
M  V30 296 C 30.0469 -1.4154 0.763086 0
M  V30 297 O 31.2369 -1.40403 1.03115 0
M  V30 298 C 28.3689 -2.67953 2.10747 0
M  V30 299 H 29.5619 -1.01802 2.82093 0
M  V30 300 H 27.1149 -0.495134 1.4825 0
M  V30 301 H 27.8499 -3.01351 1.19825 0
M  V30 302 H 27.6349 -2.60993 2.92617 0
M  V30 303 H 29.1249 -3.43368 2.37673 0
M  V30 304 N 29.562 -1.4872 -0.521534 0
M  V30 305 C 30.81 -1.56857 -1.27437 0
M  V30 306 C 31.131 -0.247982 -1.93417 0
M  V30 307 O 30.401 0.731151 -1.81744 0
M  V30 308 H 28.981 -0.577885 -0.473347 0
M  V30 309 H 31.643 -1.85233 -0.606205 0
M  V30 310 H 30.739 -2.35402 -2.0492 0
M  V30 311 N 31.0401 0.771051 -1.3745 0
M  V30 312 C 32.0031 1.86598 -1.33093 0
M  V30 313 C 33.0031 1.59076 -0.234845 0
M  V30 314 O 34.1931 1.67145 -0.490732 0
M  V30 315 C 31.3251 3.23747 -1.06773 0
M  V30 316 H 32.5181 1.91873 -2.30488 0
M  V30 317 H 30.0711 0.970876 -1.2249 0
M  V30 318 H 30.8061 3.24148 -0.099129 0
M  V30 319 H 30.5911 3.45115 -1.86112 0
M  V30 320 H 32.0811 4.03824 -1.06377 0
M  V30 321 N 32.5182 1.22032 0.997298 0
M  V30 322 C 33.7662 1.04016 1.73278 0
M  V30 323 C 34.0872 -0.426255 1.90284 0
M  V30 324 O 33.3572 -1.30694 1.45931 0
M  V30 325 H 31.9372 0.381897 0.642 0
M  V30 326 H 34.5992 1.5347 1.20137 0
M  V30 327 H 33.6952 1.51441 2.72896 0
M  V30 328 N 33.9963 -1.19345 1.0293 0
M  V30 329 C 34.9593 -2.20793 0.615069 0
M  V30 330 C 35.9593 -1.57553 -0.321533 0
M  V30 331 O 37.1493 -1.73862 -0.108483 0
M  V30 332 C 34.2813 -3.40754 -0.0999222 0
M  V30 333 H 35.4743 -2.58955 1.51269 0
M  V30 334 H 33.0273 -1.3303 0.820534 0
M  V30 335 H 33.7623 -3.0811 -1.01187 0
M  V30 336 H 33.5473 -3.87889 0.57309 0
M  V30 337 H 35.0373 -4.15898 -0.376645 0
M  V30 338 N 35.4744 -0.807222 -1.35358 0
M  V30 339 C 36.7204 -0.388463 -1.99045 0
M  V30 340 C 37.0534 1.04184 -1.63888 0
M  V30 341 O 36.3284 1.72292 -0.902535 0
M  V30 342 C 36.6114 -0.572783 -3.55515 0
M  V30 343 C 36.4644 -2.04807 -4.00468 0
M  V30 344 C 37.7834 0.00114064 -4.401 0
M  V30 345 H 34.9024 -0.142619 -0.723069 0
M  V30 346 H 37.5444 -1.01687 -1.60498 0
M  V30 347 H 35.6944 -0.0378425 -3.88482 0
M  V30 348 H 37.3664 -2.64544 -3.77908 0
M  V30 349 H 35.6094 -2.54427 -3.51353 0
M  V30 350 H 36.2804 -2.12792 -5.09337 0
M  V30 351 H 38.7564 -0.455716 -4.13597 0
M  V30 352 H 37.6324 -0.157737 -5.48673 0
M  V30 353 H 37.8934 1.09488 -4.28328 0
M  V30 354 N 36.9525 1.47285 -0.560781 0
M  V30 355 C 37.9155 2.28535 0.174488 0
M  V30 356 C 38.9155 1.37153 0.839388 0
M  V30 357 O 40.1055 1.59748 0.694702 0
M  V30 358 C 37.2375 3.16934 1.25561 0
M  V30 359 H 38.4305 2.95012 -0.539262 0
M  V30 360 H 35.9835 1.53034 -0.317865 0
M  V30 361 H 36.7185 2.55157 2.00164 0
M  V30 362 H 36.5035 3.8419 0.783604 0
M  V30 363 H 37.9935 3.78143 1.77193 0
M  V30 364 N 38.4306 0.297415 1.54768 0
M  V30 365 C 39.6586 -0.315623 2.04478 0
M  V30 366 C 40.0736 -1.47792 1.17486 0
M  V30 367 O 39.4306 -1.81404 0.19971 0
M  V30 368 C 39.4816 -0.7753 3.53088 0
M  V30 369 O 39.2026 0.340732 4.36773 0
M  V30 370 C 40.7036 -1.45386 4.18781 0
M  V30 371 H 37.9236 -0.0690887 0.667434 0
M  V30 372 H 40.4676 0.436003 1.99798 0
M  V30 373 H 38.6226 -1.47696 3.58141 0
M  V30 374 H 39.0366 -0.0165035 5.24497 0
M  V30 375 H 40.5106 -1.72669 5.24299 0
M  V30 376 H 40.9876 -2.39275 3.68299 0
M  V30 377 H 41.5936 -0.795475 4.17795 0
M  V30 378 N 39.9087 -1.5758 0.0250728 0
M  V30 379 C 41.1567 -1.91255 -0.653151 0
M  V30 380 C 41.4777 -0.901691 -1.729 0
M  V30 381 O 40.7477 0.0573785 -1.95816 0
M  V30 382 H 39.3277 -0.705942 -0.244243 0
M  V30 383 H 41.9897 -1.94767 0.0719209 0
M  V30 384 H 41.0857 -2.91752 -1.10847 0
M  V30 385 N 41.3868 0.248026 -1.55636 0
M  V30 386 C 42.3498 1.29044 -1.89421 0
M  V30 387 C 43.3498 1.41134 -0.770581 0
M  V30 388 O 44.5398 1.39854 -1.03858 0
M  V30 389 C 41.6718 2.66831 -2.12165 0
M  V30 390 H 42.8648 1.00305 -2.82629 0
M  V30 391 H 40.4178 0.487265 -1.48511 0
M  V30 392 H 41.1528 3.00711 -1.21422 0
M  V30 393 H 40.9378 2.59438 -2.93997 0
M  V30 394 H 42.4278 3.42103 -2.3949 0
M  V30 395 N 42.8649 1.48995 0.513639 0
M  V30 396 C 43.8279 1.64229 1.59879 0
M  V30 397 C 44.8279 0.514696 1.5234 0
M  V30 398 O 46.0179 0.78087 1.55718 0
M  V30 399 C 43.1499 1.62783 2.99524 0
M  V30 400 H 44.3429 2.61004 1.47705 0
M  V30 401 H 41.8959 1.37837 0.736936 0
M  V30 402 H 42.6309 0.675461 3.17188 0
M  V30 403 H 42.4159 2.4466 3.06404 0
M  V30 404 H 43.9059 1.76669 3.78388 0
M  V30 405 N 44.343 -0.763751 1.37857 0
M  V30 406 C 45.589 -1.52483 1.33704 0
M  V30 407 C 45.922 -1.94051 -0.0759612 0
M  V30 408 O 45.197 -1.64675 -1.03501 0
M  V30 409 C 45.48 -2.78441 2.28348 0
M  V30 410 C 45.333 -2.43075 3.78463 0
M  V30 411 C 46.652 -3.80415 2.21298 0
M  V30 412 H 43.771 -0.553169 0.487005 0
M  V30 413 H 46.413 -0.875562 1.68624 0
M  V30 414 H 44.563 -3.33842 1.987 0
M  V30 415 H 46.235 -1.93527 4.18742 0
M  V30 416 H 44.478 -1.75666 3.96641 0
M  V30 417 H 45.149 -3.33149 4.40132 0
M  V30 418 H 47.625 -3.34527 2.47449 0
M  V30 419 H 46.501 -4.66257 2.89647 0
M  V30 420 H 46.762 -4.25262 1.20849 0
M  V30 421 N 45.8211 -1.22559 -0.990812 0
M  V30 422 C 47.0671 -1.06303 -1.73411 0
M  V30 423 C 47.4221 0.397442 -1.8825 0
M  V30 424 O 46.7151 1.29062 -1.41611 0
M  V30 425 C 46.9091 -1.71011 -3.13831 0
M  V30 426 C 46.7381 -3.232 -3.12685 0
M  V30 427 C 45.5081 -3.92314 -3.18461 0
M  V30 428 C 47.7061 -4.20107 -2.96673 0
M  V30 429 N 45.6881 -5.31571 -3.07091 0
M  V30 430 C 47.0591 -5.46208 -2.93354 0
M  V30 431 C 49.1141 -4.10973 -2.8108 0
M  V30 432 C 47.8171 -6.64225 -2.76039 0
M  V30 433 C 49.8431 -5.28642 -2.65126 0
M  V30 434 C 49.2051 -6.53663 -2.62496 0
M  V30 435 H 45.3041 -0.443441 -0.644115 0
M  V30 436 H 47.8881 -1.55131 -1.17654 0
M  V30 437 H 46.0591 -1.2473 -3.67827 0
M  V30 438 H 47.7911 -1.47828 -3.76735 0
M  V30 439 H 44.5461 -3.43326 -3.26227 0
M  V30 440 H 44.9701 -6.0455 -3.0471 0
M  V30 441 H 49.6121 -3.15098 -2.8191 0
M  V30 442 H 47.3301 -7.60246 -2.73954 0
M  V30 443 H 50.9161 -5.23407 -2.54039 0
M  V30 444 H 49.7961 -7.43182 -2.50302 0
M  V30 445 N 47.2992 1.18797 -1.03562 0
M  V30 446 C 48.7102 1.70322 -0.764676 0
M  V30 447 C 49.0612 1.82708 0.714996 0
M  V30 448 O 48.1862 1.50299 1.55689 0
M  V30 449 C 48.7812 3.09356 -1.38145 0
M  V30 450 C 47.3402 3.58114 -1.15895 0
M  V30 451 C 46.4872 2.34798 -1.4753 0
M  V30 452 H 49.4382 1.03543 -1.20268 0
M  V30 453 H 49.4592 3.72378 -0.781977 0
M  V30 454 H 48.9712 3.00309 -2.45837 0
M  V30 455 H 47.0722 3.72464 -0.100544 0
M  V30 456 H 47.1852 4.4184 -1.8524 0
M  V30 457 H 45.5492 2.38464 -0.894829 0
M  V30 458 H 46.3322 2.28375 -2.56319 0
M  V30 459 N 48.7773 0.814389 1.34928 0
M  V30 460 C 49.7073 0.244827 2.32213 0
M  V30 461 C 50.6883 -0.634024 1.57842 0
M  V30 462 O 51.8733 -0.562676 1.8587 0
M  V30 463 C 49.0033 -0.601106 3.42058 0
M  V30 464 C 47.9573 0.179896 4.27622 0
M  V30 465 C 47.2833 -0.788237 5.28858 0
M  V30 466 C 48.5833 1.38329 5.03649 0
M  V30 467 H 50.2773 1.05763 2.80097 0
M  V30 468 H 47.8233 0.510029 1.34665 0
M  V30 469 H 49.7763 -1.00968 4.09125 0
M  V30 470 H 48.5003 -1.44688 2.92802 0
M  V30 471 H 47.1593 0.569739 3.62146 0
M  V30 472 H 46.8073 -1.62973 4.75866 0
M  V30 473 H 46.5073 -0.269942 5.8698 0
M  V30 474 H 48.0313 -1.19485 5.98795 0
M  V30 475 H 49.4453 1.04918 5.63618 0
M  V30 476 H 47.8423 1.83662 5.71304 0
M  V30 477 H 48.9123 2.16592 4.33839 0
M  V30 478 N 50.2554 -1.46986 0.568584 0
M  V30 479 C 51.5044 -2.01646 0.0465894 0
M  V30 480 C 51.8174 -1.44721 -1.31587 0
M  V30 481 O 53.0234 -1.91113 -1.92842 0
M  V30 482 C 51.4794 -3.59885 0.032752 0
M  V30 483 C 51.0874 -4.25804 1.39266 0
M  V30 484 C 52.8314 -4.22255 -0.436038 0
M  V30 485 C 50.7384 -5.76081 1.33732 0
M  V30 486 H 49.6684 -0.753876 0.013647 0
M  V30 487 H 52.3194 -1.68864 0.718131 0
M  V30 488 H 50.7014 -3.8968 -0.704669 0
M  V30 489 H 51.8754 -4.07637 2.1487 0
M  V30 490 H 50.1904 -3.7547 1.80032 0
M  V30 491 H 52.7874 -5.32394 -0.49602 0
M  V30 492 H 53.1304 -3.90212 -1.45053 0
M  V30 493 H 53.6634 -3.97033 0.246877 0
M  V30 494 H 50.4024 -6.12761 2.32817 0
M  V30 495 H 49.9224 -5.96553 0.623267 0
M  V30 496 H 51.6014 -6.38518 1.0442 0
M  V30 497 N 51.7335 -0.305618 -1.54608 0
M  V30 498 C 52.6815 0.584119 -2.25146 0
M  V30 499 C 53.6755 1.13326 -1.25911 0
M  V30 500 O 54.8815 1.08337 -1.43747 0
M  V30 501 H 51.2565 0.206983 -0.722954 0
M  V30 502 H 53.2275 -0.033291 -2.98381 0
M  V30 503 C 51.9765 1.74225 -3.009 0
M  V30 504 H 51.2995 1.32892 -3.77067 0
M  V30 505 H 52.7395 2.34077 -3.53531 0
M  V30 506 C 51.1985 2.64914 -2.0814 0
M  V30 507 O 51.7285 3.66137 -1.65246 0
M  V30 508 N 49.9345 2.3275 -1.74 0
M  V30 509 H 49.4815 1.50479 -2.09078 0
M  V30 510 H 49.4395 2.93694 -1.12211 0
M  V30 511 N 53.2116 1.57565 -0.0334293 0
M  V30 512 C 54.1436 2.0739 0.975811 0
M  V30 513 C 55.1566 0.998166 1.2861 0
M  V30 514 O 56.3456 1.27426 1.25 0
M  V30 515 C 53.4456 2.4871 2.30209 0
M  V30 516 C 52.6186 3.79413 2.17634 0
M  V30 517 C 51.6776 4.07237 3.33233 0
M  V30 518 O 50.7036 4.77425 3.09927 0
M  V30 519 N 51.9056 3.5775 4.5716 0
M  V30 520 H 54.6706 2.94598 0.55066 0
M  V30 521 H 52.2316 1.61173 0.15323 0
M  V30 522 H 54.2236 2.64413 3.06378 0
M  V30 523 H 52.7936 1.66845 2.64351 0
M  V30 524 H 52.0136 3.73465 1.26165 0
M  V30 525 H 53.3016 4.65038 2.0644 0
M  V30 526 H 52.6996 3.00976 4.78989 0
M  V30 527 H 51.2566 3.78724 5.30482 0
M  V30 528 N 54.6897 -0.239769 1.55765 0
M  V30 529 C 55.6227 -1.32356 1.85895 0
M  V30 530 C 56.6007 -1.46053 0.714662 0
M  V30 531 O 57.7847 -1.62154 0.961157 0
M  V30 532 C 54.9117 -2.6962 2.04994 0
M  V30 533 C 53.9577 -2.73036 3.27648 0
M  V30 534 S 54.7907 -2.28929 4.84099 0
M  V30 535 C 55.9467 -3.68103 5.06212 0
M  V30 536 H 56.1797 -1.06601 2.77531 0
M  V30 537 H 53.7127 -0.441112 1.47965 0
M  V30 538 H 55.6707 -3.48653 2.16682 0
M  V30 539 H 54.3317 -2.92609 1.14188 0
M  V30 540 H 53.5247 -3.7386 3.38 0
M  V30 541 H 53.1267 -2.02052 3.14723 0
M  V30 542 H 55.4187 -4.63656 4.93993 0
M  V30 543 H 56.3617 -3.6268 6.08168 0
M  V30 544 H 56.7697 -3.60947 4.34025 0
M  V30 545 N 56.1678 -1.49265 -0.50573 0
M  V30 546 C 57.1158 -1.66065 -1.62866 0
M  V30 547 C 58.1098 -0.526636 -1.61006 0
M  V30 548 O 59.3158 -0.706126 -1.65571 0
M  V30 549 H 55.6908 -0.52356 -0.539805 0
M  V30 550 H 57.6618 -2.60329 -1.45848 0
M  V30 551 C 56.4108 -1.74008 -3.01026 0
M  V30 552 H 55.7338 -2.6064 -3.03161 0
M  V30 553 H 57.1738 -1.89798 -3.79147 0
M  V30 554 C 55.6328 -0.483868 -3.33407 0
M  V30 555 O 56.1628 0.392548 -3.99777 0
M  V30 556 N 54.3688 -0.348236 -2.88506 0
M  V30 557 H 53.9158 -1.06242 -2.34671 0
M  V30 558 H 53.8738 0.491204 -3.10539 0
M  V30 559 N 57.6459 0.756429 -1.3826 0
M  V30 560 C 59.0569 1.33359 -1.30661 0
M  V30 561 C 59.4079 1.96161 0.0388875 0
M  V30 562 O 58.5329 1.94874 0.940918 0
M  V30 563 C 59.1279 2.42477 -2.36622 0
M  V30 564 C 57.6869 2.95922 -2.3261 0
M  V30 565 C 56.8339 1.69275 -2.19639 0
M  V30 566 H 59.7849 0.55552 -1.4866 0
M  V30 567 H 59.8059 3.22345 -2.02174 0
M  V30 568 H 59.3179 1.96739 -3.34538 0
M  V30 569 H 57.4189 3.45996 -1.38267 0
M  V30 570 H 57.5319 3.50494 -3.26636 0
M  V30 571 H 55.8959 1.92793 -1.66442 0
M  V30 572 H 56.6789 1.25619 -3.19491 0
M  V30 573 N 59.124 1.23083 0.984299 0
M  V30 574 C 60.349 1.088 1.76571 0
M  V30 575 C 60.774 -0.356657 1.84688 0
M  V30 576 O 60.132 -1.25788 1.30565 0
M  V30 577 C 60.18 1.71371 3.17277 0
M  V30 578 O 59.284 0.973213 4.00752 0
M  V30 579 H 58.625 0.381599 0.543395 0
M  V30 580 H 61.155 1.63057 1.23587 0
M  V30 581 H 61.165 1.76449 3.67872 0
M  V30 582 H 59.84 2.76493 3.10684 0
M  V30 583 H 58.417 0.999078 3.59267 0
M  V30 584 N 60.6021 -1.18246 1.0419 0
M  V30 585 C 61.5651 -2.20128 0.638452 0
M  V30 586 C 62.5651 -1.57885 -0.304805 0
M  V30 587 O 63.7551 -1.73967 -0.0900369 0
M  V30 588 C 60.8871 -3.4084 -0.0637751 0
M  V30 589 H 62.0801 -2.57336 1.54007 0
M  V30 590 H 59.6331 -1.32152 0.834598 0
M  V30 591 H 60.3681 -3.09166 -0.979136 0
M  V30 592 H 60.1531 -3.8726 0.614198 0
M  V30 593 H 61.6431 -4.16274 -0.332512 0
M  V30 594 N 62.0802 -0.821533 -1.34494 0
M  V30 595 C 63.3572 -0.33159 -1.92769 0
M  V30 596 C 63.7372 1.18088 -1.74981 0
M  V30 597 O 63.0852 1.98733 -1.12772 0
M  V30 598 C 63.2952 -0.759398 -3.40638 0
M  V30 599 C 64.6432 -0.757433 -4.1779 0
M  V30 600 O 65.6672 -0.70189 -3.49216 0
M  V30 601 O 64.5262 -0.829361 -5.4017 0
M  V30 602 H 61.6202 -0.0902502 -0.822061 0
M  V30 603 H 64.1662 -0.906231 -1.43477 0
M  V30 604 H 62.9382 -1.8012 -3.47379 0
M  V30 605 H 62.5612 -0.160378 -3.97276 0
M  V30 606 N 63.5583 1.46682 -0.576371 0
M  V30 607 C 64.8043 2.02712 -0.0596221 0
M  V30 608 C 65.1373 1.44765 1.29448 0
M  V30 609 O 64.4123 0.610355 1.84675 0
M  V30 610 C 64.6953 3.60098 0.0129503 0
M  V30 611 C 64.5483 4.28441 -1.3696 0
M  V30 612 C 65.8673 4.34224 0.71678 0
M  V30 613 H 62.9863 0.736637 -0.0231407 0
M  V30 614 H 65.6283 1.74898 -0.742351 0
M  V30 615 H 63.7783 3.83926 0.594378 0
M  V30 616 H 65.4503 4.15896 -1.9957 0
M  V30 617 H 63.6933 3.8805 -1.93907 0
M  V30 618 H 64.3643 5.3716 -1.27135 0
M  V30 619 H 66.8403 4.15503 0.222908 0
M  V30 620 H 65.7163 5.43936 0.73657 0
M  V30 621 H 65.9773 4.04823 1.77682 0
M  V30 622 N 65.0364 0.313813 1.54444 0
M  V30 623 C 65.9684 -0.590425 2.21465 0
M  V30 624 C 66.9814 -1.08753 1.21147 0
M  V30 625 O 68.1704 -1.00278 1.4767 0
M  V30 626 C 65.2704 -1.82179 2.85769 0
M  V30 627 C 64.4434 -1.46502 4.12136 0
M  V30 628 C 63.5024 -2.55288 4.60124 0
M  V30 629 O 62.5284 -2.19842 5.25032 0
M  V30 630 N 63.7304 -3.86053 4.33525 0
M  V30 631 H 66.4954 -0.0166033 2.99695 0
M  V30 632 H 64.0564 0.136578 1.61323 0
M  V30 633 H 66.0484 -2.54328 3.14801 0
M  V30 634 H 64.6184 -2.30369 2.11303 0
M  V30 635 H 63.8384 -0.575595 3.89975 0
M  V30 636 H 65.1264 -1.20221 4.94393 0
M  V30 637 H 64.5244 -4.17654 3.81552 0
M  V30 638 H 63.0814 -4.54461 4.67235 0
M  V30 639 N 66.5145 -1.57545 0.0417849 0
M  V30 640 C 67.4775 -2.09885 -0.92093 0
M  V30 641 C 68.4775 -1.01648 -1.24596 0
M  V30 642 O 69.6675 -1.27759 -1.1842 0
M  V30 643 C 66.7995 -2.57527 -2.23367 0
M  V30 644 H 67.9925 -2.96236 -0.467382 0
M  V30 645 H 65.5455 -1.5493 -0.206467 0
M  V30 646 H 66.2805 -1.74542 -2.73323 0
M  V30 647 H 66.0655 -3.36613 -2.01083 0
M  V30 648 H 67.5555 -2.98201 -2.92346 0
M  V30 649 N 67.9926 0.231505 -1.5589 0
M  V30 650 C 68.9226 1.29022 -1.94617 0
M  V30 651 C 69.9036 1.4941 -0.813067 0
M  V30 652 O 71.0886 1.6176 -1.07459 0
M  V30 653 C 68.2186 2.64199 -2.25424 0
M  V30 654 C 67.1726 2.58484 -3.41131 0
M  V30 655 C 66.4986 3.97599 -3.57518 0
M  V30 656 C 67.7986 2.1413 -4.76388 0
M  V30 657 H 69.4926 0.968563 -2.83301 0
M  V30 658 H 67.0386 0.464479 -1.36303 0
M  V30 659 H 68.9916 3.38413 -2.51107 0
M  V30 660 H 67.7156 2.98032 -1.33583 0
M  V30 661 H 66.3746 1.86727 -3.15481 0
M  V30 662 H 66.0226 4.28723 -2.6307 0
M  V30 663 H 65.7226 3.94659 -4.35337 0
M  V30 664 H 67.2466 4.7349 -3.85538 0
M  V30 665 H 68.6606 2.78083 -5.01341 0
M  V30 666 H 67.0576 2.2227 -5.57419 0
M  V30 667 H 68.1276 1.09331 -4.72414 0
M  V30 668 N 69.4707 1.49531 0.497807 0
M  V30 669 C 70.4337 1.65916 1.58128 0
M  V30 670 C 71.4337 0.530825 1.51786 0
M  V30 671 O 72.6237 0.797342 1.54881 0
M  V30 672 C 69.7557 1.65951 2.9778 0
M  V30 673 H 70.9487 2.62556 1.44929 0
M  V30 674 H 68.5017 1.38611 0.722275 0
M  V30 675 H 69.2367 0.709065 3.16453 0
M  V30 676 H 69.0217 2.47897 3.03792 0
M  V30 677 H 70.5117 1.80673 3.76493 0
M  V30 678 N 70.9488 -0.749086 1.3866 0
M  V30 679 C 72.1738 -1.54344 1.38538 0
M  V30 680 C 72.5988 -1.88088 -0.0216655 0
M  V30 681 O 71.9568 -1.50899 -1.00494 0
M  V30 682 C 72.0048 -2.8164 2.25192 0
M  V30 683 O 71.1088 -3.7698 1.67212 0
M  V30 684 H 70.4498 -0.466654 0.472367 0
M  V30 685 H 72.9798 -0.925355 1.82478 0
M  V30 686 H 72.9898 -3.30519 2.3921 0
M  V30 687 H 71.6648 -2.56411 3.27454 0
M  V30 688 H 70.2418 -3.35699 1.6236 0
M  V30 689 N 72.4269 -1.23603 -0.977757 0
M  V30 690 C 73.6759 -1.06377 -1.71368 0
M  V30 691 C 73.9889 0.399062 -1.91486 0
M  V30 692 O 75.1949 0.691312 -2.62551 0
M  V30 693 C 73.6509 -1.85512 -3.08404 0
M  V30 694 C 73.2589 -3.36141 -2.96164 0
M  V30 695 C 75.0029 -1.76783 -3.85938 0
M  V30 696 C 72.9099 -4.07659 -4.28449 0
M  V30 697 H 71.8399 -0.394452 -0.642591 0
M  V30 698 H 74.4909 -1.47594 -1.09034 0
M  V30 699 H 72.8729 -1.37103 -3.71509 0
M  V30 700 H 74.0469 -3.92056 -2.42133 0
M  V30 701 H 72.3619 -3.45712 -2.32104 0
M  V30 702 H 74.9589 -2.27526 -4.83876 0
M  V30 703 H 75.3019 -0.731116 -4.0983 0
M  V30 704 H 75.8349 -2.22818 -3.2954 0
M  V30 705 H 72.5739 -5.11648 -4.09752 0
M  V30 706 H 72.0939 -3.5653 -4.82334 0
M  V30 707 H 73.7729 -4.141 -4.97122 0
M  V30 708 N 73.905 1.17692 -1.04816 0
M  V30 709 C 75.152 1.87859 -0.75599 0
M  V30 710 C 75.48 1.80812 0.716752 0
M  V30 711 O 74.735 1.20819 1.53952 0
M  V30 712 C 75.034 3.37462 -1.17703 0
M  V30 713 C 74.7 3.64713 -2.65133 0
M  V30 714 C 73.362 3.71859 -3.05408 0
M  V30 715 C 75.714 3.76492 -3.60421 0
M  V30 716 C 73.042 3.88271 -4.39843 0
M  V30 717 C 75.394 3.94421 -4.94585 0
M  V30 718 C 74.058 3.99806 -5.3452 0
M  V30 719 H 73.328 0.687425 -0.276636 0
M  V30 720 H 75.975 1.39255 -1.31455 0
M  V30 721 H 74.28 3.88097 -0.537395 0
M  V30 722 H 75.977 3.90109 -0.928218 0
M  V30 723 H 72.567 3.59772 -2.32942 0
M  V30 724 H 76.751 3.70295 -3.30447 0
M  V30 725 H 72.007 3.90687 -4.70291 0
M  V30 726 H 76.181 4.02477 -5.68318 0
M  V30 727 H 73.808 4.12276 -6.38696 0
M  V30 728 N 75.3831 0.828654 1.34056 0
M  V30 729 C 76.6291 0.42008 1.98402 0
M  V30 730 C 76.9621 -1.01564 1.65525 0
M  V30 731 O 76.2371 -1.70834 0.929831 0
M  V30 732 C 76.5201 0.62927 3.54559 0
M  V30 733 C 76.3731 2.11152 3.97159 0
M  V30 734 C 77.6921 0.0688756 4.40046 0
M  V30 735 H 74.8111 0.154104 0.720709 0
M  V30 736 H 77.4531 1.04228 1.5886 0
M  V30 737 H 75.6031 0.0996418 3.88372 0
M  V30 738 H 77.2751 2.70522 3.73651 0
M  V30 739 H 75.5181 2.59985 3.47261 0
M  V30 740 H 76.1891 2.20868 5.05887 0
M  V30 741 H 78.6651 0.521458 4.1282 0
M  V30 742 H 77.5411 0.245006 5.48353 0
M  V30 743 H 77.8021 -1.0266 4.30015 0
M  V30 744 N 76.8612 -1.46375 0.584142 0
M  V30 745 C 78.1382 -1.956 0.0033388 0
M  V30 746 C 78.5182 -1.52679 -1.45782 0
M  V30 747 O 77.8662 -0.77816 -2.14842 0
M  V30 748 C 78.0762 -3.48551 0.176891 0
M  V30 749 C 79.4242 -4.24576 0.0454609 0
M  V30 750 O 80.4482 -3.56043 0.105801 0
M  V30 751 O 79.3072 -5.46427 -0.0890376 0
M  V30 752 H 76.4012 -0.825547 -0.0490066 0
M  V30 753 H 78.9472 -1.56652 0.65256 0
M  V30 754 H 77.7192 -3.72683 1.1926 0
M  V30 755 H 77.3422 -3.94332 -0.508695 0
M  V30 756 N 78.3393 -0.321999 -1.54275 0
M  V30 757 C 79.5853 0.281461 -2.00837 0
M  V30 758 C 79.9183 1.51909 -1.20985 0
M  V30 759 O 79.1933 1.923 -0.291733 0
M  V30 760 C 79.4763 0.617162 -3.54772 0
M  V30 761 C 79.3293 -0.631064 -4.45351 0
M  V30 762 C 80.6483 1.43542 -4.16033 0
M  V30 763 H 77.7673 0.100826 -0.730071 0
M  V30 764 H 80.4093 -0.438268 -1.84876 0
M  V30 765 H 78.5593 1.23034 -3.68504 0
M  V30 766 H 80.2313 -1.26934 -4.43492 0
M  V30 767 H 78.4743 -1.26025 -4.15091 0
M  V30 768 H 79.1453 -0.351735 -5.50878 0
M  V30 769 H 81.6213 0.917134 -4.05867 0
M  V30 770 H 80.4973 1.63907 -5.23856 0
M  V30 771 H 80.7583 2.43108 -3.69257 0
M  V30 772 N 79.8174 1.5752 -0.0501392 0
M  V30 773 C 81.0424 1.97376 0.636997 0
M  V30 774 C 81.4674 0.927466 1.63645 0
M  V30 775 O 80.8254 -0.10941 1.8097 0
M  V30 776 C 80.8734 3.36304 1.30123 0
M  V30 777 O 79.9774 3.34156 2.41689 0
M  V30 778 H 79.3184 0.642998 0.165679 0
M  V30 779 H 81.8484 2.04258 -0.118233 0
M  V30 780 H 81.8584 3.73008 1.65315 0
M  V30 781 H 80.5334 4.11993 0.568746 0
M  V30 782 H 79.1104 3.09196 2.08451 0
M  V30 783 N 81.2955 -0.223234 1.56011 0
M  V30 784 C 82.5205 -0.968978 1.83373 0
M  V30 785 C 82.9455 -1.77227 0.630254 0
M  V30 786 O 82.3035 -1.76345 -0.420959 0
M  V30 787 C 82.3515 -1.86363 3.08709 0
M  V30 788 O 81.4555 -2.95873 2.87285 0
M  V30 789 H 80.7965 -0.274461 0.604622 0
M  V30 790 H 83.3265 -0.237056 2.03222 0
M  V30 791 H 83.3365 -2.27376 3.38768 0
M  V30 792 H 82.0115 -1.27319 3.95933 0
M  V30 793 H 80.5885 -2.58818 2.68454 0
M  V30 794 N 82.7736 -1.49793 -0.48987 0
M  V30 795 C 84.0196 -1.60078 -1.24511 0
M  V30 796 C 84.3526 -0.291608 -1.91998 0
M  V30 797 O 83.6276 0.705647 -1.81248 0
M  V30 798 C 83.9106 -2.76791 -2.30345 0
M  V30 799 C 83.7636 -4.17535 -1.67286 0
M  V30 800 C 85.0826 -2.89111 -3.31817 0
M  V30 801 H 82.2016 -0.582645 -0.451324 0
M  V30 802 H 84.8436 -1.82117 -0.541612 0
M  V30 803 H 82.9936 -2.5813 -2.90346 0
M  V30 804 H 84.6656 -4.4774 -1.11026 0
M  V30 805 H 82.9086 -4.22665 -0.976577 0
M  V30 806 H 83.5796 -4.95094 -2.44103 0
M  V30 807 H 86.0556 -3.06133 -2.81819 0
M  V30 808 H 84.9316 -3.72433 -4.03219 0
M  V30 809 H 85.1926 -1.9893 -3.94815 0
M  V30 810 N 84.2517 0.741722 -1.39055 0
M  V30 811 C 85.1617 1.88621 -1.39496 0
M  V30 812 C 86.1777 1.71557 -0.290578 0
M  V30 813 O 87.3537 1.94275 -0.530954 0
M  V30 814 C 84.4187 3.24134 -1.23037 0
M  V30 815 C 83.4797 3.5364 -2.43387 0
M  V30 816 C 82.7127 4.82687 -2.27703 0
M  V30 817 O 82.9357 5.55922 -1.27696 0
M  V30 818 O 81.8697 5.1194 -3.16545 0
M  V30 819 H 85.6957 1.91203 -2.35956 0
M  V30 820 H 83.2807 0.888625 -1.20099 0
M  V30 821 H 85.1627 4.0513 -1.15964 0
M  V30 822 H 83.8377 3.22337 -0.296691 0
M  V30 823 H 82.7447 2.72758 -2.56035 0
M  V30 824 H 84.0777 3.60209 -3.35425 0
M  V30 825 N 85.7298 1.2412 0.971189 0
M  V30 826 C 87.1408 1.07236 1.52831 0
M  V30 827 C 87.4918 -0.357352 1.92918 0
M  V30 828 O 86.6168 -1.24528 1.76979 0
M  V30 829 C 87.2118 1.94043 2.77728 0
M  V30 830 C 85.7708 1.81394 3.29808 0
M  V30 831 C 84.9178 1.89189 2.02738 0
M  V30 832 H 87.8688 1.37648 0.789864 0
M  V30 833 H 87.8898 1.47066 3.5093 0
M  V30 834 H 87.4018 2.98093 2.4852 0
M  V30 835 H 85.5028 0.801634 3.63874 0
M  V30 836 H 85.6158 2.65294 3.98944 0
M  V30 837 H 83.9798 1.32877 2.17292 0
M  V30 838 H 84.7628 2.94812 1.759 0
M  V30 839 N 87.2079 -1.17134 1.05439 0
M  V30 840 C 88.4559 -1.87085 0.764429 0
M  V30 841 C 88.7769 -1.81584 -0.710787 0
M  V30 842 O 88.0469 -1.24349 -1.51374 0
M  V30 843 H 86.6269 -0.692627 0.279779 0
M  V30 844 H 89.2889 -1.42087 1.33406 0
M  V30 845 H 88.3849 -2.92759 1.0816 0
M  V30 846 N 88.686 -0.835752 -1.33615 0
M  V30 847 C 89.932 -0.430596 -1.98176 0
M  V30 848 C 90.265 1.00684 -1.66061 0
M  V30 849 O 89.54 1.70339 -0.938877 0
M  V30 850 C 89.823 -0.648065 -3.5422 0
M  V30 851 C 89.676 -2.13255 -3.96033 0
M  V30 852 C 90.995 -0.0922113 -4.40003 0
M  V30 853 H 88.114 -0.157924 -0.719881 0
M  V30 854 H 90.756 -1.05069 -1.58305 0
M  V30 855 H 88.906 -0.120237 -3.88314 0
M  V30 856 H 90.578 -2.725 -3.72211 0
M  V30 857 H 88.821 -2.61823 -3.45878 0
M  V30 858 H 89.492 -2.23547 -5.04708 0
M  V30 859 H 91.968 -0.543343 -4.12537 0
M  V30 860 H 90.844 -0.274083 -5.48215 0
M  V30 861 H 91.105 1.00378 -4.30554 0
M  V30 862 N 90.1641 1.46063 -0.591896 0
M  V30 863 C 91.0961 2.28539 0.174001 0
M  V30 864 C 92.1091 1.39047 0.846753 0
M  V30 865 O 93.2981 1.63564 0.714774 0
M  V30 866 C 90.3981 3.14347 1.26645 0
M  V30 867 C 89.5711 4.32021 0.683856 0
M  V30 868 C 88.6301 4.99157 1.66518 0
M  V30 869 O 87.6561 5.56458 1.19763 0
M  V30 870 N 88.8581 4.97005 2.99943 0
M  V30 871 H 91.6231 2.94911 -0.533633 0
M  V30 872 H 89.1841 1.56077 -0.430294 0
M  V30 873 H 91.1761 3.56125 1.92242 0
M  V30 874 H 89.7461 2.49988 1.87682 0
M  V30 875 H 88.9661 3.93915 -0.1498 0
M  V30 876 H 90.2541 5.08059 0.274567 0
M  V30 877 H 89.6521 4.51714 3.40545 0
M  V30 878 H 88.2091 5.42696 3.61004 0
M  V30 879 N 91.6422 0.330177 1.54103 0
M  V30 880 C 92.5722 -0.525353 2.27513 0
M  V30 881 C 93.5532 -1.11383 1.2856 0
M  V30 882 O 94.7382 -1.13773 1.57383 0
M  V30 883 C 91.8682 -1.6831 3.03791 0
M  V30 884 C 90.8222 -1.2236 4.10137 0
M  V30 885 C 90.1482 -2.46882 4.74293 0
M  V30 886 C 91.4482 -0.333697 5.21233 0
M  V30 887 H 93.1422 0.087013 2.99274 0
M  V30 888 H 90.6882 0.0432893 1.43935 0
M  V30 889 H 92.6412 -2.28795 3.5388 0
M  V30 890 H 91.3652 -2.32216 2.29659 0
M  V30 891 H 90.0242 -0.64165 3.60941 0
M  V30 892 H 89.6722 -3.09165 3.96769 0
M  V30 893 H 89.3722 -2.16825 5.46133 0
M  V30 894 H 90.8962 -3.08117 5.27159 0
M  V30 895 H 92.3102 -0.845013 5.67038 0
M  V30 896 H 90.7072 -0.125612 5.99969 0
M  V30 897 H 91.7772 0.633724 4.80741 0
M  V30 898 N 93.1203 -1.57491 0.0584922 0
M  V30 899 C 94.3483 -1.97296 -0.623037 0
M  V30 900 C 94.7633 -0.936338 -1.63946 0
M  V30 901 O 94.1203 0.0785981 -1.82331 0
M  V30 902 C 94.1713 -3.37183 -1.30345 0
M  V30 903 O 93.8923 -4.36872 -0.32773 0
M  V30 904 C 95.3933 -3.91788 -2.07406 0
M  V30 905 H 92.6133 -0.649153 -0.169826 0
M  V30 906 H 95.1573 -2.04106 0.12696 0
M  V30 907 H 93.3123 -3.31502 -2.00463 0
M  V30 908 H 93.7263 -5.18141 -0.814269 0
M  V30 909 H 95.2003 -4.91926 -2.50425 0
M  V30 910 H 95.6773 -3.27609 -2.92521 0
M  V30 911 H 96.2833 -4.00829 -1.42184 0
M  V30 912 N 94.5984 0.214957 -1.56127 0
M  V30 913 C 95.8444 0.939762 -1.79712 0
M  V30 914 C 96.1774 1.83723 -0.629247 0
M  V30 915 O 95.4524 1.90925 0.371197 0
M  V30 916 C 95.7354 1.77306 -3.13424 0
M  V30 917 C 95.5884 0.90164 -4.40671 0
M  V30 918 C 96.9074 2.74956 -3.43638 0
M  V30 919 H 94.0264 0.340214 -0.653776 0
M  V30 920 H 96.6684 0.20824 -1.88855 0
M  V30 921 H 94.8184 2.39673 -3.0576 0
M  V30 922 H 96.4904 0.294206 -4.60361 0
M  V30 923 H 94.7334 0.207368 -4.33304 0
M  V30 924 H 95.4044 1.51923 -5.30682 0
M  V30 925 H 97.8804 2.22724 -3.51473 0
M  V30 926 H 96.7564 3.30358 -4.38355 0
M  V30 927 H 97.0174 3.53023 -2.66134 0
M  V30 928 N 96.0765 1.50051 0.48192 0
M  V30 929 C 97.0235 1.68122 1.58125 0
M  V30 930 C 97.9935 0.522545 1.57666 0
M  V30 931 O 99.1785 0.751844 1.75362 0
M  V30 932 C 96.3185 1.77142 2.96167 0
M  V30 933 C 95.4315 3.0444 3.06497 0
M  V30 934 C 94.5665 3.04321 4.35387 0
M  V30 935 C 93.6055 4.26118 4.3942 0
M  V30 936 N 92.7425 4.238 5.59766 0
M  V30 937 H 97.5825 2.6198 1.42022 0
M  V30 938 H 95.1195 1.29877 0.690687 0
M  V30 939 H 97.0775 1.80352 3.76203 0
M  V30 940 H 95.7075 0.867329 3.1093 0
M  V30 941 H 94.7595 3.10752 2.19402 0
M  V30 942 H 96.0715 3.94426 3.05336 0
M  V30 943 H 95.2255 3.062 5.23762 0
M  V30 944 H 93.9645 2.12147 4.39141 0
M  V30 945 H 92.9695 4.24463 3.49444 0
M  V30 946 H 94.1945 5.19507 4.37366 0
M  V30 947 H 92.1405 3.34474 5.64326 0
M  V30 948 H 92.0575 5.07542 5.60301 0
M  V30 949 H 93.3255 4.2981 6.50295 0
M  V30 950 N 97.5546 -0.734337 1.39446 0
M  V30 951 C 98.8016 -1.49391 1.36706 0
M  V30 952 C 99.1296 -1.94465 -0.0367813 0
M  V30 953 O 98.3846 -1.67154 -1.01774 0
M  V30 954 C 98.6836 -2.74711 2.28623 0
M  V30 955 C 98.3496 -2.48501 3.76242 0
M  V30 956 C 97.0116 -2.41062 4.16464 0
M  V30 957 C 99.3636 -2.26098 4.69606 0
M  V30 958 C 96.6916 -2.09262 5.48112 0
M  V30 959 C 99.0436 -1.95814 6.01531 0
M  V30 960 C 97.7076 -1.86845 6.40816 0
M  V30 961 H 96.9776 -0.546661 0.500243 0
M  V30 962 H 99.6246 -0.842788 1.71957 0
M  V30 963 H 97.9296 -3.44569 1.86492 0
M  V30 964 H 99.6266 -3.32741 2.23796 0
M  V30 965 H 96.2166 -2.55169 3.44364 0
M  V30 966 H 100.401 -2.30812 4.39363 0
M  V30 967 H 95.6566 -2.00841 5.77471 0
M  V30 968 H 99.8306 -1.77488 6.73403 0
M  V30 969 H 97.4576 -1.6197 7.42745 0
M  V30 970 N 99.0327 -1.24633 -0.964593 0
M  V30 971 C 99.9627 -1.06611 -2.07741 0
M  V30 972 C 100.944 0.0218666 -1.70086 0
M  V30 973 O 102.129 -0.145793 -1.93652 0
M  V30 974 C 99.2587 -0.673444 -3.40708 0
M  V30 975 C 98.2127 -1.71054 -3.92332 0
M  V30 976 C 97.5387 -1.17285 -5.21678 0
M  V30 977 C 98.8387 -3.10718 -4.19824 0
M  V30 978 H 100.533 -1.99693 -2.23076 0
M  V30 979 H 98.0787 -0.96152 -1.07195 0
M  V30 980 H 100.032 -0.534345 -4.17998 0
M  V30 981 H 98.7557 0.293073 -3.25282 0
M  V30 982 H 97.4147 -1.83791 -3.17201 0
M  V30 983 H 97.0627 -0.196847 -5.02615 0
M  V30 984 H 96.7627 -1.86592 -5.57187 0
M  V30 985 H 98.2867 -1.04593 -6.01575 0
M  V30 986 H 99.7007 -3.01192 -4.87808 0
M  V30 987 H 98.0977 -3.77406 -4.66567 0
M  V30 988 H 99.1677 -3.58524 -3.26479 0
M  V30 989 N 100.511 1.16574 -1.06058 0
M  V30 990 C 101.759 1.86677 -0.77434 0
M  V30 991 C 102.08 1.81959 0.701147 0
M  V30 992 O 101.35 1.2515 1.50713 0
M  V30 993 H 99.9298 0.691134 -0.283449 0
M  V30 994 H 102.592 1.41378 -1.34158 0
M  V30 995 H 101.688 2.92181 -1.09711 0
M  V30 996 N 101.989 0.842826 1.3317 0
M  V30 997 C 102.936 0.276885 2.29133 0
M  V30 998 C 103.906 -0.609527 1.54512 0
M  V30 999 O 105.091 -0.546955 1.82792 0
M  V30 1000 C 102.231 -0.538707 3.40869 0
M  V30 1001 C 101.344 0.372169 4.30394 0
M  V30 1002 C 100.479 -0.454908 5.29249 0
M  V30 1003 C 99.5179 0.45411 6.10413 0
M  V30 1004 N 98.6549 -0.335075 7.013 0
M  V30 1005 H 103.495 1.10052 2.76934 0
M  V30 1006 H 101.032 0.554161 1.36262 0
M  V30 1007 H 102.99 -1.02709 4.0436 0
M  V30 1008 H 101.62 -1.32727 2.9425 0
M  V30 1009 H 100.672 0.97888 3.6759 0
M  V30 1010 H 101.984 1.0703 4.87182 0
M  V30 1011 H 101.138 -1.00695 5.98285 0
M  V30 1012 H 99.8769 -1.18646 4.73048 0
M  V30 1013 H 98.8819 1.01813 5.40291 0
M  V30 1014 H 100.107 1.18409 6.68697 0
M  V30 1015 H 98.0529 -1.04994 6.47543 0
M  V30 1016 H 97.9699 0.304262 7.55387 0
M  V30 1017 H 99.2379 -0.869224 7.74638 0
M  V30 1018 N 103.467 -1.45747 0.599634 0
M  V30 1019 C 104.878 -1.85853 0.177681 0
M  V30 1020 C 105.229 -1.50102 -1.26348 0
M  V30 1021 O 104.354 -0.923905 -1.95686 0
M  V30 1022 C 104.949 -3.37326 0.315688 0
M  V30 1023 C 103.508 -3.76365 -0.0515144 0
M  V30 1024 C 102.655 -2.69722 0.643822 0
M  V30 1025 H 105.606 -1.36661 0.806814 0
M  V30 1026 H 105.627 -3.77778 -0.454321 0
M  V30 1027 H 105.139 -3.63315 1.36468 0
M  V30 1028 H 103.24 -3.55993 -1.09999 0
M  V30 1029 H 103.353 -4.77916 0.336594 0
M  V30 1030 H 101.717 -2.54567 0.0822881 0
M  V30 1031 H 102.5 -2.98549 1.6948 0
M  V30 1032 N 104.945 -0.338344 -1.53925 0
M  V30 1033 C 106.194 0.260732 -2.00008 0
M  V30 1034 C 106.507 1.52073 -1.23017 0
M  V30 1035 O 107.713 2.19672 -1.5955 0
M  V30 1036 C 106.169 0.51515 -3.56194 0
M  V30 1037 C 105.777 -0.728645 -4.42035 0
M  V30 1038 C 107.521 1.07337 -4.10706 0
M  V30 1039 C 105.428 -0.445315 -5.89721 0
M  V30 1040 H 104.358 0.101205 -0.747177 0
M  V30 1041 H 107.009 -0.452866 -1.77824 0
M  V30 1042 H 105.391 1.28932 -3.74423 0
M  V30 1043 H 106.565 -1.50352 -4.35581 0
M  V30 1044 H 104.88 -1.20813 -3.98489 0
M  V30 1045 H 107.477 1.30022 -5.18651 0
M  V30 1046 H 107.82 2.0273 -3.63602 0
M  V30 1047 H 108.353 0.360034 -3.96167 0
M  V30 1048 H 105.092 -1.36883 -6.41049 0
M  V30 1049 H 104.612 0.291569 -5.99091 0
M  V30 1050 H 106.291 -0.0606218 -6.46972 0
M  V30 1051 N 106.423 1.57458 -0.0668435 0
M  V30 1052 C 107.67 1.93301 0.603406 0
M  V30 1053 C 107.998 0.946486 1.69917 0
M  V30 1054 O 107.253 -0.0387021 1.95662 0
M  V30 1055 C 107.552 3.35784 1.22409 0
M  V30 1056 C 107.218 4.50179 0.254955 0
M  V30 1057 C 105.88 4.81199 -0.0116746 0
M  V30 1058 C 108.232 5.19598 -0.408338 0
M  V30 1059 C 105.56 5.78978 -0.94877 0
M  V30 1060 C 107.912 6.18381 -1.33372 0
M  V30 1061 C 106.576 6.47821 -1.60887 0
M  V30 1062 H 105.846 0.707338 0.220802 0
M  V30 1063 H 108.493 1.91012 -0.136665 0
M  V30 1064 H 106.798 3.34515 2.03978 0
M  V30 1065 H 108.495 3.60804 1.74989 0
M  V30 1066 H 105.085 4.25983 0.472954 0
M  V30 1067 H 109.269 4.95832 -0.215456 0
M  V30 1068 H 104.525 6.00115 -1.16925 0
M  V30 1069 H 108.699 6.71277 -1.85367 0
M  V30 1070 H 106.326 7.23399 -2.33661 0
M  V30 1071 N 107.901 -0.206675 1.56239 0
M  V30 1072 C 109.15 -0.926964 1.79138 0
M  V30 1073 C 109.463 -1.84901 0.638043 0
M  V30 1074 O 110.669 -2.60906 0.751033 0
M  V30 1075 C 109.125 -1.6986 3.17294 0
M  V30 1076 C 108.733 -0.821956 4.40395 0
M  V30 1077 C 110.477 -2.40922 3.4951 0
M  V30 1078 C 108.384 -1.59179 5.69575 0
M  V30 1079 H 107.314 -0.349864 0.667915 0
M  V30 1080 H 109.965 -0.180487 1.8261 0
M  V30 1081 H 108.347 -2.48853 3.08039 0
M  V30 1082 H 109.521 -0.0715019 4.60745 0
M  V30 1083 H 107.836 -0.222741 4.15804 0
M  V30 1084 H 110.433 -2.99047 4.43255 0
M  V30 1085 H 110.776 -3.14542 2.72707 0
M  V30 1086 H 111.309 -1.68905 3.60161 0
M  V30 1087 H 108.048 -0.898589 6.49312 0
M  V30 1088 H 107.568 -2.31648 5.53262 0
M  V30 1089 H 109.247 -2.14862 6.10281 0
M  V30 1090 N 109.379 -1.50304 -0.473955 0
M  V30 1091 C 110.795 -1.37667 -0.807466 0
M  V30 1092 C 110.995 -0.430555 -1.96846 0
M  V30 1093 O 110.051 0.127874 -2.52176 0
M  V30 1094 C 111.364 -2.78974 -1.12223 0
M  V30 1095 C 112.912 -2.87868 -1.22885 0
M  V30 1096 C 113.387 -4.30003 -1.57676 0
M  V30 1097 N 114.878 -4.3294 -1.64673 0
M  V30 1098 C 115.613 -5.3991 -1.93091 0
M  V30 1099 N 115.109 -6.57092 -2.1955 0
M  V30 1100 N 116.902 -5.27351 -1.94569 0
M  V30 1101 H 109.053 -2.10394 0.291212 0
M  V30 1102 H 111.316 -0.945575 0.0677609 0
M  V30 1103 H 111.022 -3.50031 -0.342229 0
M  V30 1104 H 110.896 -3.16038 -2.05913 0
M  V30 1105 H 113.283 -2.17032 -1.99953 0
M  V30 1106 H 113.364 -2.54352 -0.271814 0
M  V30 1107 H 113.008 -5.01375 -0.81149 0
M  V30 1108 H 112.938 -4.61004 -2.54525 0
M  V30 1109 H 115.429 -3.48441 -1.46277 0
M  V30 1110 H 115.742 -7.34425 -2.405 0
M  V30 1111 H 114.087 -6.60272 -2.16948 0
M  V30 1112 H 117.278 -4.34801 -1.73394 0
M  V30 1113 H 117.451 -6.10805 -2.16381 0
M  V30 1114 N 110.857 0.726932 -1.39834 0
M  V30 1115 C 112.273 1.03354 -1.21615 0
M  V30 1116 C 112.473 2.01327 -0.08338 0
M  V30 1117 O 111.529 2.46158 0.56238 0
M  V30 1118 C 112.842 1.58811 -2.55342 0
M  V30 1119 C 114.39 1.70851 -2.62257 0
M  V30 1120 C 114.865 2.29716 -3.96225 0
M  V30 1121 N 116.356 2.37116 -3.97907 0
M  V30 1122 C 117.091 2.83619 -4.98345 0
M  V30 1123 N 116.587 3.29958 -6.09179 0
M  V30 1124 N 118.38 2.82901 -4.8572 0
M  V30 1125 H 110.531 0.0773069 -2.12259 0
M  V30 1126 H 112.794 0.0969102 -0.943034 0
M  V30 1127 H 112.5 0.942855 -3.38826 0
M  V30 1128 H 112.374 2.57502 -2.75632 0
M  V30 1129 H 114.761 2.34497 -1.79152 0
M  V30 1130 H 114.842 0.707913 -2.45809 0
M  V30 1131 H 114.486 1.66696 -4.79765 0
M  V30 1132 H 114.416 3.30469 -4.09997 0
M  V30 1133 H 116.907 2.04374 -3.17868 0
M  V30 1134 H 117.22 3.63976 -6.8172 0
M  V30 1135 H 115.565 3.27946 -6.12761 0
M  V30 1136 H 118.756 2.46027 -3.98231 0
M  V30 1137 H 118.929 3.18827 -5.6414 0
M  V30 1138 N 112.336 1.25143 0.95797 0
M  V30 1139 C 113.752 1.01892 1.22842 0
M  V30 1140 C 113.952 -0.266311 1.99732 0
M  V30 1141 O 113.008 -0.979913 2.3271 0
M  V30 1142 C 114.321 2.24004 2.00606 0
M  V30 1143 C 115.869 2.28731 2.13662 0
M  V30 1144 C 116.344 3.5049 2.94823 0
M  V30 1145 N 117.835 3.50866 3.02403 0
M  V30 1146 C 118.57 4.4174 3.65586 0
M  V30 1147 N 118.066 5.42882 4.30408 0
M  V30 1148 N 119.859 4.29429 3.62694 0
M  V30 1149 H 112.01 2.07718 0.443493 0
M  V30 1150 H 114.273 0.912031 0.258657 0
M  V30 1151 H 113.979 3.17395 1.51503 0
M  V30 1152 H 113.853 2.26907 3.01319 0
M  V30 1153 H 116.24 1.35865 2.61963 0
M  V30 1154 H 116.321 2.29848 1.12265 0
M  V30 1155 H 115.965 4.43676 2.47213 0
M  V30 1156 H 115.895 3.46617 3.96439 0
M  V30 1157 H 118.386 2.777 2.56302 0
M  V30 1158 H 118.699 6.0844 4.76467 0
M  V30 1159 H 117.044 5.46758 4.29047 0
M  V30 1160 H 120.235 3.49643 3.11236 0
M  V30 1161 H 120.408 5.00448 4.1165 0
M  V30 1162 N 113.814 -1.1601 1.06675 0
M  V30 1163 C 115.042 -1.90527 0.806667 0
M  V30 1164 C 115.457 -1.77643 -0.639396 0
M  V30 1165 O 114.814 -1.12369 -1.43803 0
M  V30 1166 C 114.865 -3.41106 1.19705 0
M  V30 1167 O 114.586 -3.53608 2.58636 0
M  V30 1168 C 116.087 -4.32663 0.965266 0
M  V30 1169 H 113.307 -0.604053 0.292166 0
M  V30 1170 H 115.851 -1.47026 1.4214 0
M  V30 1171 H 114.006 -3.82296 0.626774 0
M  V30 1172 H 114.42 -4.47011 2.74375 0
M  V30 1173 H 115.894 -5.36763 1.288 0
M  V30 1174 H 116.371 -4.39089 -0.0987936 0
M  V30 1175 H 116.977 -3.97206 1.52011 0
M  V30 1176 N 115.292 -0.849877 -1.32721 0
M  V30 1177 C 116.202 -0.293791 -2.32753 0
M  V30 1178 C 117.218 0.585906 -1.63839 0
M  V30 1179 O 118.394 0.487413 -1.95413 0
M  V30 1180 C 115.459 0.512752 -3.42887 0
M  V30 1181 C 114.52 -0.39252 -4.27502 0
M  V30 1182 C 113.753 0.375625 -5.32377 0
M  V30 1183 O 113.976 1.60613 -5.4732 0
M  V30 1184 O 112.91 -0.256094 -6.01355 0
M  V30 1185 H 116.736 -1.12242 -2.82197 0
M  V30 1186 H 114.321 -0.612685 -1.36259 0
M  V30 1187 H 116.203 0.970704 -4.10067 0
M  V30 1188 H 114.878 1.31826 -2.95641 0
M  V30 1189 H 113.785 -0.898547 -3.63149 0
M  V30 1190 H 115.118 -1.16309 -4.7826 0
M  V30 1191 N 116.77 1.45427 -0.607355 0
M  V30 1192 C 117.733 2.28974 0.101693 0
M  V30 1193 C 118.733 1.39754 0.795329 0
M  V30 1194 O 119.923 1.61878 0.643527 0
M  V30 1195 C 117.055 3.20768 1.15414 0
M  V30 1196 H 118.248 2.93147 -0.632844 0
M  V30 1197 H 115.801 1.51945 -0.366391 0
M  V30 1198 H 116.536 2.61395 1.91945 0
M  V30 1199 H 116.321 3.86489 0.66098 0
M  V30 1200 H 117.811 3.83589 1.65073 0
M  V30 1201 N 118.248 0.346503 1.53744 0
M  V30 1202 C 119.525 -0.304532 1.93215 0
M  V30 1203 C 119.905 -1.67993 1.27834 0
M  V30 1204 O 119.253 -2.24411 0.430352 0
M  V30 1205 C 119.463 -0.373852 3.46992 0
M  V30 1206 C 120.811 -0.62329 4.2 0
M  V30 1207 O 121.835 -0.455847 3.53271 0
M  V30 1208 O 120.694 -0.947879 5.38217 0
M  V30 1209 H 117.788 -0.178318 0.807547 0
M  V30 1210 H 120.334 0.397895 1.64969 0
M  V30 1211 H 119.106 0.591224 3.86808 0
M  V30 1212 H 118.729 -1.12294 3.81413 0
M  V30 1213 N 119.726 -1.57421 0.075193 0
M  V30 1214 C 120.975 -1.92794 -0.592731 0
M  V30 1215 C 121.288 -0.957478 -1.70563 0
M  V30 1216 O 122.494 -1.20417 -2.43335 0
M  V30 1217 C 120.95 -3.42495 -1.10569 0
M  V30 1218 C 120.558 -4.47994 -0.0236121 0
M  V30 1219 C 122.302 -3.86864 -1.74748 0
M  V30 1220 C 120.209 -5.88829 -0.550803 0
M  V30 1221 H 119.139 -0.719591 -0.225177 0
M  V30 1222 H 121.79 -1.82902 0.147978 0
M  V30 1223 H 120.172 -3.47471 -1.89947 0
M  V30 1224 H 121.346 -4.54637 0.751099 0
M  V30 1225 H 119.661 -4.13113 0.522159 0
M  V30 1226 H 122.258 -4.8947 -2.15229 0
M  V30 1227 H 122.601 -3.24417 -2.60882 0
M  V30 1228 H 123.134 -3.84504 -1.01986 0
M  V30 1229 H 119.873 -6.54929 0.273457 0
M  V30 1230 H 119.393 -5.85698 -1.29296 0
M  V30 1231 H 121.072 -6.38811 -1.02613 0
M  V30 1232 N 121.204 0.198386 -1.56346 0
M  V30 1233 C 122.114 1.2664 -1.97483 0
M  V30 1234 C 123.13 1.49989 -0.882002 0
M  V30 1235 O 124.306 1.62668 -1.18748 0
M  V30 1236 C 121.371 2.59141 -2.30319 0
M  V30 1237 C 120.432 2.43892 -3.53292 0
M  V30 1238 C 119.665 3.70074 -3.84553 0
M  V30 1239 O 119.888 4.74101 -3.1715 0
M  V30 1240 O 118.822 3.658 -4.7799 0
M  V30 1241 H 122.648 0.947304 -2.88548 0
M  V30 1242 H 120.233 0.403123 -1.43859 0
M  V30 1243 H 122.115 3.37352 -2.5253 0
M  V30 1244 H 120.79 2.90684 -1.42423 0
M  V30 1245 H 119.697 1.63803 -3.36332 0
M  V30 1246 H 121.03 2.17282 -4.41644 0
M  V30 1247 N 122.682 1.50554 0.465978 0
M  V30 1248 C 123.612 1.72722 1.57128 0
M  V30 1249 C 124.593 0.576294 1.6004 0
M  V30 1250 O 125.778 0.81598 1.76225 0
M  V30 1251 C 122.908 1.82605 2.95419 0
M  V30 1252 C 121.862 2.97835 3.07373 0
M  V30 1253 C 121.188 2.92867 4.47363 0
M  V30 1254 C 122.488 4.38265 2.84114 0
M  V30 1255 H 124.182 2.65267 1.38829 0
M  V30 1256 H 121.728 1.2765 0.666441 0
M  V30 1257 H 123.681 1.96698 3.72677 0
M  V30 1258 H 122.405 0.866858 3.14886 0
M  V30 1259 H 121.064 2.83401 2.3255 0
M  V30 1260 H 120.712 1.94783 4.63755 0
M  V30 1261 H 120.412 3.70227 4.56296 0
M  V30 1262 H 121.936 3.09015 5.26633 0
M  V30 1263 H 123.35 4.53198 3.51118 0
M  V30 1264 H 121.747 5.17115 3.04487 0
M  V30 1265 H 122.817 4.50281 1.7993 0
M  V30 1266 N 124.16 -0.719506 1.40217 0
M  V30 1267 C 125.408 -1.47641 1.3801 0
M  V30 1268 C 125.729 -1.94992 -0.018145 0
M  V30 1269 O 124.999 -1.70073 -0.972207 0
M  V30 1270 H 123.579 -0.547744 0.507923 0
M  V30 1271 H 126.241 -0.853187 1.75233 0
M  V30 1272 H 125.337 -2.35112 2.05253 0
M  V30 1273 N 125.638 -1.25649 -0.95132 0
M  V30 1274 C 127.054 -1.02542 -1.223 0
M  V30 1275 C 127.254 0.255715 -1.99871 0
M  V30 1276 O 126.31 0.967558 -2.33226 0
M  V30 1277 C 127.623 -2.25065 -1.99415 0
M  V30 1278 C 129.171 -2.29861 -2.12446 0
M  V30 1279 C 129.646 -3.52048 -2.92961 0
M  V30 1280 N 131.137 -3.52465 -3.00538 0
M  V30 1281 C 131.872 -4.43672 -3.63239 0
M  V30 1282 N 131.368 -5.45157 -4.27523 0
M  V30 1283 N 133.161 -4.31346 -3.60412 0
M  V30 1284 H 125.312 -2.07951 -0.432471 0
M  V30 1285 H 127.575 -0.91339 -0.253816 0
M  V30 1286 H 127.281 -3.18194 -1.49817 0
M  V30 1287 H 127.155 -2.28502 -3.00111 0
M  V30 1288 H 129.542 -1.37252 -2.61239 0
M  V30 1289 H 129.623 -2.3044 -1.11044 0
M  V30 1290 H 129.267 -4.44981 -2.44856 0
M  V30 1291 H 129.197 -3.48715 -3.94596 0
M  V30 1292 H 131.688 -2.79056 -2.54826 0
M  V30 1293 H 132.001 -6.10958 -4.73234 0
M  V30 1294 H 130.346 -5.49025 -4.26141 0
M  V30 1295 H 133.537 -3.51288 -3.09377 0
M  V30 1296 H 133.71 -5.02624 -4.0899 0
M  V30 1297 N 127.117 1.15442 -1.07289 0
M  V30 1298 C 128.342 1.90638 -0.816828 0
M  V30 1299 C 128.767 1.77445 0.624083 0
M  V30 1300 O 128.125 1.10671 1.43602 0
M  V30 1301 C 128.173 3.39008 -1.22906 0
M  V30 1302 O 127.277 4.10701 -0.373975 0
M  V30 1303 H 126.618 0.593555 -0.297638 0
M  V30 1304 H 129.148 1.46198 -1.43134 0
M  V30 1305 H 129.158 3.89801 -1.20497 0
M  V30 1306 H 127.833 3.47929 -2.27856 0
M  V30 1307 H 126.41 3.70046 -0.460499 0
M  V30 1308 N 128.595 0.856903 1.32268 0
M  V30 1309 C 129.841 0.462069 1.97466 0
M  V30 1310 C 130.174 -0.980298 1.67642 0
M  V30 1311 O 129.449 -1.68824 0.965858 0
M  V30 1312 C 129.732 0.704336 3.53145 0
M  V30 1313 C 129.585 2.19529 3.9259 0
M  V30 1314 C 130.904 0.1622 4.39801 0
M  V30 1315 H 128.023 0.169357 0.717278 0
M  V30 1316 H 130.665 1.07574 1.56614 0
M  V30 1317 H 128.815 0.181999 3.88073 0
M  V30 1318 H 130.487 2.78387 3.67829 0
M  V30 1319 H 128.73 2.67292 3.41668 0
M  V30 1320 H 129.401 2.31549 5.01088 0
M  V30 1321 H 131.877 0.608905 4.11621 0
M  V30 1322 H 130.753 0.361265 5.4771 0
M  V30 1323 H 131.014 -0.935158 4.32096 0
M  V30 1324 N 130.073 -1.45103 0.615059 0
M  V30 1325 C 131.005 -2.28786 -0.13762 0
M  V30 1326 C 132.018 -1.40376 -0.824525 0
M  V30 1327 O 133.207 -1.64681 -0.688662 0
M  V30 1328 C 130.307 -3.16322 -1.21628 0
M  V30 1329 C 129.48 -4.33054 -0.615039 0
M  V30 1330 C 128.539 -5.01743 -1.58556 0
M  V30 1331 O 127.565 -5.58293 -1.10895 0
M  V30 1332 N 128.767 -5.01714 -2.91998 0
M  V30 1333 H 131.532 -2.94025 0.580483 0
M  V30 1334 H 129.093 -1.55373 0.45507 0
M  V30 1335 H 131.085 -3.59139 -1.86552 0
M  V30 1336 H 129.655 -2.52943 -1.83681 0
M  V30 1337 H 128.875 -3.93627 0.21245 0
M  V30 1338 H 130.163 -5.08431 -0.193704 0
M  V30 1339 H 129.561 -4.57075 -3.33316 0
M  V30 1340 H 128.118 -5.48371 -3.52325 0
M  V30 1341 N 131.551 -0.354651 -1.53558 0
M  V30 1342 C 132.481 0.489091 -2.2832 0
M  V30 1343 C 133.462 1.09324 -1.30316 0
M  V30 1344 O 134.647 1.11255 -1.59173 0
M  V30 1345 C 131.777 1.63456 -3.0643 0
M  V30 1346 C 130.731 1.1582 -4.12031 0
M  V30 1347 C 130.057 2.39305 -4.7816 0
M  V30 1348 C 131.357 0.250731 -5.21698 0
M  V30 1349 H 133.051 -0.134614 -2.99097 0
M  V30 1350 H 130.597 -0.0661826 -1.43848 0
M  V30 1351 H 132.55 2.23136 -3.57475 0
M  V30 1352 H 131.274 2.28533 -2.33325 0
M  V30 1353 H 129.933 0.584146 -3.61916 0
M  V30 1354 H 129.581 3.02814 -4.01637 0
M  V30 1355 H 129.281 2.08109 -5.49513 0
M  V30 1356 H 130.805 2.99691 -5.31994 0
M  V30 1357 H 132.219 0.754695 -5.68311 0
M  V30 1358 H 130.616 0.0301468 -6.00092 0
M  V30 1359 H 131.686 -0.710125 -4.79672 0
M  V30 1360 N 133.029 1.57378 -0.0835403 0
M  V30 1361 C 134.277 1.93547 0.581718 0
M  V30 1362 C 134.598 0.96524 1.69435 0
M  V30 1363 O 133.868 0.0153369 1.95894 0
M  V30 1364 H 132.448 0.714521 0.217874 0
M  V30 1365 H 135.11 1.94366 -0.144158 0
M  V30 1366 H 134.206 2.95665 0.999423 0
M  V30 1367 N 134.507 -0.190092 1.56449 0
M  V30 1368 C 135.439 -1.25973 1.91477 0
M  V30 1369 C 136.452 -1.41452 0.805931 0
M  V30 1370 O 137.641 -1.41789 1.08435 0
M  V30 1371 C 134.741 -2.63117 2.13594 0
M  V30 1372 C 133.914 -2.69182 3.4476 0
M  V30 1373 C 132.973 -3.87557 3.5593 0
M  V30 1374 O 131.999 -3.74427 4.28711 0
M  V30 1375 N 133.201 -5.03224 2.89388 0
M  V30 1376 H 135.966 -0.962394 2.83828 0
M  V30 1377 H 133.527 -0.379981 1.57378 0
M  V30 1378 H 135.519 -3.40742 2.1835 0
M  V30 1379 H 134.089 -2.85319 1.27719 0
M  V30 1380 H 133.309 -1.77793 3.51828 0
M  V30 1381 H 134.597 -2.70229 4.31107 0
M  V30 1382 H 133.995 -5.16791 2.30094 0
M  V30 1383 H 132.552 -5.78778 2.99764 0
M  V30 1384 N 135.985 -1.50799 -0.457987 0
M  V30 1385 C 136.915 -1.73553 -1.5621 0
M  V30 1386 C 137.896 -0.584774 -1.59732 0
M  V30 1387 O 139.081 -0.825314 -1.7579 0
M  V30 1388 C 136.211 -1.84169 -2.94447 0
M  V30 1389 C 135.165 -2.99461 -3.0579 0
M  V30 1390 C 134.491 -2.95235 -4.45803 0
M  V30 1391 C 135.791 -4.39766 -2.81786 0
M  V30 1392 H 137.485 -2.66 -1.37421 0
M  V30 1393 H 135.031 -1.28002 -0.659662 0
M  V30 1394 H 136.984 -1.98672 -3.71628 0
M  V30 1395 H 135.708 -0.883545 -3.14422 0
M  V30 1396 H 134.367 -2.8463 -2.31044 0
M  V30 1397 H 134.015 -1.97239 -4.62715 0
M  V30 1398 H 133.715 -3.72642 -4.54326 0
M  V30 1399 H 135.239 -3.11803 -5.24987 0
M  V30 1400 H 136.653 -4.55054 -3.4871 0
M  V30 1401 H 135.05 -5.18722 -3.0174 0
M  V30 1402 H 136.12 -4.51229 -1.7754 0
M  V30 1403 N 137.463 0.71206 -1.40597 0
M  V30 1404 C 138.709 1.47416 -1.39271 0
M  V30 1405 C 139.042 1.942 0.00388791 0
M  V30 1406 O 138.317 1.68403 0.973179 0
M  V30 1407 C 138.6 2.69774 -2.38525 0
M  V30 1408 C 138.453 2.28861 -3.87224 0
M  V30 1409 C 139.772 3.71939 -2.35264 0
M  V30 1410 H 136.891 0.534713 -0.5072 0
M  V30 1411 H 139.533 0.812375 -1.71757 0
M  V30 1412 H 137.683 3.26238 -2.10953 0
M  V30 1413 H 139.355 1.77852 -4.25636 0
M  V30 1414 H 137.598 1.60824 -4.02887 0
M  V30 1415 H 138.269 3.16584 -4.52193 0
M  V30 1416 H 140.745 3.25113 -2.59694 0
M  V30 1417 H 139.621 4.55186 -3.06753 0
M  V30 1418 H 139.882 4.20484 -1.36549 0
M  V30 1419 N 138.941 1.26152 0.944643 0
M  V30 1420 C 140.218 1.02247 1.66748 0
M  V30 1421 C 140.598 -0.448202 2.06287 0
M  V30 1422 O 139.946 -1.42779 1.78399 0
M  V30 1423 C 140.156 1.96788 2.88228 0
M  V30 1424 C 141.504 2.25201 3.59958 0
M  V30 1425 O 142.528 1.94626 2.98327 0
M  V30 1426 O 141.387 2.77242 4.70956 0
M  V30 1427 H 138.481 0.388517 0.730057 0
M  V30 1428 H 141.027 1.37348 0.99668 0
M  V30 1429 H 139.799 2.96047 2.55875 0
M  V30 1430 H 139.422 1.62145 3.63035 0
M  V30 1431 N 140.419 -1.14872 1.07899 0
M  V30 1432 C 141.647 -1.89661 0.82683 0
M  V30 1433 C 142.062 -1.78312 -0.620519 0
M  V30 1434 O 141.419 -1.13888 -1.42604 0
M  V30 1435 C 141.47 -3.39817 1.23316 0
M  V30 1436 O 141.191 -3.50845 2.62372 0
M  V30 1437 C 142.692 -4.31615 1.0111 0
M  V30 1438 H 139.912 -0.60092 0.298557 0
M  V30 1439 H 142.456 -1.4551 1.43691 0
M  V30 1440 H 140.611 -3.8161 0.667286 0
M  V30 1441 H 141.025 -4.44076 2.79101 0
M  V30 1442 H 142.499 -5.35367 1.34486 0
M  V30 1443 H 142.976 -4.39169 -0.0522168 0
M  V30 1444 H 143.582 -3.95572 1.56215 0
M  V30 1445 N 141.898 -0.863906 -1.31812 0
M  V30 1446 C 142.846 -0.30422 -2.30602 0
M  V30 1447 C 143.84 0.577419 -1.59255 0
M  V30 1448 O 145.046 0.464194 -1.73912 0
M  V30 1449 H 141.421 -0.0796877 -0.747766 0
M  V30 1450 H 143.392 -1.15148 -2.75288 0
M  V30 1451 C 142.141 0.484617 -3.44306 0
M  V30 1452 H 141.464 -0.18451 -3.99374 0
M  V30 1453 H 142.904 0.841664 -4.15562 0
M  V30 1454 C 141.363 1.6735 -2.92396 0
M  V30 1455 O 141.893 2.77273 -2.90659 0
M  V30 1456 N 140.099 1.50362 -2.48676 0
M  V30 1457 H 139.646 0.609402 -2.50288 0
M  V30 1458 H 139.604 2.30051 -2.14299 0
M  V30 1459 N 143.376 1.44774 -0.622745 0
M  V30 1460 C 144.339 2.29069 0.0774015 0
M  V30 1461 C 145.339 1.4059 0.780461 0
M  V30 1462 O 146.529 1.62551 0.626322 0
M  V30 1463 C 143.661 3.21974 1.12006 0
M  V30 1464 H 144.854 2.92459 -0.663901 0
M  V30 1465 H 142.407 1.51548 -0.382486 0
M  V30 1466 H 143.142 2.63417 1.89162 0
M  V30 1467 H 142.927 3.87168 0.619951 0
M  V30 1468 H 144.417 3.85318 1.60995 0
M  V30 1469 N 144.854 0.36279 1.53368 0
M  V30 1470 C 146.27 0.0116182 1.59596 0
M  V30 1471 C 146.47 -1.47012 1.37803 0
M  V30 1472 O 145.526 -2.23136 1.18181 0
M  V30 1473 C 146.839 0.465052 2.97082 0
M  V30 1474 C 148.387 0.419033 3.10182 0
M  V30 1475 C 148.862 0.848235 4.50077 0
M  V30 1476 N 150.353 0.803183 4.56183 0
M  V30 1477 C 151.088 1.107 5.62613 0
M  V30 1478 N 150.584 1.47996 6.76808 0
M  V30 1479 N 152.377 1.02998 5.52583 0
M  V30 1480 H 144.528 1.32775 1.65785 0
M  V30 1481 H 146.791 0.542518 0.777417 0
M  V30 1482 H 146.497 1.49892 3.18159 0
M  V30 1483 H 146.371 -0.149786 3.76902 0
M  V30 1484 H 148.758 -0.605696 2.88817 0
M  V30 1485 H 148.839 1.06933 2.32377 0
M  V30 1486 H 148.483 1.87107 4.7218 0
M  V30 1487 H 148.413 0.175218 5.26308 0
M  V30 1488 H 150.904 0.52838 3.74188 0
M  V30 1489 H 151.217 1.69613 7.53957 0
M  V30 1490 H 149.562 1.51859 6.78206 0
M  V30 1491 H 152.753 0.737817 4.62249 0
M  V30 1492 H 152.926 1.2701 6.35431 0
M  V30 1493 N 146.332 -1.57332 0.0918853 0
M  V30 1494 C 147.28 -2.15075 -0.885747 0
M  V30 1495 C 148.274 -1.09277 -1.29441 0
M  V30 1496 O 149.48 -1.27627 -1.26931 0
M  V30 1497 H 145.855 -0.687966 -0.303656 0
M  V30 1498 H 147.826 -2.96047 -0.373995 0
M  V30 1499 C 146.575 -2.74325 -2.13638 0
M  V30 1500 H 145.898 -3.55418 -1.8308 0
M  V30 1501 H 147.338 -3.183 -2.80109 0
M  V30 1502 C 145.797 -1.70062 -2.90827 0
M  V30 1503 O 146.327 -1.13763 -3.85254 0
M  V30 1504 N 144.533 -1.40628 -2.54307 0
M  V30 1505 H 144.08 -1.866 -1.7759 0
M  V30 1506 H 144.038 -0.711043 -3.06254 0
M  V30 1507 N 147.81 0.181792 -1.56548 0
M  V30 1508 C 148.773 1.20894 -1.94724 0
M  V30 1509 C 149.773 1.37738 -0.829747 0
M  V30 1510 O 150.963 1.35323 -1.09697 0
M  V30 1511 C 148.095 2.57593 -2.23291 0
M  V30 1512 H 149.288 0.882275 -2.86629 0
M  V30 1513 H 146.841 0.423838 -1.50444 0
M  V30 1514 H 147.576 2.95291 -1.34067 0
M  V30 1515 H 147.361 2.46735 -3.04736 0
M  V30 1516 H 148.851 3.31637 -2.53785 0
M  V30 1517 N 149.288 1.51039 0.449983 0
M  V30 1518 C 150.236 1.71995 1.5659 0
M  V30 1519 C 151.23 0.586029 1.5894 0
M  V30 1520 O 152.436 0.76709 1.62837 0
M  V30 1521 H 148.811 0.543233 0.520001 0
M  V30 1522 H 150.782 2.65562 1.36085 0
M  V30 1523 C 149.531 1.8506 2.9436 0
M  V30 1524 H 148.854 2.71712 2.93279 0
M  V30 1525 H 150.294 2.0374 3.71842 0
M  V30 1526 C 148.753 0.607277 3.31382 0
M  V30 1527 O 149.283 -0.243903 4.00959 0
M  V30 1528 N 147.489 0.455073 2.87015 0
M  V30 1529 H 147.036 1.14879 2.30566 0
M  V30 1530 H 146.994 -0.375611 3.12148 0
M  V30 1531 N 150.766 -0.704594 1.40972 0
M  V30 1532 C 152.015 -1.46018 1.39146 0
M  V30 1533 C 152.328 -1.956 0.000589254 0
M  V30 1534 O 153.534 -2.71137 -0.1403 0
M  V30 1535 C 151.99 -2.63996 2.4461 0
M  V30 1536 C 151.598 -2.21238 3.89561 0
M  V30 1537 C 153.342 -3.41677 2.51907 0
M  V30 1538 C 151.249 -3.3612 4.86598 0
M  V30 1539 H 150.179 -0.548444 0.517422 0
M  V30 1540 H 152.83 -0.765784 1.66757 0
M  V30 1541 H 151.212 -3.3566 2.10115 0
M  V30 1542 H 152.386 -1.56923 4.33257 0
M  V30 1543 H 150.701 -1.56574 3.85841 0
M  V30 1544 H 153.298 -4.27182 3.2159 0
M  V30 1545 H 153.641 -3.86247 1.55303 0
M  V30 1546 H 154.174 -2.77064 2.85448 0
M  V30 1547 H 150.913 -2.96572 5.84573 0
M  V30 1548 H 150.433 -3.99315 4.47557 0
M  V30 1549 H 152.112 -4.02029 5.06934 0
M  V30 1550 N 152.244 -1.26651 -0.937939 0
M  V30 1551 C 153.521 -1.0313 -1.66204 0
M  V30 1552 C 153.901 0.437256 -2.06522 0
M  V30 1553 O 153.249 1.41831 -1.79154 0
M  V30 1554 C 153.459 -1.98314 -2.87181 0
M  V30 1555 C 154.807 -2.27107 -3.58758 0
M  V30 1556 O 155.831 -1.96205 -2.97291 0
M  V30 1557 O 154.69 -2.79736 -4.69479 0
M  V30 1558 H 151.784 -0.392384 -0.727986 0
M  V30 1559 H 154.33 -1.37874 -0.989382 0
M  V30 1560 H 153.102 -2.97399 -2.54302 0
M  V30 1561 H 152.725 -1.64068 -3.6217 0
M  V30 1562 N 153.722 1.14298 -1.08507 0
M  V30 1563 C 154.685 2.17607 -0.719711 0
M  V30 1564 C 155.685 1.58907 0.245997 0
M  V30 1565 O 156.875 1.74181 0.0254081 0
M  V30 1566 C 154.007 3.40842 -0.0627695 0
M  V30 1567 H 155.2 2.51443 -1.63452 0
M  V30 1568 H 152.753 1.28963 -0.88307 0
M  V30 1569 H 153.488 3.12587 0.863716 0
M  V30 1570 H 153.273 3.84713 -0.757504 0
M  V30 1571 H 154.763 4.17221 0.177786 0
M  V30 1572 N 155.201 0.870884 1.31352 0
M  V30 1573 C 156.449 0.48132 1.96285 0
M  V30 1574 C 156.77 -0.969813 1.69173 0
M  V30 1575 O 156.04 -1.67998 1.00764 0
M  V30 1576 H 154.62 0.175002 0.726212 0
M  V30 1577 H 157.282 1.11087 1.60143 0
M  V30 1578 H 156.378 0.639825 3.05471 0
M  V30 1579 N 156.679 -1.44442 0.630414 0
M  V30 1580 C 157.642 -2.29107 -0.0652523 0
M  V30 1581 C 158.642 -1.41002 -0.772995 0
M  V30 1582 O 159.832 -1.62881 -0.617692 0
M  V30 1583 C 156.964 -3.22564 -1.10296 0
M  V30 1584 H 158.157 -2.92103 0.679401 0
M  V30 1585 H 155.71 -1.51343 0.390517 0
M  V30 1586 H 156.445 -2.64416 -1.87762 0
M  V30 1587 H 156.23 -3.87491 -0.59941 0
M  V30 1588 H 157.72 -3.86167 -1.5895 0
M  V30 1589 N 158.157 -0.370918 -1.53173 0
M  V30 1590 C 159.067 0.480823 -2.2962 0
M  V30 1591 C 160.083 1.08789 -1.35798 0
M  V30 1592 O 161.259 1.09768 -1.68858 0
M  V30 1593 C 158.324 1.60227 -3.07454 0
M  V30 1594 C 157.385 1.0222 -4.16953 0
M  V30 1595 C 156.618 2.0902 -4.91066 0
M  V30 1596 O 156.841 3.30222 -4.65091 0
M  V30 1597 O 155.775 1.71778 -5.76867 0
M  V30 1598 H 159.601 -0.141421 -3.03371 0
M  V30 1599 H 157.186 -0.135146 -1.48787 0
M  V30 1600 H 159.068 2.25417 -3.56041 0
M  V30 1601 H 157.743 2.20982 -2.36535 0
M  V30 1602 H 156.65 0.334064 -3.72605 0
M  V30 1603 H 157.983 0.459131 -4.90054 0
M  V30 1604 N 159.635 1.57281 -0.100228 0
M  V30 1605 C 160.598 2.13158 0.842398 0
M  V30 1606 C 161.598 1.06202 1.20738 0
M  V30 1607 O 162.788 1.32066 1.13597 0
M  V30 1608 C 159.92 2.65639 2.13655 0
M  V30 1609 H 161.113 2.97766 0.357114 0
M  V30 1610 H 158.666 1.5559 0.148823 0
M  V30 1611 H 159.401 1.84566 2.66657 0
M  V30 1612 H 159.186 3.43844 1.88451 0
M  V30 1613 H 160.676 3.08846 2.81077 0
M  V30 1614 N 161.113 -0.173488 1.56642 0
M  V30 1615 C 162.341 -0.906095 1.86004 0
M  V30 1616 C 162.756 -1.75921 0.685355 0
M  V30 1617 O 162.113 -1.79198 -0.345578 0
M  V30 1618 C 162.164 -1.78462 3.14378 0
M  V30 1619 O 161.885 -0.965914 4.27319 0
M  V30 1620 C 163.386 -2.62707 3.57071 0
M  V30 1621 H 160.606 -0.263341 0.617165 0
M  V30 1622 H 163.15 -0.174236 2.03756 0
M  V30 1623 H 161.305 -2.46984 2.98459 0
M  V30 1624 H 161.719 -1.56655 5.00559 0
M  V30 1625 H 163.193 -3.19969 4.49804 0
M  V30 1626 H 163.67 -3.37472 2.81086 0
M  V30 1627 H 164.276 -1.99521 3.75595 0
M  V30 1628 N 162.591 -1.51276 -0.441967 0
M  V30 1629 C 163.868 -1.54252 -1.20273 0
M  V30 1630 C 164.248 -0.30408 -2.08898 0
M  V30 1631 O 163.596 0.711084 -2.17154 0
M  V30 1632 C 163.806 -2.85406 -2.00859 0
M  V30 1633 C 165.154 -3.37181 -2.58059 0
M  V30 1634 O 166.178 -2.86925 -2.11074 0
M  V30 1635 O 165.037 -4.24858 -3.43741 0
M  V30 1636 H 162.131 -0.619969 -0.547328 0
M  V30 1637 H 164.677 -1.63586 -0.451413 0
M  V30 1638 H 163.449 -3.67003 -1.35736 0
M  V30 1639 H 163.072 -2.79213 -2.83065 0
M  V30 1640 N 164.069 0.697108 -1.41344 0
M  V30 1641 C 165.001 1.8224 -1.39001 0
M  V30 1642 C 166.014 1.60152 -0.292428 0
M  V30 1643 O 167.203 1.69684 -0.554048 0
M  V30 1644 C 164.303 3.18976 -1.14489 0
M  V30 1645 C 163.476 3.68105 -2.36258 0
M  V30 1646 C 162.535 4.83506 -2.07625 0
M  V30 1647 O 161.561 4.95201 -2.8065 0
M  V30 1648 N 162.763 5.70637 -1.06555 0
M  V30 1649 H 165.528 1.84742 -2.35988 0
M  V30 1650 H 163.089 0.87937 -1.35936 0
M  V30 1651 H 165.081 3.93801 -0.932885 0
M  V30 1652 H 163.651 3.11508 -0.261043 0
M  V30 1653 H 162.871 2.84204 -2.7317 0
M  V30 1654 H 164.159 3.97667 -3.17393 0
M  V30 1655 H 163.557 5.63817 -0.461125 0
M  V30 1656 H 162.114 6.45368 -0.913444 0
M  V30 1657 N 165.547 1.27147 0.931209 0
M  V30 1658 C 166.495 1.09398 2.05268 0
M  V30 1659 C 167.489 0.0180591 1.6939 0
M  V30 1660 O 168.695 0.17551 1.79142 0
M  V30 1661 H 165.07 0.336986 0.672268 0
M  V30 1662 H 167.041 2.04416 2.17386 0
M  V30 1663 C 165.79 0.75424 3.39421 0
M  V30 1664 H 165.113 1.57404 3.67511 0
M  V30 1665 H 166.553 0.669903 4.18674 0
M  V30 1666 C 165.012 -0.541197 3.32525 0
M  V30 1667 O 165.542 -1.57664 3.69466 0
M  V30 1668 N 163.748 -0.535517 2.85623 0
M  V30 1669 H 163.295 0.307511 2.55758 0
M  V30 1670 H 163.253 -1.40236 2.81392 0
M  V30 1671 N 167.025 -1.13721 1.09112 0
M  V30 1672 C 168.441 -1.36914 0.820174 0
M  V30 1673 C 168.641 -1.93356 -0.567079 0
M  V30 1674 O 167.697 -2.15093 -1.32255 0
M  V30 1675 C 169.01 -2.3235 1.90877 0
M  V30 1676 C 170.558 -2.45973 1.93562 0
M  V30 1677 C 171.033 -3.44714 3.01556 0
M  V30 1678 N 172.524 -3.52263 3.00775 0
M  V30 1679 C 173.259 -4.28536 3.80978 0
M  V30 1680 N 172.755 -5.07991 4.71081 0
M  V30 1681 N 174.548 -4.23804 3.69251 0
M  V30 1682 H 166.699 -0.754348 1.98553 0
M  V30 1683 H 168.962 -0.3944 0.862063 0
M  V30 1684 H 168.668 -1.98027 2.90651 0
M  V30 1685 H 168.542 -3.32332 1.78424 0
M  V30 1686 H 170.929 -2.79584 0.944286 0
M  V30 1687 H 171.01 -1.45926 2.10093 0
M  V30 1688 H 170.654 -3.11835 4.00901 0
M  V30 1689 H 170.584 -4.44558 2.82269 0
M  V30 1690 H 173.075 -2.95567 2.35475 0
M  V30 1691 H 173.388 -5.63487 5.28869 0
M  V30 1692 H 171.733 -5.07235 4.75119 0
M  V30 1693 H 174.924 -3.60806 2.98222 0
M  V30 1694 H 175.097 -4.82995 4.31995 0
M  V30 1695 N 168.503 -0.877838 -1.30888 0
M  V30 1696 C 169.731 -0.507414 -2.00581 0
M  V30 1697 C 170.146 0.902216 -1.65848 0
M  V30 1698 O 169.503 1.59225 -0.891831 0
M  V30 1699 C 169.554 -0.664162 -3.55347 0
M  V30 1700 O 169.275 -2.01829 -3.8884 0
M  V30 1701 C 170.776 -0.295787 -4.42312 0
M  V30 1702 H 167.996 -0.196866 -0.641471 0
M  V30 1703 H 170.54 -1.18117 -1.66939 0
M  V30 1704 H 168.695 -0.0378619 -3.87381 0
M  V30 1705 H 169.109 -2.03174 -4.8355 0
M  V30 1706 H 170.583 -0.456388 -5.5011 0
M  V30 1707 H 171.06 0.765663 -4.32475 0
M  V30 1708 H 171.666 -0.898113 -4.15709 0
M  V30 1709 N 169.982 1.44106 -0.638065 0
M  V30 1710 C 170.912 2.33448 0.0494287 0
M  V30 1711 C 171.893 1.48606 0.827672 0
M  V30 1712 O 173.078 1.77308 0.792173 0
M  V30 1713 C 170.208 3.31771 1.02691 0
M  V30 1714 C 169.162 4.26485 0.359823 0
M  V30 1715 C 168.488 5.14729 1.44769 0
M  V30 1716 C 169.788 5.17056 -0.738296 0
M  V30 1717 H 171.482 2.91183 -0.696636 0
M  V30 1718 H 169.028 1.40014 -0.336456 0
M  V30 1719 H 170.981 3.93161 1.51666 0
M  V30 1720 H 169.705 2.7226 1.80395 0
M  V30 1721 H 168.364 3.66437 -0.10934 0
M  V30 1722 H 168.012 4.51566 2.21578 0
M  V30 1723 H 167.712 5.78913 1.00668 0
M  V30 1724 H 169.236 5.78991 1.93911 0
M  V30 1725 H 170.65 5.72342 -0.331354 0
M  V30 1726 H 169.047 5.89879 -1.10286 0
M  V30 1727 H 170.117 4.57652 -1.60258 0
M  V30 1728 N 171.46 0.379036 1.52974 0
M  V30 1729 C 172.737 -0.263479 1.93817 0
M  V30 1730 C 173.117 -1.65244 1.31368 0
M  V30 1731 O 172.465 -2.23448 0.477856 0
M  V30 1732 C 172.675 -0.300166 3.47707 0
M  V30 1733 C 174.023 -0.534061 4.21228 0
M  V30 1734 O 175.047 -0.38081 3.54159 0
M  V30 1735 O 173.906 -0.833501 5.40106 0
M  V30 1736 H 171 -0.161149 0.811147 0
M  V30 1737 H 173.546 0.432798 1.64088 0
M  V30 1738 H 172.318 0.673138 3.85467 0
M  V30 1739 H 171.941 -1.04179 3.83709 0
M  V30 1740 N 172.938 -1.57226 0.108567 0
M  V30 1741 C 173.848 -2.18292 -0.859401 0
M  V30 1742 C 174.864 -1.15612 -1.30038 0
M  V30 1743 O 176.04 -1.48039 -1.36552 0
M  V30 1744 C 173.105 -2.762 -2.09558 0
M  V30 1745 C 172.166 -3.93881 -1.70752 0
M  V30 1746 C 171.399 -4.49018 -2.88477 0
M  V30 1747 O 171.622 -4.03068 -4.036 0
M  V30 1748 O 170.556 -5.39852 -2.66164 0
M  V30 1749 H 174.382 -3.01441 -0.369769 0
M  V30 1750 H 171.967 -1.48945 -0.1165 0
M  V30 1751 H 173.849 -3.13156 -2.81978 0
M  V30 1752 H 172.524 -1.96089 -2.57548 0
M  V30 1753 H 171.431 -3.61713 -0.954714 0
M  V30 1754 H 172.764 -4.75396 -1.27513 0
M  V30 1755 N 174.416 0.165178 -1.56732 0
M  V30 1756 C 175.379 1.18822 -1.95995 0
M  V30 1757 C 176.379 1.3685 -0.84431 0
M  V30 1758 O 177.569 1.34152 -1.11126 0
M  V30 1759 C 174.701 2.5521 -2.26011 0
M  V30 1760 H 175.894 0.851825 -2.87548 0
M  V30 1761 H 173.447 0.407857 -1.50885 0
M  V30 1762 H 174.182 2.93852 -1.37191 0
M  V30 1763 H 173.967 2.43489 -3.07336 0
M  V30 1764 H 175.457 3.28927 -2.57288 0
M  V30 1765 N 175.894 1.51508 0.433938 0
M  V30 1766 C 177.142 1.6402 1.18075 0
M  V30 1767 C 177.463 0.360328 1.91642 0
M  V30 1768 O 176.733 -0.623945 1.85698 0
M  V30 1769 H 175.313 0.6045 0.43885 0
M  V30 1770 H 177.975 1.88452 0.497178 0
M  V30 1771 H 177.071 2.46949 1.90847 0
M  V30 1772 N 177.372 -0.689602 1.41712 0
M  V30 1773 C 178.282 -1.83314 1.46401 0
M  V30 1774 C 179.298 -1.7036 0.35405 0
M  V30 1775 O 180.474 -1.92171 0.602692 0
M  V30 1776 C 177.539 -3.19344 1.34982 0
M  V30 1777 C 176.6 -3.44363 2.56344 0
M  V30 1778 C 175.833 -4.73904 2.45461 0
M  V30 1779 O 176.056 -5.508 1.48241 0
M  V30 1780 O 174.99 -4.99839 3.35328 0
M  V30 1781 H 178.816 -1.82314 2.42889 0
M  V30 1782 H 176.401 -0.843438 1.23315 0
M  V30 1783 H 178.283 -4.00547 1.3092 0
M  V30 1784 H 176.958 -3.21014 0.41612 0
M  V30 1785 H 175.865 -2.63067 2.65982 0
M  V30 1786 H 177.198 -3.47512 3.48563 0
M  V30 1787 N 178.85 -1.27639 -0.924453 0
M  V30 1788 C 180.096 -1.15345 -1.67532 0
M  V30 1789 C 180.451 0.297096 -1.90092 0
M  V30 1790 O 179.744 1.21374 -1.48253 0
M  V30 1791 C 179.938 -1.87407 -3.04325 0
M  V30 1792 C 179.767 -3.3932 -2.95114 0
M  V30 1793 C 178.537 -4.08644 -2.97218 0
M  V30 1794 C 180.735 -4.35242 -2.73987 0
M  V30 1795 N 178.717 -5.47102 -2.78482 0
M  V30 1796 C 180.088 -5.6099 -2.63988 0
M  V30 1797 C 182.143 -4.25294 -2.589 0
M  V30 1798 C 180.846 -6.77924 -2.40442 0
M  V30 1799 C 182.872 -5.41952 -2.36731 0
M  V30 1800 C 182.234 -6.66658 -2.27478 0
M  V30 1801 H 178.333 -0.47696 -0.619704 0
M  V30 1802 H 180.917 -1.6115 -1.09265 0
M  V30 1803 H 179.088 -1.44053 -3.60699 0
M  V30 1804 H 180.82 -1.6759 -3.68369 0
M  V30 1805 H 177.575 -3.60136 -3.07569 0
M  V30 1806 H 177.999 -6.19852 -2.72236 0
M  V30 1807 H 182.641 -3.29598 -2.64811 0
M  V30 1808 H 180.359 -7.73699 -2.3327 0
M  V30 1809 H 183.945 -5.36137 -2.25938 0
M  V30 1810 H 182.825 -7.55405 -2.10555 0
M  V30 1811 N 180.328 1.1314 -1.09713 0
M  V30 1812 C 181.258 2.20748 -0.761102 0
M  V30 1813 C 182.239 1.68061 0.262566 0
M  V30 1814 O 183.424 1.93765 0.129977 0
M  V30 1815 C 180.554 3.46812 -0.184054 0
M  V30 1816 C 179.508 4.12606 -1.13757 0
M  V30 1817 C 178.834 5.33031 -0.422083 0
M  V30 1818 C 180.134 4.59603 -2.48118 0
M  V30 1819 H 181.828 2.49113 -1.66082 0
M  V30 1820 H 179.374 1.19734 -0.799987 0
M  V30 1821 H 181.327 4.21353 0.0631215 0
M  V30 1822 H 180.051 3.17851 0.750868 0
M  V30 1823 H 178.71 3.40036 -1.37007 0
M  V30 1824 H 178.358 5.00335 0.517072 0
M  V30 1825 H 178.058 5.77999 -1.05788 0
M  V30 1826 H 179.582 6.10325 -0.183277 0
M  V30 1827 H 180.996 5.25552 -2.29059 0
M  V30 1828 H 179.393 5.15321 -3.07514 0
M  V30 1829 H 180.463 3.73971 -3.08665 0
M  V30 1830 N 181.806 0.884767 1.30421 0
M  V30 1831 C 183.052 0.503851 1.96441 0
M  V30 1832 C 183.385 -0.944518 1.69684 0
M  V30 1833 O 182.66 -1.66737 1.00145 0
M  V30 1834 C 182.943 0.779085 3.51571 0
M  V30 1835 C 182.796 2.27807 3.87846 0
M  V30 1836 C 184.115 0.255452 4.39358 0
M  V30 1837 H 181.234 0.184533 0.713524 0
M  V30 1838 H 183.876 1.10872 1.54297 0
M  V30 1839 H 182.026 0.264274 3.876 0
M  V30 1840 H 183.698 2.86127 3.61841 0
M  V30 1841 H 181.941 2.74479 3.35922 0
M  V30 1842 H 182.612 2.42125 4.96064 0
M  V30 1843 H 185.088 0.696079 4.10236 0
M  V30 1844 H 183.964 0.477361 5.4682 0
M  V30 1845 H 184.225 -0.843293 4.33983 0
M  V30 1846 N 183.284 -1.43765 0.645699 0
M  V30 1847 C 184.217 -2.2798 -0.100072 0
M  V30 1848 C 185.195 -1.39391 -0.837194 0
M  V30 1849 O 186.379 -1.68833 -0.838306 0
M  V30 1850 C 183.506 -3.18643 -1.14823 0
M  V30 1851 C 182.552 -4.2344 -0.510009 0
M  V30 1852 S 183.385 -5.30761 0.710824 0
M  V30 1853 C 184.541 -6.24992 -0.33699 0
M  V30 1854 H 184.774 -2.90884 0.614322 0
M  V30 1855 H 182.307 -1.48166 0.434304 0
M  V30 1856 H 184.265 -3.71424 -1.74799 0
M  V30 1857 H 182.926 -2.54932 -1.8349 0
M  V30 1858 H 182.119 -4.86948 -1.29991 0
M  V30 1859 H 181.721 -3.73997 0.0154577 0
M  V30 1860 H 184.013 -6.66691 -1.20537 0
M  V30 1861 H 184.956 -7.07612 0.262879 0
M  V30 1862 H 185.364 -5.60517 -0.669425 0
M  V30 1863 N 184.763 -0.387143 -1.52771 0
M  V30 1864 C 186.009 0.188506 -2.02525 0
M  V30 1865 C 186.364 1.44649 -1.26864 0
M  V30 1866 O 185.657 1.88189 -0.359945 0
M  V30 1867 C 185.851 0.512209 -3.53711 0
M  V30 1868 C 185.68 -0.712855 -4.44014 0
M  V30 1869 C 184.45 -1.23147 -4.90064 0
M  V30 1870 C 186.648 -1.58453 -4.89282 0
M  V30 1871 N 184.63 -2.41431 -5.64433 0
M  V30 1872 C 186.001 -2.61381 -5.6221 0
M  V30 1873 C 188.056 -1.60488 -4.71326 0
M  V30 1874 C 186.759 -3.66227 -6.19088 0
M  V30 1875 C 188.785 -2.6424 -5.29085 0
M  V30 1876 C 188.147 -3.6589 -6.01917 0
M  V30 1877 H 184.246 0.0311236 -0.78138 0
M  V30 1878 H 186.83 -0.536548 -1.87161 0
M  V30 1879 H 185.001 1.20632 -3.69192 0
M  V30 1880 H 186.733 1.07482 -3.90166 0
M  V30 1881 H 183.488 -0.792795 -4.66917 0
M  V30 1882 H 183.912 -3.01274 -6.0627 0
M  V30 1883 H 188.554 -0.83247 -4.14524 0
M  V30 1884 H 186.272 -4.44337 -6.74974 0
M  V30 1885 H 189.858 -2.66695 -5.17074 0
M  V30 1886 H 188.738 -4.44855 -6.45813 0
M  V30 1887 N 186.241 1.57166 -0.116904 0
M  V30 1888 C 187.489 1.94737 0.540533 0
M  V30 1889 C 187.81 1.00096 1.67349 0
M  V30 1890 O 187.08 0.0568854 1.95817 0
M  V30 1891 H 185.66 0.718981 0.202669 0
M  V30 1892 H 188.322 1.94017 -0.185353 0
M  V30 1893 H 187.418 2.97719 0.936483 0
M  V30 1894 N 187.719 -0.156864 1.56817 0
M  V30 1895 C 188.965 -0.872416 1.83076 0
M  V30 1896 C 189.298 -1.81261 0.697001 0
M  V30 1897 O 188.573 -1.92171 -0.30008 0
M  V30 1898 C 188.856 -1.65551 3.19789 0
M  V30 1899 C 188.709 -0.737467 4.43713 0
M  V30 1900 C 190.028 -2.62012 3.53606 0
M  V30 1901 H 187.147 -0.315715 0.665953 0
M  V30 1902 H 189.789 -0.138004 1.89498 0
M  V30 1903 H 187.939 -2.28159 3.14445 0
M  V30 1904 H 189.611 -0.123143 4.61136 0
M  V30 1905 H 187.854 -0.0464067 4.33775 0
M  V30 1906 H 188.525 -1.32122 5.35955 0
M  V30 1907 H 191.001 -2.09525 3.59497 0
M  V30 1908 H 189.877 -3.13861 4.50314 0
M  V30 1909 H 190.138 -3.42902 2.79053 0
M  V30 1910 N 189.197 -1.51736 -0.425897 0
M  V30 1911 C 190.437 -1.66636 -1.18371 0
M  V30 1912 C 190.801 -0.379854 -1.88205 0
M  V30 1913 O 192.002 -0.404758 -2.65735 0
M  V30 1914 C 190.273 -2.84382 -2.16476 0
M  V30 1915 S 191.832 -3.19673 -3.0059 0
M  V30 1916 H 188.65 -0.586957 -0.40125 0
M  V30 1917 H 191.252 -1.89679 -0.473518 0
M  V30 1918 H 189.956 -3.76281 -1.63831 0
M  V30 1919 H 189.487 -2.63562 -2.92059 0
M  V30 1920 H 191.502 -2.66994 -4.18245 0
M  V30 1921 N 190.675 0.682077 -1.42076 0
M  V30 1922 C 191.903 1.47057 -1.4554 0
M  V30 1923 C 192.318 1.8869 -0.0645779 0
M  V30 1924 O 191.675 1.57666 0.919115 0
M  V30 1925 C 191.726 2.72442 -2.37609 0
M  V30 1926 O 191.447 2.32559 -3.71279 0
M  V30 1927 C 192.948 3.66069 -2.50017 0
M  V30 1928 H 190.168 0.452737 -0.495248 0
M  V30 1929 H 192.712 0.838695 -1.8651 0
M  V30 1930 H 190.867 3.31835 -1.9991 0
M  V30 1931 H 191.281 3.13475 -4.20516 0
M  V30 1932 H 192.755 4.50792 -3.18576 0
M  V30 1933 H 193.232 4.11476 -1.53572 0
M  V30 1934 H 193.838 3.12572 -2.88407 0
M  V30 1935 N 192.153 1.28127 0.917671 0
M  V30 1936 C 193.103 1.08361 2.00604 0
M  V30 1937 C 194.087 0.00847518 1.60898 0
M  V30 1938 O 195.279 0.228167 1.75523 0
M  V30 1939 C 192.408 0.743376 3.35155 0
M  V30 1940 C 191.494 1.85716 3.81275 0
M  V30 1941 N 191.885 3.09822 3.99805 0
M  V30 1942 C 190.183 1.74612 4.10398 0
M  V30 1943 C 190.884 3.82368 4.38372 0
M  V30 1944 N 189.86 3.10192 4.4641 0
M  V30 1945 H 193.662 2.02531 2.12975 0
M  V30 1946 H 191.176 1.18989 1.10523 0
M  V30 1947 H 193.173 0.582859 4.12805 0
M  V30 1948 H 191.833 -0.190595 3.2414 0
M  V30 1949 H 192.844 3.45475 3.85833 0
M  V30 1950 H 189.521 0.883657 4.08041 0
M  V30 1951 H 190.911 4.89082 4.60704 0
M  V30 1952 N 193.631 -1.12557 1.10312 0
M  V30 1953 C 194.561 -2.20341 0.772798 0
M  V30 1954 C 195.542 -1.68198 -0.25365 0
M  V30 1955 O 196.727 -1.93831 -0.119699 0
M  V30 1956 C 193.857 -3.46709 0.202443 0
M  V30 1957 C 192.811 -4.11996 1.15943 0
M  V30 1958 C 192.137 -5.328 0.450345 0
M  V30 1959 C 193.437 -4.5828 2.50552 0
M  V30 1960 H 195.131 -2.48229 1.674 0
M  V30 1961 H 192.677 -1.19308 0.806326 0
M  V30 1962 H 194.63 -4.2138 -0.0407752 0
M  V30 1963 H 193.354 -3.18245 -0.734001 0
M  V30 1964 H 192.013 -3.39305 1.38808 0
M  V30 1965 H 191.661 -5.00602 -0.490531 0
M  V30 1966 H 191.361 -5.7743 1.08851 0
M  V30 1967 H 192.885 -6.10219 0.215642 0
M  V30 1968 H 194.299 -5.2433 2.31843 0
M  V30 1969 H 192.696 -5.13683 3.10242 0
M  V30 1970 H 193.766 -3.72329 3.10643 0
M  V30 1971 N 195.109 -0.891671 -1.2995 0
M  V30 1972 C 196.357 -0.512486 -1.95494 0
M  V30 1973 C 196.678 0.942776 -1.70695 0
M  V30 1974 O 195.948 1.66374 -1.03424 0
M  V30 1975 H 194.528 -0.186533 -0.723336 0
M  V30 1976 H 197.19 -1.13621 -1.58355 0
M  V30 1977 H 196.286 -0.688342 -3.04415 0
M  V30 1978 N 196.587 1.43421 -0.653314 0
M  V30 1979 C 197.827 2.03689 -0.170346 0
M  V30 1980 C 198.191 1.50427 1.19314 0
M  V30 1981 O 199.392 2.0234 1.76952 0
M  V30 1982 C 197.663 3.56946 -0.180183 0
M  V30 1983 S 199.222 4.38171 0.234925 0
M  V30 1984 H 196.04 0.707345 -0.0719976 0
M  V30 1985 H 198.642 1.75486 -0.86167 0
M  V30 1986 H 197.346 3.93212 -1.17526 0
M  V30 1987 H 196.877 3.89791 0.531675 0
M  V30 1988 H 198.892 4.73808 1.47378 0
M  V30 1989 N 198.065 0.39524 1.52563 0
M  V30 1990 C 199.311 -0.185318 2.01952 0
M  V30 1991 C 199.644 -1.45964 1.28095 0
M  V30 1992 O 198.919 -1.90689 0.38315 0
M  V30 1993 C 199.202 -0.447193 3.57312 0
M  V30 1994 C 199.055 0.842828 4.41833 0
M  V30 1995 C 200.374 -1.23529 4.22408 0
M  V30 1996 H 197.493 -0.0658788 0.73405 0
M  V30 1997 H 200.135 0.525975 1.82575 0
M  V30 1998 H 198.285 -1.05312 3.73954 0
M  V30 1999 H 199.957 1.4795 4.36931 0
M  V30 2000 H 198.2 1.45686 4.08605 0
M  V30 2001 H 198.871 0.614165 5.48573 0
M  V30 2002 H 201.347 -0.722445 4.0978 0
M  V30 2003 H 200.223 -1.38727 5.3108 0
M  V30 2004 H 200.484 -2.25213 3.80436 0
M  V30 2005 N 199.544 -1.57102 0.125237 0
M  V30 2006 C 200.955 -1.82384 -0.399142 0
M  V30 2007 C 201.306 -1.04276 -1.66195 0
M  V30 2008 O 200.431 -0.281269 -2.14564 0
M  V30 2009 C 201.026 -3.30821 -0.730932 0
M  V30 2010 C 199.585 -3.56762 -1.19992 0
M  V30 2011 C 198.732 -2.7649 -0.211792 0
M  V30 2012 H 201.683 -1.54786 0.350277 0
M  V30 2013 H 201.704 -3.4579 -1.58775 0
M  V30 2014 H 201.216 -3.87643 0.188345 0
M  V30 2015 H 199.317 -3.05305 -2.13588 0
M  V30 2016 H 199.43 -4.65317 -1.14093 0
M  V30 2017 H 197.794 -2.4489 -0.700085 0
M  V30 2018 H 198.577 -3.36073 0.700691 0
M  V30 2019 N 201.022 0.148545 -1.56898 0
M  V30 2020 C 202.271 0.85984 -1.82454 0
M  V30 2021 C 202.584 1.82406 -0.706229 0
M  V30 2022 O 203.79 2.57938 -0.847349 0
M  V30 2023 C 202.246 1.57967 -3.2338 0
M  V30 2024 C 201.854 0.65794 -4.43142 0
M  V30 2025 C 203.598 2.27784 -3.58211 0
M  V30 2026 C 201.505 1.3793 -5.75091 0
M  V30 2027 H 200.435 0.324834 -0.68044 0
M  V30 2028 H 203.086 0.112588 -1.83154 0
M  V30 2029 H 201.468 2.37249 -3.17063 0
M  V30 2030 H 202.642 -0.0995497 -4.60692 0
M  V30 2031 H 200.957 0.0682643 -4.16344 0
M  V30 2032 H 203.554 2.8239 -4.54048 0
M  V30 2033 H 203.897 3.04204 -2.84193 0
M  V30 2034 H 204.43 1.55421 -3.66182 0
M  V30 2035 H 201.169 0.656982 -6.52199 0
M  V30 2036 H 200.689 2.10954 -5.61479 0
M  V30 2037 H 202.368 1.92063 -6.17835 0
M  V30 2038 N 202.5 1.5196 0.417844 0
M  V30 2039 C 203.748 1.65263 1.16329 0
M  V30 2040 C 204.069 0.380634 1.91249 0
M  V30 2041 O 203.339 -0.604214 1.86349 0
M  V30 2042 H 201.919 0.60912 0.432414 0
M  V30 2043 H 204.581 1.88969 0.477162 0
M  V30 2044 H 203.677 2.4896 1.88217 0
M  V30 2045 N 203.978 -0.674533 1.42435 0
M  V30 2046 C 205.226 -1.43175 1.42637 0
M  V30 2047 C 205.547 -1.94951 0.0438992 0
M  V30 2048 O 204.817 -1.7308 -0.917607 0
M  V30 2049 H 203.397 -0.531307 0.525092 0
M  V30 2050 H 206.059 -0.797006 1.77859 0
M  V30 2051 H 205.155 -2.28463 2.12629 0
M  V30 2052 N 205.456 -1.28612 -0.910864 0
M  V30 2053 C 206.702 -1.16106 -1.66274 0
M  V30 2054 C 207.035 0.289113 -1.92036 0
M  V30 2055 O 206.31 1.21 -1.52281 0
M  V30 2056 C 206.593 -1.96309 -3.01885 0
M  V30 2057 C 206.446 -3.49405 -2.8326 0
M  V30 2058 C 207.765 -1.78076 -4.02463 0
M  V30 2059 H 204.884 -0.423152 -0.603417 0
M  V30 2060 H 207.526 -1.57961 -1.05586 0
M  V30 2061 H 205.676 -1.60742 -3.53687 0
M  V30 2062 H 207.348 -3.94894 -2.38446 0
M  V30 2063 H 205.591 -3.74893 -2.18261 0
M  V30 2064 H 206.262 -4.00784 -3.79574 0
M  V30 2065 H 208.738 -2.0912 -3.59733 0
M  V30 2066 H 207.614 -2.36561 -4.95308 0
M  V30 2067 H 207.875 -0.733008 -4.35981 0
M  V30 2068 N 206.934 1.1197 -1.10907 0
M  V30 2069 C 208.159 1.87942 -0.877064 0
M  V30 2070 C 208.584 1.79341 0.567314 0
M  V30 2071 O 207.942 1.15184 1.40009 0
M  V30 2072 C 207.99 3.34926 -1.33629 0
M  V30 2073 O 207.094 4.09303 -0.504447 0
M  V30 2074 H 206.435 0.583785 -0.316371 0
M  V30 2075 H 208.965 1.4157 -1.47712 0
M  V30 2076 H 208.975 3.8577 -1.32837 0
M  V30 2077 H 207.65 3.40504 -2.3881 0
M  V30 2078 H 206.227 3.68393 -0.577993 0
M  V30 2079 N 208.412 0.89855 1.29475 0
M  V30 2080 C 209.66 0.522847 1.9522 0
M  V30 2081 C 209.981 -0.93371 1.71192 0
M  V30 2082 O 209.251 -1.65823 1.04305 0
M  V30 2083 H 207.831 0.190366 0.722336 0
M  V30 2084 H 210.493 1.14459 1.5775 0
M  V30 2085 H 209.589 0.704476 3.04045 0
M  V30 2086 N 209.89 -1.43072 0.660911 0
M  V30 2087 C 211.167 -1.95307 0.107017 0
M  V30 2088 C 211.547 -1.60192 -1.37484 0
M  V30 2089 O 210.895 -0.890949 -2.10415 0
M  V30 2090 C 211.105 -3.47124 0.361402 0
M  V30 2091 C 212.453 -4.23738 0.270455 0
M  V30 2092 O 213.477 -3.54981 0.294382 0
M  V30 2093 O 212.336 -5.46131 0.200737 0
M  V30 2094 H 209.43 -0.826984 -0.00517729 0
M  V30 2095 H 211.976 -1.52972 0.734681 0
M  V30 2096 H 210.748 -3.65837 1.38848 0
M  V30 2097 H 210.371 -3.96475 -0.298953 0
M  V30 2098 N 211.368 -0.403325 -1.52352 0
M  V30 2099 C 212.615 0.174347 -2.01748 0
M  V30 2100 C 212.943 1.45636 -1.2892 0
M  V30 2101 O 212.198 1.9193 -0.382258 0
M  V30 2102 C 212.497 0.474665 -3.54234 0
M  V30 2103 C 212.163 -0.717458 -4.45155 0
M  V30 2104 C 210.825 -1.04447 -4.69728 0
M  V30 2105 C 213.177 -1.51432 -4.98716 0
M  V30 2106 C 210.505 -2.16963 -5.45109 0
M  V30 2107 C 212.857 -2.6302 -5.75329 0
M  V30 2108 C 211.521 -2.96213 -5.98175 0
M  V30 2109 H 210.791 0.0637981 -0.738248 0
M  V30 2110 H 213.438 -0.543553 -1.83624 0
M  V30 2111 H 211.743 1.27406 -3.70506 0
M  V30 2112 H 213.44 0.934496 -3.89959 0
M  V30 2113 H 210.03 -0.452596 -4.26204 0
M  V30 2114 H 214.214 -1.27491 -4.79645 0
M  V30 2115 H 209.47 -2.43034 -5.61021 0
M  V30 2116 H 213.644 -3.25158 -6.15829 0
M  V30 2117 H 211.271 -3.83516 -6.56368 0
M  V30 2118 N 212.846 1.57033 -0.133567 0
M  V30 2119 C 214.094 1.953 0.519848 0
M  V30 2120 C 214.415 1.01866 1.66278 0
M  V30 2121 O 213.685 0.0776513 1.95746 0
M  V30 2122 H 212.265 0.721091 0.195032 0
M  V30 2123 H 214.927 1.93809 -0.205921 0
M  V30 2124 H 214.023 2.98695 0.904854 0
M  V30 2125 N 214.325 -0.140222 1.56975 0
M  V30 2126 C 215.573 -0.850005 1.83356 0
M  V30 2127 C 215.894 -1.81399 0.71551 0
M  V30 2128 O 215.164 -1.94136 -0.262294 0
M  V30 2129 H 213.744 -0.316886 0.676456 0
M  V30 2130 H 216.406 -0.132608 1.94448 0
M  V30 2131 H 215.502 -1.40814 2.78528 0
M  V30 2132 N 215.803 -1.52179 -0.40978 0
M  V30 2133 C 217.049 -1.67408 -1.15525 0
M  V30 2134 C 217.404 -0.398746 -1.88223 0
M  V30 2135 O 216.697 0.60678 -1.81738 0
M  V30 2136 C 216.891 -2.83428 -2.17723 0
M  V30 2137 C 216.72 -4.22121 -1.55061 0
M  V30 2138 C 215.49 -4.87657 -1.3236 0
M  V30 2139 C 217.688 -5.04248 -1.01185 0
M  V30 2140 N 215.67 -6.10387 -0.655834 0
M  V30 2141 C 217.041 -6.18209 -0.470963 0
M  V30 2142 C 219.096 -4.89583 -0.906252 0
M  V30 2143 C 217.799 -7.1911 0.165172 0
M  V30 2144 C 219.825 -5.90718 -0.28397 0
M  V30 2145 C 219.187 -7.03969 0.246243 0
M  V30 2146 H 215.286 -0.666251 -0.409431 0
M  V30 2147 H 217.87 -1.89482 -0.447729 0
M  V30 2148 H 216.041 -2.6297 -2.85834 0
M  V30 2149 H 217.773 -2.87697 -2.84627 0
M  V30 2150 H 214.528 -4.46007 -1.59294 0
M  V30 2151 H 214.952 -6.76153 -0.338596 0
M  V30 2152 H 219.594 -4.02253 -1.302 0
M  V30 2153 H 217.312 -8.06066 0.572986 0
M  V30 2154 H 220.898 -5.81443 -0.203792 0
M  V30 2155 H 219.778 -7.80886 0.720173 0
M  V30 2156 N 217.281 0.66697 -1.42791 0
M  V30 2157 C 218.528 1.42699 -1.43678 0
M  V30 2158 C 218.856 1.94419 -0.0560425 0
M  V30 2159 O 218.111 1.7182 0.936831 0
M  V30 2160 C 218.41 2.6349 -2.4147 0
M  V30 2161 C 218.076 2.30267 -3.8767 0
M  V30 2162 C 216.738 2.20918 -4.27491 0
M  V30 2163 C 219.09 2.03435 -4.79858 0
M  V30 2164 C 216.418 1.82873 -5.57471 0
M  V30 2165 C 218.77 1.66892 -6.10188 0
M  V30 2166 C 217.434 1.56058 -6.49001 0
M  V30 2167 H 216.704 0.522171 -0.525755 0
M  V30 2168 H 219.351 0.759785 -1.75783 0
M  V30 2169 H 217.656 3.35279 -2.0272 0
M  V30 2170 H 219.353 3.21684 -2.39417 0
M  V30 2171 H 215.943 2.38449 -3.56146 0
M  V30 2172 H 220.127 2.09586 -4.49875 0
M  V30 2173 H 215.383 1.7306 -5.86396 0
M  V30 2174 H 219.557 1.45157 -6.81104 0
M  V30 2175 H 217.184 1.26348 -7.49627 0
M  V30 2176 N 218.759 1.29093 0.90403 0
M  V30 2177 C 219.999 1.18076 1.66845 0
M  V30 2178 C 220.363 -0.26436 1.90171 0
M  V30 2179 O 221.564 -0.497423 2.64157 0
M  V30 2180 C 219.835 1.96722 2.98388 0
M  V30 2181 S 221.394 2.0219 3.89441 0
M  V30 2182 H 218.212 0.421104 0.572881 0
M  V30 2183 H 220.814 1.63322 1.07453 0
M  V30 2184 H 219.518 3.00866 2.7912 0
M  V30 2185 H 219.049 1.52064 3.62823 0
M  V30 2186 H 221.064 1.13545 4.83034 0
M  V30 2187 N 220.237 -1.11381 1.11499 0
M  V30 2188 C 221.648 -1.6465 0.880191 0
M  V30 2189 C 221.999 -1.87199 -0.587434 0
M  V30 2190 O 221.124 -1.60667 -1.44966 0
M  V30 2191 C 221.719 -2.99105 1.59128 0
M  V30 2192 C 220.278 -3.49279 1.40289 0
M  V30 2193 C 219.425 -2.24077 1.63354 0
M  V30 2194 H 222.376 -0.950123 1.27116 0
M  V30 2195 H 222.397 -3.66107 1.03664 0
M  V30 2196 H 221.909 -2.82661 2.65941 0
M  V30 2197 H 220.01 -3.70887 0.356888 0
M  V30 2198 H 220.123 -4.2803 2.15238 0
M  V30 2199 H 218.487 -2.31733 1.05698 0
M  V30 2200 H 219.27 -2.10175 2.71443 0
M  V30 2201 N 221.715 -0.905404 -1.28997 0
M  V30 2202 C 222.955 -0.541232 -1.97104 0
M  V30 2203 C 223.319 0.896841 -1.69767 0
M  V30 2204 O 224.52 1.36817 -2.31375 0
M  V30 2205 C 222.791 -0.832134 -3.47578 0
M  V30 2206 S 224.35 -0.573127 -4.35041 0
M  V30 2207 H 221.168 -0.200576 -0.682122 0
M  V30 2208 H 223.77 -1.16906 -1.56694 0
M  V30 2209 H 222.474 -1.87687 -3.64968 0
M  V30 2210 H 222.005 -0.192636 -3.92928 0
M  V30 2211 H 224.02 0.579297 -4.92807 0
M  V30 2212 N 223.193 1.4272 -0.668489 0
M  V30 2213 C 224.143 2.27971 0.0363806 0
M  V30 2214 C 225.127 1.40741 0.779794 0
M  V30 2215 O 226.319 1.64245 0.659745 0
M  V30 2216 C 223.448 3.28673 0.991398 0
M  V30 2217 C 222.534 4.23388 0.245658 0
M  V30 2218 N 222.925 5.00267 -0.746069 0
M  V30 2219 C 221.223 4.43355 0.484988 0
M  V30 2220 C 221.924 5.69396 -1.19009 0
M  V30 2221 N 220.9 5.41095 -0.521287 0
M  V30 2222 H 224.702 2.84833 -0.724394 0
M  V30 2223 H 222.216 1.54607 -0.497028 0
M  V30 2224 H 224.213 3.88543 1.51129 0
M  V30 2225 H 222.873 2.73373 1.75207 0
M  V30 2226 H 223.884 5.05525 -1.12537 0
M  V30 2227 H 220.561 3.99104 1.22565 0
M  V30 2228 H 221.951 6.41083 -2.01153 0
M  V30 2229 N 224.671 0.411399 1.52136 0
M  V30 2230 C 225.919 -0.163322 2.01439 0
M  V30 2231 C 226.24 -1.45453 1.29879 0
M  V30 2232 O 225.51 -1.91225 0.4254 0
M  V30 2233 H 224.09 -0.0633447 0.744309 0
M  V30 2234 H 226.752 0.548161 1.87033 0
M  V30 2235 H 225.848 -0.357817 3.10042 0
M  V30 2236 N 226.149 -1.5696 0.141893 0
M  V30 2237 C 227.374 -2.00754 -0.520838 0
M  V30 2238 C 227.799 -1.0213 -1.57959 0
M  V30 2239 O 227.157 0.00371324 -1.813 0
M  V30 2240 C 227.205 -3.43318 -1.10294 0
M  V30 2241 O 226.309 -3.47679 -2.21795 0
M  V30 2242 H 225.65 -0.651564 -0.127908 0
M  V30 2243 H 228.18 -2.03221 0.23712 0
M  V30 2244 H 228.19 -3.82012 -1.43287 0
M  V30 2245 H 226.865 -4.14608 -0.327574 0
M  V30 2246 H 225.442 -3.20824 -1.9007 0
M  V30 2247 N 227.627 0.131896 -1.57047 0
M  V30 2248 C 228.577 1.1679 -1.95816 0
M  V30 2249 C 229.561 1.37756 -0.831393 0
M  V30 2250 O 230.753 1.39065 -1.09499 0
M  V30 2251 C 227.882 2.49778 -2.35512 0
M  V30 2252 C 226.968 2.32342 -3.54793 0
M  V30 2253 N 227.359 1.8469 -4.70875 0
M  V30 2254 C 225.657 2.63043 -3.60173 0
M  V30 2255 C 226.358 1.80656 -5.52936 0
M  V30 2256 N 225.334 2.24528 -4.95064 0
M  V30 2257 H 229.136 0.791818 -2.83033 0
M  V30 2258 H 226.65 0.339791 -1.58805 0
M  V30 2259 H 228.647 3.24692 -2.61498 0
M  V30 2260 H 227.307 2.88156 -1.49654 0
M  V30 2261 H 228.318 1.54429 -4.9434 0
M  V30 2262 H 224.995 3.05193 -2.84892 0
M  V30 2263 H 226.385 1.45178 -6.56028 0
M  V30 2264 N 229.106 1.52395 0.401703 0
M  V30 2265 C 230.336 1.70429 1.1678 0
M  V30 2266 C 230.744 0.416702 1.84554 0
M  V30 2267 O 230.087 -0.617697 1.73003 0
M  V30 2268 C 230.149 2.78919 2.26814 0
M  V30 2269 C 229.813 4.20437 1.79113 0
M  V30 2270 C 230.81 5.04028 1.27482 0
M  V30 2271 C 228.495 4.66704 1.85722 0
M  V30 2272 C 230.489 6.31961 0.830913 0
M  V30 2273 C 228.176 5.94625 1.40942 0
M  V30 2274 C 229.174 6.77082 0.897128 0
M  V30 2275 O 228.862 8.02607 0.455822 0
M  V30 2276 H 228.594 0.574272 0.356634 0
M  V30 2277 H 231.148 1.99767 0.477724 0
M  V30 2278 H 229.378 2.44973 2.99207 0
M  V30 2279 H 231.067 2.8548 2.88541 0
M  V30 2280 H 231.833 4.69471 1.21744 0
M  V30 2281 H 227.712 4.0262 2.24539 0
M  V30 2282 H 231.256 6.96271 0.430368 0
M  V30 2283 H 227.153 6.28688 1.46362 0
M  V30 2284 H 227.921 8.16453 0.578457 0
M  V30 2285 N 230.584 -0.659388 1.43143 0
M  V30 2286 C 231.861 -1.41627 1.34912 0
M  V30 2287 C 232.241 -2.11099 -0.00607785 0
M  V30 2288 O 231.589 -2.04353 -1.02236 0
M  V30 2289 C 231.799 -2.40604 2.52805 0
M  V30 2290 C 233.147 -3.04789 2.95616 0
M  V30 2291 O 234.171 -2.50932 2.52807 0
M  V30 2292 O 233.03 -4.02421 3.69756 0
M  V30 2293 H 230.124 -0.63246 0.532844 0
M  V30 2294 H 232.67 -0.686814 1.5518 0
M  V30 2295 H 231.442 -1.88174 3.43083 0
M  V30 2296 H 231.065 -3.21009 2.34604 0
M  V30 2297 N 232.062 -1.29571 -0.897171 0
M  V30 2298 C 233.287 -1.20705 -1.68656 0
M  V30 2299 C 233.712 0.228582 -1.86706 0
M  V30 2300 O 233.07 1.16494 -1.3892 0
M  V30 2301 C 233.118 -1.9282 -3.04717 0
M  V30 2302 O 232.222 -1.24697 -3.93096 0
M  V30 2303 H 231.563 -0.418126 -0.515816 0
M  V30 2304 H 234.093 -1.71183 -1.12061 0
M  V30 2305 H 234.103 -2.01372 -3.54843 0
M  V30 2306 H 232.778 -2.97239 -2.90899 0
M  V30 2307 H 231.355 -1.2442 -3.51531 0
M  V30 2308 N 233.54 1.10788 -1.12088 0
M  V30 2309 C 234.503 2.15207 -0.788577 0
M  V30 2310 C 235.503 1.59609 0.195317 0
M  V30 2311 O 236.693 1.74174 -0.0300193 0
M  V30 2312 C 233.825 3.4047 -0.171174 0
M  V30 2313 H 235.018 2.46116 -1.71368 0
M  V30 2314 H 232.571 1.26089 -0.923652 0
M  V30 2315 H 233.306 3.15176 0.763832 0
M  V30 2316 H 233.091 3.82109 -0.879514 0
M  V30 2317 H 234.581 4.17576 0.04496 0
M  V30 2318 N 235.018 0.912232 1.28515 0
M  V30 2319 C 236.266 0.543523 1.94654 0
M  V30 2320 C 236.587 -0.9155 1.72173 0
M  V30 2321 O 235.857 -1.64708 1.06058 0
M  V30 2322 H 234.437 0.198017 0.720277 0
M  V30 2323 H 237.099 1.16126 1.56527 0
M  V30 2324 H 236.195 0.736684 3.03281 0
M  V30 2325 N 236.496 -1.42363 0.676048 0
M  V30 2326 C 237.912 -1.55811 0.345718 0
M  V30 2327 C 238.112 -1.65544 -1.14879 0
M  V30 2328 O 237.168 -1.62306 -1.93424 0
M  V30 2329 C 238.481 -2.80746 1.07713 0
M  V30 2330 C 240.029 -2.9452 1.05958 0
M  V30 2331 C 240.504 -4.22318 1.77233 0
M  V30 2332 N 241.995 -4.29233 1.74108 0
M  V30 2333 C 242.73 -5.26935 2.26113 0
M  V30 2334 N 242.226 -6.30783 2.86505 0
M  V30 2335 N 244.019 -5.18741 2.1648 0
M  V30 2336 H 236.17 -1.34289 1.6456 0
M  V30 2337 H 238.433 -0.646506 0.69335 0
M  V30 2338 H 238.139 -2.79696 2.13221 0
M  V30 2339 H 238.013 -3.71676 0.64316 0
M  V30 2340 H 240.4 -2.95097 0.0128255 0
M  V30 2341 H 240.481 -2.04817 1.53244 0
M  V30 2342 H 240.125 -4.22502 2.81877 0
M  V30 2343 H 240.055 -5.10958 1.27396 0
M  V30 2344 H 242.546 -3.54814 1.30059 0
M  V30 2345 H 242.859 -7.01691 3.23805 0
M  V30 2346 H 241.204 -6.31341 2.90575 0
M  V30 2347 H 244.395 -4.36533 1.68987 0
M  V30 2348 H 244.568 -5.94721 2.57316 0
M  V30 2349 N 237.974 -0.419461 -1.51915 0
M  V30 2350 C 239.223 0.154346 -2.01109 0
M  V30 2351 C 239.536 1.45338 -1.30905 0
M  V30 2352 O 240.742 2.10906 -1.7097 0
M  V30 2353 C 239.198 0.325615 -3.58424 0
M  V30 2354 C 238.806 -0.961934 -4.37551 0
M  V30 2355 C 240.55 0.854155 -4.15818 0
M  V30 2356 C 238.457 -0.757287 -5.86531 0
M  V30 2357 H 237.387 0.0614563 -0.751491 0
M  V30 2358 H 240.038 -0.54649 -1.75173 0
M  V30 2359 H 238.42 1.08903 -3.80731 0
M  V30 2360 H 239.594 -1.7323 -4.26999 0
M  V30 2361 H 237.909 -1.41766 -3.91524 0
M  V30 2362 H 240.506 1.02346 -5.24814 0
M  V30 2363 H 240.849 1.83172 -3.73837 0
M  V30 2364 H 241.382 0.149528 -3.97519 0
M  V30 2365 H 238.121 -1.70671 -6.32892 0
M  V30 2366 H 237.641 -0.0264061 -5.99794 0
M  V30 2367 H 239.32 -0.403482 -6.45741 0
M  V30 2368 N 239.452 1.56882 -0.150215 0
M  V30 2369 C 240.868 1.58263 0.20617 0
M  V30 2370 C 241.068 1.16464 1.64434 0
M  V30 2371 O 240.124 0.866422 2.3717 0
M  V30 2372 C 241.437 3.00649 -0.0555025 0
M  V30 2373 C 242.985 3.12999 0.00795388 0
M  V30 2374 C 243.46 4.5744 -0.226429 0
M  V30 2375 N 244.951 4.62875 -0.173469 0
M  V30 2376 C 245.686 5.72454 -0.329288 0
M  V30 2377 N 245.182 6.90669 -0.543005 0
M  V30 2378 N 246.975 5.61467 -0.266666 0
M  V30 2379 H 239.126 1.82345 -1.08922 0
M  V30 2380 H 241.389 0.844149 -0.431413 0
M  V30 2381 H 241.095 3.3563 -1.05096 0
M  V30 2382 H 240.969 3.71337 0.66246 0
M  V30 2383 H 243.356 2.77857 0.993966 0
M  V30 2384 H 243.437 2.4479 -0.742388 0
M  V30 2385 H 243.081 4.93287 -1.20956 0
M  V30 2386 H 243.011 5.2378 0.544274 0
M  V30 2387 H 245.502 3.77898 -0.0130709 0
M  V30 2388 H 245.815 7.70045 -0.651922 0
M  V30 2389 H 244.16 6.92581 -0.579366 0
M  V30 2390 H 247.351 4.67992 -0.100441 0
M  V30 2391 H 247.524 6.46816 -0.391535 0
M  V30 2392 N 240.93 -0.123565 1.57115 0
M  V30 2393 C 241.877 -1.15177 2.00007 0
M  V30 2394 C 242.847 -1.41403 0.871454 0
M  V30 2395 O 244.032 -1.53346 1.13533 0
M  V30 2396 C 241.172 -2.47436 2.40561 0
M  V30 2397 C 240.285 -2.28184 3.66819 0
M  V30 2398 C 239.42 -3.53641 3.96373 0
M  V30 2399 C 238.459 -3.29528 5.15827 0
M  V30 2400 N 237.596 -4.47175 5.41275 0
M  V30 2401 H 242.436 -0.779008 2.87638 0
M  V30 2402 H 239.973 -0.373166 1.42288 0
M  V30 2403 H 241.931 -3.24584 2.62109 0
M  V30 2404 H 240.561 -2.82614 1.55978 0
M  V30 2405 H 239.613 -1.41976 3.52912 0
M  V30 2406 H 240.925 -2.0634 4.5412 0
M  V30 2407 H 240.079 -4.39209 4.18545 0
M  V30 2408 H 238.818 -3.78512 3.07538 0
M  V30 2409 H 237.823 -2.42349 4.93505 0
M  V30 2410 H 239.048 -3.06031 6.06236 0
M  V30 2411 H 236.994 -4.72175 4.55397 0
M  V30 2412 H 236.911 -4.28419 6.22891 0
M  V30 2413 H 238.179 -5.3389 5.67963 0
M  V30 2414 N 242.408 -1.52605 -0.393616 0
M  V30 2415 C 243.656 -1.67093 -1.13685 0
M  V30 2416 C 243.977 -0.411011 -1.90619 0
M  V30 2417 O 243.247 0.574491 -1.87287 0
M  V30 2418 H 241.827 -0.615923 -0.422668 0
M  V30 2419 H 244.489 -1.89704 -0.447039 0
M  V30 2420 H 243.585 -2.51922 -1.84232 0
M  V30 2421 N 243.887 0.651787 -1.4349 0
M  V30 2422 C 245.298 1.233 -1.40193 0
M  V30 2423 C 245.649 1.9591 -0.106727 0
M  V30 2424 O 244.774 2.01316 0.793773 0
M  V30 2425 C 245.369 2.24257 -2.53957 0
M  V30 2426 C 243.928 2.77852 -2.5392 0
M  V30 2427 C 243.075 1.52517 -2.3159 0
M  V30 2428 H 246.026 0.443717 -1.52371 0
M  V30 2429 H 246.047 3.0646 -2.25528 0
M  V30 2430 H 245.559 1.71382 -3.4821 0
M  V30 2431 H 243.66 3.34786 -1.63551 0
M  V30 2432 H 243.773 3.25299 -3.51735 0
M  V30 2433 H 242.137 1.79915 -1.80285 0
M  V30 2434 H 242.92 1.01574 -3.27929 0
M  V30 2435 N 245.365 1.30045 0.890287 0
M  V30 2436 C 246.328 1.15963 1.977 0
M  V30 2437 C 247.328 0.0923777 1.60534 0
M  V30 2438 O 248.518 0.340071 1.70848 0
M  V30 2439 C 245.65 0.775451 3.31963 0
M  V30 2440 H 246.843 2.12502 2.11619 0
M  V30 2441 H 244.396 1.13366 1.07601 0
M  V30 2442 H 245.131 -0.189671 3.23745 0
M  V30 2443 H 244.916 1.54668 3.60306 0
M  V30 2444 H 246.406 0.700251 4.11687 0
M  V30 2445 N 246.843 -1.10192 1.12674 0
M  V30 2446 C 248.254 -1.63707 0.897604 0
M  V30 2447 C 248.605 -1.87812 -0.567546 0
M  V30 2448 O 247.73 -1.62196 -1.43253 0
M  V30 2449 C 248.325 -2.974 1.62292 0
M  V30 2450 C 246.884 -3.47772 1.43986 0
M  V30 2451 C 246.031 -2.22332 1.65722 0
M  V30 2452 H 248.982 -0.936587 1.28116 0
M  V30 2453 H 249.003 -3.64986 1.07541 0
M  V30 2454 H 248.515 -2.79824 2.68924 0
M  V30 2455 H 246.616 -3.70487 0.396206 0
M  V30 2456 H 246.729 -4.25723 2.19765 0
M  V30 2457 H 245.093 -2.30599 1.08149 0
M  V30 2458 H 245.876 -2.07285 2.73657 0
M  V30 2459 N 248.321 -0.919034 -1.28029 0
M  V30 2460 C 249.231 -0.416756 -2.30869 0
M  V30 2461 C 250.247 0.498235 -1.66714 0
M  V30 2462 O 251.423 0.383144 -1.97722 0
M  V30 2463 C 248.488 0.330274 -3.45123 0
M  V30 2464 C 247.549 -0.618578 -4.2482 0
M  V30 2465 C 246.782 0.0928959 -5.33619 0
M  V30 2466 O 247.005 1.31375 -5.55065 0
M  V30 2467 O 245.939 -0.574499 -5.99152 0
M  V30 2468 H 249.765 -1.27043 -2.75851 0
M  V30 2469 H 247.35 -0.684052 -1.3282 0
M  V30 2470 H 249.232 0.751972 -4.14636 0
M  V30 2471 H 247.907 1.1597 -3.02213 0
M  V30 2472 H 246.814 -1.08978 -3.57875 0
M  V30 2473 H 248.147 -1.41497 -4.71423 0
M  V30 2474 N 249.799 1.42003 -0.683588 0
M  V30 2475 C 250.747 2.326 0.000815408 0
M  V30 2476 C 251.741 1.50308 0.781278 0
M  V30 2477 O 252.947 1.66322 0.688251 0
M  V30 2478 H 249.322 0.751758 0.0190616 0
M  V30 2479 H 251.293 2.88011 -0.780528 0
M  V30 2480 C 250.042 3.34978 0.93195 0
M  V30 2481 H 249.365 3.98345 0.340817 0
M  V30 2482 H 250.805 4.00936 1.37936 0
M  V30 2483 C 249.264 2.67925 2.04249 0
M  V30 2484 O 249.794 2.51788 3.12995 0
M  V30 2485 N 248 2.2681 1.81675 0
M  V30 2486 H 247.547 2.40135 0.932363 0
M  V30 2487 H 247.505 1.8228 2.56167 0
M  V30 2488 N 251.277 0.427512 1.51691 0
M  V30 2489 C 252.207 -0.3796 2.30394 0
M  V30 2490 C 253.188 -1.02982 1.35384 0
M  V30 2491 O 254.373 -1.03534 1.643 0
M  V30 2492 C 251.503 -1.48649 3.1388 0
M  V30 2493 C 250.457 -0.960294 4.17088 0
M  V30 2494 C 249.783 -2.16219 4.89033 0
M  V30 2495 C 251.083 -0.00153679 5.223 0
M  V30 2496 H 252.777 0.277164 2.98114 0
M  V30 2497 H 250.323 0.134739 1.43368 0
M  V30 2498 H 252.276 -2.05826 3.67714 0
M  V30 2499 H 251 -2.1714 2.43962 0
M  V30 2500 H 249.659 -0.410806 3.64291 0
M  V30 2501 H 249.307 -2.83307 4.15628 0
M  V30 2502 H 249.007 -1.81654 5.58816 0
M  V30 2503 H 250.531 -2.73968 5.45687 0
M  V30 2504 H 251.945 -0.482687 5.71264 0
M  V30 2505 H 250.342 0.256199 5.99553 0
M  V30 2506 H 251.412 0.938174 4.75738 0
M  V30 2507 N 252.755 -1.56801 0.158532 0
M  V30 2508 C 254.166 -1.83189 -0.360366 0
M  V30 2509 C 254.517 -1.07778 -1.63946 0
M  V30 2510 O 253.642 -0.326718 -2.13919 0
M  V30 2511 C 254.237 -3.32297 -0.660595 0
M  V30 2512 C 252.796 -3.59227 -1.12398 0
M  V30 2513 C 251.943 -2.76877 -0.153097 0
M  V30 2514 H 254.894 -1.54008 0.383031 0
M  V30 2515 H 254.915 -3.4908 -1.51405 0
M  V30 2516 H 254.427 -3.87156 0.270527 0
M  V30 2517 H 252.528 -3.09766 -2.07064 0
M  V30 2518 H 252.641 -4.67632 -1.04197 0
M  V30 2519 H 251.005 -2.46319 -0.647983 0
M  V30 2520 H 251.788 -3.34511 0.77182 0
M  V30 2521 N 254.233 0.115231 -1.57178 0
M  V30 2522 C 255.482 0.820945 -1.84237 0
M  V30 2523 C 255.795 1.80866 -0.744761 0
M  V30 2524 O 257.001 2.56083 -0.901871 0
M  V30 2525 C 255.457 1.51072 -3.26658 0
M  V30 2526 C 255.065 0.563795 -4.44438 0
M  V30 2527 C 256.809 2.20134 -3.62962 0
M  V30 2528 C 254.716 1.25701 -5.77887 0
M  V30 2529 H 253.646 0.310328 -0.687177 0
M  V30 2530 H 256.297 0.0737134 -1.83352 0
M  V30 2531 H 254.679 2.30471 -3.22024 0
M  V30 2532 H 255.853 -0.197247 -4.60378 0
M  V30 2533 H 254.168 -0.0200638 -4.16395 0
M  V30 2534 H 256.765 2.72696 -4.59936 0
M  V30 2535 H 257.108 2.98107 -2.90582 0
M  V30 2536 H 257.641 1.47619 -3.69396 0
M  V30 2537 H 254.38 0.518493 -6.53446 0
M  V30 2538 H 253.9 1.98997 -5.65827 0
M  V30 2539 H 255.579 1.78915 -6.2177 0
M  V30 2540 N 255.711 1.52812 0.385517 0
M  V30 2541 C 257.122 1.5993 0.963293 0
M  V30 2542 C 257.473 0.454302 1.90868 0
M  V30 2543 O 256.598 -0.422132 2.12243 0
M  V30 2544 C 257.193 2.89871 1.75387 0
M  V30 2545 C 255.752 2.99389 2.28129 0
M  V30 2546 C 254.899 2.55071 1.08783 0
M  V30 2547 H 257.85 1.5784 0.164948 0
M  V30 2548 H 257.871 2.76553 2.61341 0
M  V30 2549 H 257.383 3.73186 1.06554 0
M  V30 2550 H 255.484 2.20619 3.00263 0
M  V30 2551 H 255.597 4.04096 2.57377 0
M  V30 2552 H 253.961 2.09473 1.4489 0
M  V30 2553 H 254.744 3.40785 0.414807 0
M  V30 2554 N 257.189 -0.644168 1.43834 0
M  V30 2555 C 258.119 -1.76814 1.52509 0
M  V30 2556 C 259.1 -1.65823 0.379052 0
M  V30 2557 O 260.285 -1.84781 0.597466 0
M  V30 2558 C 257.415 -3.15288 1.4564 0
M  V30 2559 C 256.369 -3.41053 2.58586 0
M  V30 2560 C 255.695 -4.79421 2.36769 0
M  V30 2561 C 256.995 -3.34902 4.00797 0
M  V30 2562 H 258.689 -1.69812 2.46586 0
M  V30 2563 H 256.235 -0.815542 1.1868 0
M  V30 2564 H 258.188 -3.93681 1.50311 0
M  V30 2565 H 256.912 -3.23043 0.480725 0
M  V30 2566 H 255.571 -2.65035 2.53282 0
M  V30 2567 H 255.219 -4.83863 1.37424 0
M  V30 2568 H 254.919 -4.9762 3.12487 0
M  V30 2569 H 256.443 -5.6006 2.43238 0
M  V30 2570 H 257.857 -4.03218 4.07539 0
M  V30 2571 H 256.254 -3.64637 4.76613 0
M  V30 2572 H 257.324 -2.32928 4.25291 0
M  V30 2573 N 258.668 -1.30515 -0.883378 0
M  V30 2574 C 259.631 -1.1701 -1.97082 0
M  V30 2575 C 260.631 -0.10089 -1.60483 0
M  V30 2576 O 261.821 -0.349127 -1.70666 0
M  V30 2577 C 258.953 -0.793045 -3.31547 0
M  V30 2578 H 260.146 -2.13622 -2.10489 0
M  V30 2579 H 257.699 -1.13935 -1.06998 0
M  V30 2580 H 258.434 0.172499 -3.23841 0
M  V30 2581 H 258.219 -1.56576 -3.5948 0
M  V30 2582 H 259.709 -0.722073 -4.1131 0
M  V30 2583 N 260.146 1.09593 -1.13257 0
M  V30 2584 C 261.093 2.1618 -0.808381 0
M  V30 2585 C 262.063 1.64517 0.228754 0
M  V30 2586 O 263.248 1.9053 0.101381 0
M  V30 2587 C 260.388 3.43973 -0.278675 0
M  V30 2588 C 259.501 4.09545 -1.37466 0
M  V30 2589 C 258.636 5.25088 -0.803479 0
M  V30 2590 C 257.675 5.82579 -1.87799 0
M  V30 2591 N 256.812 6.89486 -1.32488 0
M  V30 2592 H 261.652 2.43254 -1.72138 0
M  V30 2593 H 259.189 1.19392 -0.859294 0
M  V30 2594 H 261.147 4.17174 0.0465583 0
M  V30 2595 H 259.777 3.17223 0.597459 0
M  V30 2596 H 258.829 3.34226 -1.81652 0
M  V30 2597 H 260.141 4.48307 -2.18684 0
M  V30 2598 H 259.295 6.05178 -0.429427 0
M  V30 2599 H 258.034 4.87684 0.0397956 0
M  V30 2600 H 257.039 5.01152 -2.26113 0
M  V30 2601 H 258.264 6.22045 -2.72463 0
M  V30 2602 H 256.21 6.54064 -0.503575 0
M  V30 2603 H 256.127 7.27007 -2.07355 0
M  V30 2604 H 257.395 7.73336 -0.978336 0
M  V30 2605 N 261.624 0.925811 1.2754 0
M  V30 2606 C 262.871 0.565255 1.94451 0
M  V30 2607 C 263.199 -0.89316 1.7278 0
M  V30 2608 O 262.454 -1.65213 1.04895 0
M  V30 2609 C 262.753 0.835296 3.47502 0
M  V30 2610 C 262.419 2.27515 3.89291 0
M  V30 2611 C 261.081 2.66879 4.00411 0
M  V30 2612 C 263.433 3.21158 4.10496 0
M  V30 2613 C 260.761 3.99014 4.30122 0
M  V30 2614 C 263.113 4.52871 4.4169 0
M  V30 2615 C 261.777 4.92072 4.51023 0
M  V30 2616 H 261.047 0.206841 0.711546 0
M  V30 2617 H 263.694 1.16942 1.51647 0
M  V30 2618 H 261.999 0.148442 3.91519 0
M  V30 2619 H 263.696 0.535322 3.97411 0
M  V30 2620 H 260.286 1.95976 3.81171 0
M  V30 2621 H 264.47 2.9195 4.01346 0
M  V30 2622 H 259.726 4.2907 4.35556 0
M  V30 2623 H 263.9 5.25436 4.57045 0
M  V30 2624 H 261.527 5.9449 4.738 0
M  V30 2625 N 263.102 -1.41638 0.69111 0
M  V30 2626 C 264.351 -2.00526 0.217318 0
M  V30 2627 C 264.664 -1.55353 -1.18848 0
M  V30 2628 O 265.87 -2.06769 -1.75951 0
M  V30 2629 C 264.326 -3.58313 0.337639 0
M  V30 2630 C 263.934 -4.12469 1.74852 0
M  V30 2631 C 265.678 -4.24431 -0.0766066 0
M  V30 2632 C 263.585 -5.62675 1.82074 0
M  V30 2633 H 262.515 -0.750008 0.0774893 0
M  V30 2634 H 265.166 -1.6217 0.858661 0
M  V30 2635 H 263.548 -3.9425 -0.371879 0
M  V30 2636 H 264.722 -3.8796 2.48644 0
M  V30 2637 H 263.037 -3.58861 2.11205 0
M  V30 2638 H 265.634 -5.34683 -0.0430284 0
M  V30 2639 H 265.977 -4.01101 -1.1146 0
M  V30 2640 H 266.51 -3.93512 0.582476 0
M  V30 2641 H 263.249 -5.90826 2.83911 0
M  V30 2642 H 262.769 -5.89124 1.12661 0
M  V30 2643 H 264.448 -6.27371 1.58159 0
M  V30 2644 N 264.58 -0.43555 -1.51462 0
M  V30 2645 C 265.857 0.191364 -1.94662 0
M  V30 2646 C 266.237 1.60254 -1.37411 0
M  V30 2647 O 265.585 2.2152 -0.560458 0
M  V30 2648 C 265.795 0.17091 -3.48581 0
M  V30 2649 C 267.143 0.377357 -4.2292 0
M  V30 2650 O 268.167 0.249104 -3.55328 0
M  V30 2651 O 267.026 0.63247 -5.42828 0
M  V30 2652 H 264.12 0.130932 -0.816569 0
M  V30 2653 H 266.666 -0.4934 -1.62369 0
M  V30 2654 H 265.438 -0.815738 -3.82703 0
M  V30 2655 H 265.061 0.898659 -3.87311 0
M  V30 2656 N 266.058 1.56714 -0.166846 0
M  V30 2657 C 266.968 2.21331 0.777791 0
M  V30 2658 C 267.984 1.20358 1.25658 0
M  V30 2659 O 269.16 1.53005 1.30964 0
M  V30 2660 C 266.225 2.83787 1.99163 0
M  V30 2661 C 265.286 3.99947 1.56016 0
M  V30 2662 C 264.519 4.59415 2.71613 0
M  V30 2663 O 264.742 4.17769 3.88362 0
M  V30 2664 O 263.676 5.49359 2.45945 0
M  V30 2665 H 267.502 3.02605 0.257636 0
M  V30 2666 H 265.087 1.49275 0.0611393 0
M  V30 2667 H 266.969 3.23405 2.70161 0
M  V30 2668 H 265.644 2.05513 2.50092 0
M  V30 2669 H 264.551 3.65007 0.819809 0
M  V30 2670 H 265.884 4.79801 1.09782 0
M  V30 2671 N 267.536 -0.106894 1.57237 0
M  V30 2672 C 268.764 -0.826389 1.8968 0
M  V30 2673 C 269.179 -1.72856 0.759353 0
M  V30 2674 O 268.536 -1.80503 -0.269263 0
M  V30 2675 C 268.587 -1.64967 3.21665 0
M  V30 2676 O 268.308 -0.783804 4.31031 0
M  V30 2677 C 269.809 -2.47326 3.67892 0
M  V30 2678 H 267.029 -0.236927 0.627779 0
M  V30 2679 H 269.573 -0.0876593 2.04312 0
M  V30 2680 H 267.728 -2.34103 3.08666 0
M  V30 2681 H 268.142 -1.35284 5.06753 0
M  V30 2682 H 269.616 -3.00604 4.6297 0
M  V30 2683 H 270.093 -3.25247 2.95146 0
M  V30 2684 H 270.699 -1.83411 3.83719 0
M  V30 2685 N 269.014 -1.53014 -0.377408 0
M  V30 2686 C 270.242 -1.72515 -1.14219 0
M  V30 2687 C 270.657 -0.448735 -1.8339 0
M  V30 2688 O 270.014 0.577592 -1.73119 0
M  V30 2689 C 270.065 -2.8826 -2.18148 0
M  V30 2690 O 269.786 -4.10962 -1.51795 0
M  V30 2691 C 271.287 -3.19536 -3.07264 0
M  V30 2692 H 268.507 -0.577301 -0.342001 0
M  V30 2693 H 271.051 -1.99712 -0.439935 0
M  V30 2694 H 269.206 -2.63492 -2.83991 0
M  V30 2695 H 269.62 -4.75693 -2.20945 0
M  V30 2696 H 271.094 -4.03959 -3.76193 0
M  V30 2697 H 271.571 -2.34403 -3.71419 0
M  V30 2698 H 272.177 -3.46186 -2.47053 0
M  V30 2699 N 270.492 0.636531 -1.44174 0
M  V30 2700 C 271.741 1.39213 -1.45954 0
M  V30 2701 C 272.054 1.95374 -0.0939119 0
M  V30 2702 O 273.26 2.71498 0.0107767 0
M  V30 2703 C 271.716 2.52025 -2.56927 0
M  V30 2704 C 271.324 2.024 -3.99673 0
M  V30 2705 C 273.068 3.29269 -2.67922 0
M  V30 2706 C 270.975 3.12521 -5.0208 0
M  V30 2707 H 269.905 0.523132 -0.542999 0
M  V30 2708 H 272.556 0.685349 -1.70221 0
M  V30 2709 H 270.938 3.25253 -2.25891 0
M  V30 2710 H 272.112 1.36073 -4.40251 0
M  V30 2711 H 270.427 1.37987 -3.92872 0
M  V30 2712 H 273.024 4.11352 -3.41605 0
M  V30 2713 H 273.367 3.78397 -1.73555 0
M  V30 2714 H 273.9 2.63129 -2.98342 0
M  V30 2715 H 270.639 2.68343 -5.98057 0
M  V30 2716 H 270.159 3.77507 -4.66099 0
M  V30 2717 H 271.838 3.77385 -5.25538 0
M  V30 2718 N 271.97 1.30982 0.876444 0
M  V30 2719 C 272.902 1.13902 1.98894 0
M  V30 2720 C 273.915 0.0798815 1.62604 0
M  V30 2721 O 275.104 0.326743 1.75484 0
M  V30 2722 C 272.204 0.716699 3.31235 0
M  V30 2723 C 271.377 1.85945 3.95908 0
M  V30 2724 C 270.436 1.42426 5.06558 0
M  V30 2725 O 269.462 2.13287 5.27729 0
M  V30 2726 N 270.664 0.308025 5.79682 0
M  V30 2727 H 273.429 2.09724 2.14094 0
M  V30 2728 H 270.99 1.2323 1.05004 0
M  V30 2729 H 272.982 0.408403 4.02634 0
M  V30 2730 H 271.552 -0.149719 3.12241 0
M  V30 2731 H 270.772 2.33541 3.17573 0
M  V30 2732 H 272.06 2.62503 4.35855 0
M  V30 2733 H 271.458 -0.282241 5.64995 0
M  V30 2734 H 270.015 0.0592282 6.51773 0
M  V30 2735 N 273.449 -1.08991 1.13837 0
M  V30 2736 C 274.379 -2.17771 0.842507 0
M  V30 2737 C 275.36 -1.6892 -0.20001 0
M  V30 2738 O 276.545 -1.94113 -0.0579731 0
M  V30 2739 C 273.675 -3.4589 0.312644 0
M  V30 2740 C 272.629 -4.08099 1.28992 0
M  V30 2741 C 271.955 -5.31098 0.619623 0
M  V30 2742 C 273.255 -4.50077 2.65005 0
M  V30 2743 H 274.949 -2.42777 1.75213 0
M  V30 2744 H 272.495 -1.16682 0.843875 0
M  V30 2745 H 274.448 -4.21297 0.0933043 0
M  V30 2746 H 273.172 -3.20419 -0.632382 0
M  V30 2747 H 271.831 -3.34717 1.49533 0
M  V30 2748 H 271.479 -5.0191 -0.33102 0
M  V30 2749 H 271.179 -5.73674 1.27167 0
M  V30 2750 H 272.703 -6.09224 0.409669 0
M  V30 2751 H 274.117 -5.16688 2.48407 0
M  V30 2752 H 272.514 -5.03553 3.26427 0
M  V30 2753 H 273.584 -3.62257 3.22332 0
M  V30 2754 N 274.927 -0.932562 -1.27047 0
M  V30 2755 C 276.175 -0.574422 -1.93765 0
M  V30 2756 C 276.496 0.887993 -1.73608 0
M  V30 2757 O 275.766 1.62999 -1.08665 0
M  V30 2758 H 274.346 -0.209451 -0.717035 0
M  V30 2759 H 277.008 -1.18601 -1.5466 0
M  V30 2760 H 276.104 -0.784841 -3.02071 0
M  V30 2761 O 276.444 1.38103 -0.83724 0
M  V30 2762 H 277.135 1.88989 -0.424593 0
M  V30 END ATOM
M  V30 BEGIN BOND
M  V30 END BOND
M  V30 END CTAB
M  END
$$$$
